data_str_m2_o10_o16_pcu_sym.197
_audit_creation_date              2020-01-03
_audit_creation_method            'Materials Studio'
_symmetry_space_group_name_H-M    'P1'
_symmetry_Int_Tables_number       1
_symmetry_cell_setting            triclinic
loop_
_symmetry_equiv_pos_as_xyz
  x,y,z
_cell_length_a                    22.6918
_cell_length_b                    26.1115
_cell_length_c                    26.4657
_cell_angle_alpha                 95.4840
_cell_angle_beta                  77.3720
_cell_angle_gamma                 103.7014
loop_
_atom_site_label
_atom_site_type_symbol
_atom_site_fract_x
_atom_site_fract_y
_atom_site_fract_z
_atom_site_U_iso_or_equiv
_atom_site_adp_type
_atom_site_occupancy
C1     C     0.18179   0.26664   0.25160   0.00000  Uiso   1.00
C2     C     0.14531   0.17949   0.48820   0.00000  Uiso   1.00
C3     C     0.15925   0.19327   0.43606   0.00000  Uiso   1.00
C4     C     0.19334   0.18739   0.01577   0.00000  Uiso   1.00
C5     C     0.24729   0.22631   0.49965   0.00000  Uiso   1.00
C6     C     0.25748   0.24834   0.45160   0.00000  Uiso   1.00
C7     C     0.21418   0.23214   0.41970   0.00000  Uiso   1.00
C8     C     0.18426   0.16378   0.06319   0.00000  Uiso   1.00
C9     C     0.27069   0.22889   0.08492   0.00000  Uiso   1.00
C10    C     0.11422   0.17268   0.40513   0.00000  Uiso   1.00
C11    C     0.18950   0.32283   0.25337   0.00000  Uiso   1.00
C12    C     0.13352   0.16709   0.34760   0.00000  Uiso   1.00
C13    C     0.14330   0.01044   0.24738   0.00000  Uiso   1.00
C14    C     0.15146   0.06668   0.24847   0.00000  Uiso   1.00
C15    C     0.20042   0.17171   0.15305   0.00000  Uiso   1.00
C16    C     0.28513   0.24781   0.03500   0.00000  Uiso   1.00
C17    C     0.22160   0.18556   0.09867   0.00000  Uiso   1.00
C18    C     0.05176   0.15401   0.43045   0.00000  Uiso   1.00
C19    C     0.03648   0.15655   0.48509   0.00000  Uiso   1.00
C20    C     0.08267   0.17051   0.01425   0.00000  Uiso   1.00
Cu21   Cu    0.10710   0.16105   0.24436   0.00000  Uiso   1.00
Cu22   Cu    0.22623   0.17228   0.25565   0.00000  Uiso   1.00
H23    H     0.29522   0.25006   0.11381   0.00000  Uiso   1.00
H24    H     0.09912   0.31954   0.24130   0.00000  Uiso   1.00
H25    H     0.29710   0.28049   0.44026   0.00000  Uiso   1.00
H26    H     0.32271   0.28186   0.02524   0.00000  Uiso   1.00
H27    H     0.14448   0.13180   0.07465   0.00000  Uiso   1.00
H28    H     0.32193   0.14956   0.00516   0.00000  Uiso   1.00
H29    H     0.23341   0.01371   0.25989   0.00000  Uiso   1.00
N30    N     0.31574   0.18074   0.26416   0.00000  Uiso   1.00
N31    N     0.01759   0.15259   0.23584   0.00000  Uiso   1.00
O32    O     0.12797   0.23807   0.24633   0.00000  Uiso   1.00
O33    O     0.22858   0.24755   0.25587   0.00000  Uiso   1.00
O34    O     0.09181   0.15960   0.31840   0.00000  Uiso   1.00
O35    O     0.19242   0.16908   0.32793   0.00000  Uiso   1.00
O36    O     0.10476   0.08578   0.24414   0.00000  Uiso   1.00
O37    O     0.20536   0.09526   0.25367   0.00000  Uiso   1.00
O38    O     0.14092   0.16425   0.17207   0.00000  Uiso   1.00
O39    O     0.24152   0.17373   0.18161   0.00000  Uiso   1.00
Cl40   Cl    0.00851   0.22135   0.31371   0.00000  Uiso   1.00
O41    O     0.32935   0.13000   0.19355   0.00000  Uiso   1.00
C42    C     0.01275   0.08115   0.18157   0.00000  Uiso   1.00
H43    H     0.00052   0.05713   0.21644   0.00000  Uiso   1.00
H44    H     0.06270   0.08653   0.16438   0.00000  Uiso   1.00
C45    C     0.31099   0.05089   0.14117   0.00000  Uiso   1.00
H46    H     0.32293   0.07357   0.10549   0.00000  Uiso   1.00
H47    H     0.32376   0.01217   0.13116   0.00000  Uiso   1.00
H48    H     0.26029   0.04420   0.15643   0.00000  Uiso   1.00
O49    O     0.00537   0.14351   0.40206   0.00000  Uiso   1.00
C50    C     0.30170   0.09220   0.41035   0.00000  Uiso   1.00
H51    H     0.27888   0.08680   0.45175   0.00000  Uiso   1.00
H52    H     0.32989   0.06206   0.39691   0.00000  Uiso   1.00
C53    C     0.25075   0.08366   0.37952   0.00000  Uiso   1.00
H54    H     0.27093   0.08408   0.33732   0.00000  Uiso   1.00
H55    H     0.21765   0.04556   0.38859   0.00000  Uiso   1.00
H56    H     0.22485   0.11538   0.39036   0.00000  Uiso   1.00
O57    O     0.06611   0.18196   0.06725   0.00000  Uiso   1.00
C58    C     0.08563   0.23727   0.07782   0.00000  Uiso   1.00
H59    H     0.06188   0.25963   0.05863   0.00000  Uiso   1.00
H60    H     0.13572   0.25318   0.06361   0.00000  Uiso   1.00
C61    C     0.07285   0.25042   0.13594   0.00000  Uiso   1.00
H62    H     0.11100   0.24431   0.15276   0.00000  Uiso   1.00
H63    H     0.07059   0.29258   0.14331   0.00000  Uiso   1.00
H64    H     0.02868   0.22549   0.15553   0.00000  Uiso   1.00
Cl65   Cl    0.22101   0.27445   0.36993   0.00000  Uiso   1.00
C66    C     0.51512   0.26664   0.25160   0.00000  Uiso   1.00
C67    C     0.47865   0.17949   0.48820   0.00000  Uiso   1.00
C68    C     0.49258   0.19327   0.43606   0.00000  Uiso   1.00
C69    C     0.52668   0.18739   0.01577   0.00000  Uiso   1.00
C70    C     0.58062   0.22631   0.49965   0.00000  Uiso   1.00
C71    C     0.59081   0.24834   0.45160   0.00000  Uiso   1.00
C72    C     0.54752   0.23214   0.41970   0.00000  Uiso   1.00
C73    C     0.51759   0.16378   0.06319   0.00000  Uiso   1.00
C74    C     0.60402   0.22889   0.08492   0.00000  Uiso   1.00
C75    C     0.44755   0.17268   0.40513   0.00000  Uiso   1.00
C76    C     0.52283   0.32283   0.25337   0.00000  Uiso   1.00
C77    C     0.46686   0.16709   0.34760   0.00000  Uiso   1.00
C78    C     0.47664   0.01044   0.24738   0.00000  Uiso   1.00
C79    C     0.48479   0.06668   0.24847   0.00000  Uiso   1.00
C80    C     0.53375   0.17171   0.15305   0.00000  Uiso   1.00
C81    C     0.61846   0.24781   0.03500   0.00000  Uiso   1.00
C82    C     0.55493   0.18556   0.09867   0.00000  Uiso   1.00
C83    C     0.38509   0.15401   0.43045   0.00000  Uiso   1.00
C84    C     0.36982   0.15655   0.48509   0.00000  Uiso   1.00
C85    C     0.41601   0.17051   0.01425   0.00000  Uiso   1.00
Cu86   Cu    0.44043   0.16105   0.24436   0.00000  Uiso   1.00
Cu87   Cu    0.55957   0.17228   0.25565   0.00000  Uiso   1.00
H88    H     0.62855   0.25006   0.11381   0.00000  Uiso   1.00
H89    H     0.43245   0.31954   0.24130   0.00000  Uiso   1.00
H90    H     0.63044   0.28049   0.44026   0.00000  Uiso   1.00
H91    H     0.65604   0.28186   0.02524   0.00000  Uiso   1.00
H92    H     0.47781   0.13180   0.07465   0.00000  Uiso   1.00
H93    H     0.65526   0.14956   0.00516   0.00000  Uiso   1.00
H94    H     0.56674   0.01371   0.25989   0.00000  Uiso   1.00
N95    N     0.64908   0.18074   0.26416   0.00000  Uiso   1.00
N96    N     0.35092   0.15259   0.23584   0.00000  Uiso   1.00
O97    O     0.46131   0.23807   0.24633   0.00000  Uiso   1.00
O98    O     0.56191   0.24755   0.25587   0.00000  Uiso   1.00
O99    O     0.42515   0.15960   0.31840   0.00000  Uiso   1.00
O100   O     0.52575   0.16908   0.32793   0.00000  Uiso   1.00
O101   O     0.43809   0.08578   0.24414   0.00000  Uiso   1.00
O102   O     0.53869   0.09526   0.25367   0.00000  Uiso   1.00
O103   O     0.47425   0.16425   0.17207   0.00000  Uiso   1.00
O104   O     0.57485   0.17373   0.18161   0.00000  Uiso   1.00
Cl105  Cl    0.34184   0.22135   0.31371   0.00000  Uiso   1.00
O106   O     0.66269   0.13000   0.19355   0.00000  Uiso   1.00
C107   C     0.34609   0.08115   0.18157   0.00000  Uiso   1.00
H108   H     0.33385   0.05713   0.21644   0.00000  Uiso   1.00
H109   H     0.39603   0.08653   0.16438   0.00000  Uiso   1.00
C110   C     0.64432   0.05089   0.14117   0.00000  Uiso   1.00
H111   H     0.65626   0.07357   0.10549   0.00000  Uiso   1.00
H112   H     0.65710   0.01217   0.13116   0.00000  Uiso   1.00
H113   H     0.59363   0.04420   0.15643   0.00000  Uiso   1.00
O114   O     0.33870   0.14351   0.40206   0.00000  Uiso   1.00
C115   C     0.63504   0.09220   0.41035   0.00000  Uiso   1.00
H116   H     0.61221   0.08680   0.45175   0.00000  Uiso   1.00
H117   H     0.66322   0.06206   0.39691   0.00000  Uiso   1.00
C118   C     0.58408   0.08366   0.37952   0.00000  Uiso   1.00
H119   H     0.60426   0.08408   0.33732   0.00000  Uiso   1.00
H120   H     0.55098   0.04556   0.38859   0.00000  Uiso   1.00
H121   H     0.55818   0.11538   0.39036   0.00000  Uiso   1.00
O122   O     0.39944   0.18196   0.06725   0.00000  Uiso   1.00
C123   C     0.41896   0.23727   0.07782   0.00000  Uiso   1.00
H124   H     0.39521   0.25963   0.05863   0.00000  Uiso   1.00
H125   H     0.46905   0.25318   0.06361   0.00000  Uiso   1.00
C126   C     0.40618   0.25042   0.13594   0.00000  Uiso   1.00
H127   H     0.44433   0.24431   0.15276   0.00000  Uiso   1.00
H128   H     0.40392   0.29258   0.14331   0.00000  Uiso   1.00
H129   H     0.36202   0.22549   0.15553   0.00000  Uiso   1.00
Cl130  Cl    0.55435   0.27445   0.36993   0.00000  Uiso   1.00
C131   C     0.84846   0.26664   0.25160   0.00000  Uiso   1.00
C132   C     0.81198   0.17949   0.48820   0.00000  Uiso   1.00
C133   C     0.82592   0.19327   0.43606   0.00000  Uiso   1.00
C134   C     0.86001   0.18739   0.01577   0.00000  Uiso   1.00
C135   C     0.91396   0.22631   0.49965   0.00000  Uiso   1.00
C136   C     0.92414   0.24834   0.45160   0.00000  Uiso   1.00
C137   C     0.88085   0.23214   0.41970   0.00000  Uiso   1.00
C138   C     0.85093   0.16378   0.06319   0.00000  Uiso   1.00
C139   C     0.93735   0.22889   0.08492   0.00000  Uiso   1.00
C140   C     0.78088   0.17268   0.40513   0.00000  Uiso   1.00
C141   C     0.85617   0.32283   0.25337   0.00000  Uiso   1.00
C142   C     0.80019   0.16709   0.34760   0.00000  Uiso   1.00
C143   C     0.80997   0.01044   0.24738   0.00000  Uiso   1.00
C144   C     0.81813   0.06668   0.24847   0.00000  Uiso   1.00
C145   C     0.86709   0.17171   0.15305   0.00000  Uiso   1.00
C146   C     0.95180   0.24781   0.03500   0.00000  Uiso   1.00
C147   C     0.88827   0.18556   0.09867   0.00000  Uiso   1.00
C148   C     0.71842   0.15401   0.43045   0.00000  Uiso   1.00
C149   C     0.70315   0.15655   0.48509   0.00000  Uiso   1.00
C150   C     0.74934   0.17051   0.01425   0.00000  Uiso   1.00
Cu151  Cu    0.77377   0.16105   0.24436   0.00000  Uiso   1.00
Cu152  Cu    0.89290   0.17228   0.25565   0.00000  Uiso   1.00
H153   H     0.96188   0.25006   0.11381   0.00000  Uiso   1.00
H154   H     0.76579   0.31954   0.24130   0.00000  Uiso   1.00
H155   H     0.96377   0.28049   0.44026   0.00000  Uiso   1.00
H156   H     0.98938   0.28186   0.02524   0.00000  Uiso   1.00
H157   H     0.81114   0.13180   0.07465   0.00000  Uiso   1.00
H158   H     0.98860   0.14956   0.00516   0.00000  Uiso   1.00
H159   H     0.90007   0.01371   0.25989   0.00000  Uiso   1.00
N160   N     0.98241   0.18074   0.26416   0.00000  Uiso   1.00
N161   N     0.68426   0.15259   0.23584   0.00000  Uiso   1.00
O162   O     0.79464   0.23807   0.24633   0.00000  Uiso   1.00
O163   O     0.89524   0.24755   0.25587   0.00000  Uiso   1.00
O164   O     0.75848   0.15960   0.31840   0.00000  Uiso   1.00
O165   O     0.85908   0.16908   0.32793   0.00000  Uiso   1.00
O166   O     0.77142   0.08578   0.24414   0.00000  Uiso   1.00
O167   O     0.87203   0.09526   0.25367   0.00000  Uiso   1.00
O168   O     0.80758   0.16425   0.17207   0.00000  Uiso   1.00
O169   O     0.90819   0.17373   0.18161   0.00000  Uiso   1.00
Cl170  Cl    0.67518   0.22135   0.31371   0.00000  Uiso   1.00
O171   O     0.99602   0.13000   0.19355   0.00000  Uiso   1.00
C172   C     0.67942   0.08115   0.18157   0.00000  Uiso   1.00
H173   H     0.66718   0.05713   0.21644   0.00000  Uiso   1.00
H174   H     0.72937   0.08653   0.16438   0.00000  Uiso   1.00
C175   C     0.97766   0.05089   0.14117   0.00000  Uiso   1.00
H176   H     0.98960   0.07357   0.10549   0.00000  Uiso   1.00
H177   H     0.99043   0.01217   0.13116   0.00000  Uiso   1.00
H178   H     0.92696   0.04420   0.15643   0.00000  Uiso   1.00
O179   O     0.67203   0.14351   0.40206   0.00000  Uiso   1.00
C180   C     0.96837   0.09220   0.41035   0.00000  Uiso   1.00
H181   H     0.94554   0.08680   0.45175   0.00000  Uiso   1.00
H182   H     0.99656   0.06206   0.39691   0.00000  Uiso   1.00
C183   C     0.91742   0.08366   0.37952   0.00000  Uiso   1.00
H184   H     0.93760   0.08408   0.33732   0.00000  Uiso   1.00
H185   H     0.88431   0.04556   0.38859   0.00000  Uiso   1.00
H186   H     0.89151   0.11538   0.39036   0.00000  Uiso   1.00
O187   O     0.73277   0.18196   0.06725   0.00000  Uiso   1.00
C188   C     0.75230   0.23727   0.07782   0.00000  Uiso   1.00
H189   H     0.72855   0.25963   0.05863   0.00000  Uiso   1.00
H190   H     0.80238   0.25318   0.06361   0.00000  Uiso   1.00
C191   C     0.73951   0.25042   0.13594   0.00000  Uiso   1.00
H192   H     0.77766   0.24431   0.15276   0.00000  Uiso   1.00
H193   H     0.73725   0.29258   0.14331   0.00000  Uiso   1.00
H194   H     0.69535   0.22549   0.15553   0.00000  Uiso   1.00
Cl195  Cl    0.88768   0.27445   0.36993   0.00000  Uiso   1.00
C196   C     0.18179   0.59997   0.25160   0.00000  Uiso   1.00
C197   C     0.14531   0.51283   0.48820   0.00000  Uiso   1.00
C198   C     0.15925   0.52660   0.43606   0.00000  Uiso   1.00
C199   C     0.19334   0.52072   0.01577   0.00000  Uiso   1.00
C200   C     0.24729   0.55965   0.49965   0.00000  Uiso   1.00
C201   C     0.25748   0.58167   0.45160   0.00000  Uiso   1.00
C202   C     0.21418   0.56547   0.41970   0.00000  Uiso   1.00
C203   C     0.18426   0.49711   0.06319   0.00000  Uiso   1.00
C204   C     0.27069   0.56222   0.08492   0.00000  Uiso   1.00
C205   C     0.11422   0.50601   0.40513   0.00000  Uiso   1.00
C206   C     0.18950   0.65616   0.25337   0.00000  Uiso   1.00
C207   C     0.13352   0.50043   0.34760   0.00000  Uiso   1.00
C208   C     0.14330   0.34378   0.24738   0.00000  Uiso   1.00
C209   C     0.15146   0.40002   0.24847   0.00000  Uiso   1.00
C210   C     0.20042   0.50504   0.15305   0.00000  Uiso   1.00
C211   C     0.28513   0.58114   0.03500   0.00000  Uiso   1.00
C212   C     0.22160   0.51889   0.09867   0.00000  Uiso   1.00
C213   C     0.05176   0.48734   0.43045   0.00000  Uiso   1.00
C214   C     0.03648   0.48988   0.48509   0.00000  Uiso   1.00
C215   C     0.08267   0.50385   0.01425   0.00000  Uiso   1.00
Cu216  Cu    0.10710   0.49439   0.24436   0.00000  Uiso   1.00
Cu217  Cu    0.22623   0.50561   0.25565   0.00000  Uiso   1.00
H218   H     0.29522   0.58339   0.11381   0.00000  Uiso   1.00
H219   H     0.09912   0.65288   0.24130   0.00000  Uiso   1.00
H220   H     0.29710   0.61382   0.44026   0.00000  Uiso   1.00
H221   H     0.32271   0.61519   0.02524   0.00000  Uiso   1.00
H222   H     0.14448   0.46513   0.07465   0.00000  Uiso   1.00
H223   H     0.32193   0.48289   0.00516   0.00000  Uiso   1.00
H224   H     0.23341   0.34705   0.25989   0.00000  Uiso   1.00
N225   N     0.31574   0.51407   0.26416   0.00000  Uiso   1.00
N226   N     0.01759   0.48593   0.23584   0.00000  Uiso   1.00
O227   O     0.12797   0.57141   0.24633   0.00000  Uiso   1.00
O228   O     0.22858   0.58089   0.25587   0.00000  Uiso   1.00
O229   O     0.09181   0.49293   0.31840   0.00000  Uiso   1.00
O230   O     0.19242   0.50241   0.32793   0.00000  Uiso   1.00
O231   O     0.10476   0.41911   0.24414   0.00000  Uiso   1.00
O232   O     0.20536   0.42859   0.25367   0.00000  Uiso   1.00
O233   O     0.14092   0.49759   0.17207   0.00000  Uiso   1.00
O234   O     0.24152   0.50707   0.18161   0.00000  Uiso   1.00
Cl235  Cl    0.00851   0.55468   0.31371   0.00000  Uiso   1.00
O236   O     0.32935   0.46333   0.19355   0.00000  Uiso   1.00
C237   C     0.01275   0.41448   0.18157   0.00000  Uiso   1.00
H238   H     0.00052   0.39047   0.21644   0.00000  Uiso   1.00
H239   H     0.06270   0.41986   0.16438   0.00000  Uiso   1.00
C240   C     0.31099   0.38422   0.14117   0.00000  Uiso   1.00
H241   H     0.32293   0.40690   0.10549   0.00000  Uiso   1.00
H242   H     0.32376   0.34550   0.13116   0.00000  Uiso   1.00
H243   H     0.26029   0.37753   0.15643   0.00000  Uiso   1.00
O244   O     0.00537   0.47685   0.40206   0.00000  Uiso   1.00
C245   C     0.30170   0.42553   0.41035   0.00000  Uiso   1.00
H246   H     0.27888   0.42013   0.45175   0.00000  Uiso   1.00
H247   H     0.32989   0.39540   0.39691   0.00000  Uiso   1.00
C248   C     0.25075   0.41699   0.37952   0.00000  Uiso   1.00
H249   H     0.27093   0.41741   0.33732   0.00000  Uiso   1.00
H250   H     0.21765   0.37889   0.38859   0.00000  Uiso   1.00
H251   H     0.22485   0.44871   0.39036   0.00000  Uiso   1.00
O252   O     0.06611   0.51529   0.06725   0.00000  Uiso   1.00
C253   C     0.08563   0.57061   0.07782   0.00000  Uiso   1.00
H254   H     0.06188   0.59296   0.05863   0.00000  Uiso   1.00
H255   H     0.13572   0.58651   0.06361   0.00000  Uiso   1.00
C256   C     0.07285   0.58376   0.13594   0.00000  Uiso   1.00
H257   H     0.11100   0.57764   0.15276   0.00000  Uiso   1.00
H258   H     0.07059   0.62591   0.14331   0.00000  Uiso   1.00
H259   H     0.02868   0.55883   0.15553   0.00000  Uiso   1.00
Cl260  Cl    0.22101   0.60778   0.36993   0.00000  Uiso   1.00
C261   C     0.51512   0.59997   0.25160   0.00000  Uiso   1.00
C262   C     0.47865   0.51283   0.48820   0.00000  Uiso   1.00
C263   C     0.49258   0.52660   0.43606   0.00000  Uiso   1.00
C264   C     0.52668   0.52072   0.01577   0.00000  Uiso   1.00
C265   C     0.58062   0.55965   0.49965   0.00000  Uiso   1.00
C266   C     0.59081   0.58167   0.45160   0.00000  Uiso   1.00
C267   C     0.54752   0.56547   0.41970   0.00000  Uiso   1.00
C268   C     0.51759   0.49711   0.06319   0.00000  Uiso   1.00
C269   C     0.60402   0.56222   0.08492   0.00000  Uiso   1.00
C270   C     0.44755   0.50601   0.40513   0.00000  Uiso   1.00
C271   C     0.52283   0.65616   0.25337   0.00000  Uiso   1.00
C272   C     0.46686   0.50043   0.34760   0.00000  Uiso   1.00
C273   C     0.47664   0.34378   0.24738   0.00000  Uiso   1.00
C274   C     0.48479   0.40002   0.24847   0.00000  Uiso   1.00
C275   C     0.53375   0.50504   0.15305   0.00000  Uiso   1.00
C276   C     0.61846   0.58114   0.03500   0.00000  Uiso   1.00
C277   C     0.55493   0.51889   0.09867   0.00000  Uiso   1.00
C278   C     0.38509   0.48734   0.43045   0.00000  Uiso   1.00
C279   C     0.36982   0.48988   0.48509   0.00000  Uiso   1.00
C280   C     0.41601   0.50385   0.01425   0.00000  Uiso   1.00
Cu281  Cu    0.44043   0.49439   0.24436   0.00000  Uiso   1.00
Cu282  Cu    0.55957   0.50561   0.25565   0.00000  Uiso   1.00
H283   H     0.62855   0.58339   0.11381   0.00000  Uiso   1.00
H284   H     0.43245   0.65288   0.24130   0.00000  Uiso   1.00
H285   H     0.63044   0.61382   0.44026   0.00000  Uiso   1.00
H286   H     0.65604   0.61519   0.02524   0.00000  Uiso   1.00
H287   H     0.47781   0.46513   0.07465   0.00000  Uiso   1.00
H288   H     0.65526   0.48289   0.00516   0.00000  Uiso   1.00
H289   H     0.56674   0.34705   0.25989   0.00000  Uiso   1.00
N290   N     0.64908   0.51407   0.26416   0.00000  Uiso   1.00
N291   N     0.35092   0.48593   0.23584   0.00000  Uiso   1.00
O292   O     0.46131   0.57141   0.24633   0.00000  Uiso   1.00
O293   O     0.56191   0.58089   0.25587   0.00000  Uiso   1.00
O294   O     0.42515   0.49293   0.31840   0.00000  Uiso   1.00
O295   O     0.52575   0.50241   0.32793   0.00000  Uiso   1.00
O296   O     0.43809   0.41911   0.24414   0.00000  Uiso   1.00
O297   O     0.53869   0.42859   0.25367   0.00000  Uiso   1.00
O298   O     0.47425   0.49759   0.17207   0.00000  Uiso   1.00
O299   O     0.57485   0.50707   0.18161   0.00000  Uiso   1.00
Cl300  Cl    0.34184   0.55468   0.31371   0.00000  Uiso   1.00
O301   O     0.66269   0.46333   0.19355   0.00000  Uiso   1.00
C302   C     0.34609   0.41448   0.18157   0.00000  Uiso   1.00
H303   H     0.33385   0.39047   0.21644   0.00000  Uiso   1.00
H304   H     0.39603   0.41986   0.16438   0.00000  Uiso   1.00
C305   C     0.64432   0.38422   0.14117   0.00000  Uiso   1.00
H306   H     0.65626   0.40690   0.10549   0.00000  Uiso   1.00
H307   H     0.65710   0.34550   0.13116   0.00000  Uiso   1.00
H308   H     0.59363   0.37753   0.15643   0.00000  Uiso   1.00
O309   O     0.33870   0.47685   0.40206   0.00000  Uiso   1.00
C310   C     0.63504   0.42553   0.41035   0.00000  Uiso   1.00
H311   H     0.61221   0.42013   0.45175   0.00000  Uiso   1.00
H312   H     0.66322   0.39540   0.39691   0.00000  Uiso   1.00
C313   C     0.58408   0.41699   0.37952   0.00000  Uiso   1.00
H314   H     0.60426   0.41741   0.33732   0.00000  Uiso   1.00
H315   H     0.55098   0.37889   0.38859   0.00000  Uiso   1.00
H316   H     0.55818   0.44871   0.39036   0.00000  Uiso   1.00
O317   O     0.39944   0.51529   0.06725   0.00000  Uiso   1.00
C318   C     0.41896   0.57061   0.07782   0.00000  Uiso   1.00
H319   H     0.39521   0.59296   0.05863   0.00000  Uiso   1.00
H320   H     0.46905   0.58651   0.06361   0.00000  Uiso   1.00
C321   C     0.40618   0.58376   0.13594   0.00000  Uiso   1.00
H322   H     0.44433   0.57764   0.15276   0.00000  Uiso   1.00
H323   H     0.40392   0.62591   0.14331   0.00000  Uiso   1.00
H324   H     0.36202   0.55883   0.15553   0.00000  Uiso   1.00
Cl325  Cl    0.55435   0.60778   0.36993   0.00000  Uiso   1.00
C326   C     0.84846   0.59997   0.25160   0.00000  Uiso   1.00
C327   C     0.81198   0.51283   0.48820   0.00000  Uiso   1.00
C328   C     0.82592   0.52660   0.43606   0.00000  Uiso   1.00
C329   C     0.86001   0.52072   0.01577   0.00000  Uiso   1.00
C330   C     0.91396   0.55965   0.49965   0.00000  Uiso   1.00
C331   C     0.92414   0.58167   0.45160   0.00000  Uiso   1.00
C332   C     0.88085   0.56547   0.41970   0.00000  Uiso   1.00
C333   C     0.85093   0.49711   0.06319   0.00000  Uiso   1.00
C334   C     0.93735   0.56222   0.08492   0.00000  Uiso   1.00
C335   C     0.78088   0.50601   0.40513   0.00000  Uiso   1.00
C336   C     0.85617   0.65616   0.25337   0.00000  Uiso   1.00
C337   C     0.80019   0.50043   0.34760   0.00000  Uiso   1.00
C338   C     0.80997   0.34378   0.24738   0.00000  Uiso   1.00
C339   C     0.81813   0.40002   0.24847   0.00000  Uiso   1.00
C340   C     0.86709   0.50504   0.15305   0.00000  Uiso   1.00
C341   C     0.95180   0.58114   0.03500   0.00000  Uiso   1.00
C342   C     0.88827   0.51889   0.09867   0.00000  Uiso   1.00
C343   C     0.71842   0.48734   0.43045   0.00000  Uiso   1.00
C344   C     0.70315   0.48988   0.48509   0.00000  Uiso   1.00
C345   C     0.74934   0.50385   0.01425   0.00000  Uiso   1.00
Cu346  Cu    0.77377   0.49439   0.24436   0.00000  Uiso   1.00
Cu347  Cu    0.89290   0.50561   0.25565   0.00000  Uiso   1.00
H348   H     0.96188   0.58339   0.11381   0.00000  Uiso   1.00
H349   H     0.76579   0.65288   0.24130   0.00000  Uiso   1.00
H350   H     0.96377   0.61382   0.44026   0.00000  Uiso   1.00
H351   H     0.98938   0.61519   0.02524   0.00000  Uiso   1.00
H352   H     0.81114   0.46513   0.07465   0.00000  Uiso   1.00
H353   H     0.98860   0.48289   0.00516   0.00000  Uiso   1.00
H354   H     0.90007   0.34705   0.25989   0.00000  Uiso   1.00
N355   N     0.98241   0.51407   0.26416   0.00000  Uiso   1.00
N356   N     0.68426   0.48593   0.23584   0.00000  Uiso   1.00
O357   O     0.79464   0.57141   0.24633   0.00000  Uiso   1.00
O358   O     0.89524   0.58089   0.25587   0.00000  Uiso   1.00
O359   O     0.75848   0.49293   0.31840   0.00000  Uiso   1.00
O360   O     0.85908   0.50241   0.32793   0.00000  Uiso   1.00
O361   O     0.77142   0.41911   0.24414   0.00000  Uiso   1.00
O362   O     0.87203   0.42859   0.25367   0.00000  Uiso   1.00
O363   O     0.80758   0.49759   0.17207   0.00000  Uiso   1.00
O364   O     0.90819   0.50707   0.18161   0.00000  Uiso   1.00
Cl365  Cl    0.67518   0.55468   0.31371   0.00000  Uiso   1.00
O366   O     0.99602   0.46333   0.19355   0.00000  Uiso   1.00
C367   C     0.67942   0.41448   0.18157   0.00000  Uiso   1.00
H368   H     0.66718   0.39047   0.21644   0.00000  Uiso   1.00
H369   H     0.72937   0.41986   0.16438   0.00000  Uiso   1.00
C370   C     0.97766   0.38422   0.14117   0.00000  Uiso   1.00
H371   H     0.98960   0.40690   0.10549   0.00000  Uiso   1.00
H372   H     0.99043   0.34550   0.13116   0.00000  Uiso   1.00
H373   H     0.92696   0.37753   0.15643   0.00000  Uiso   1.00
O374   O     0.67203   0.47685   0.40206   0.00000  Uiso   1.00
C375   C     0.96837   0.42553   0.41035   0.00000  Uiso   1.00
H376   H     0.94554   0.42013   0.45175   0.00000  Uiso   1.00
H377   H     0.99656   0.39540   0.39691   0.00000  Uiso   1.00
C378   C     0.91742   0.41699   0.37952   0.00000  Uiso   1.00
H379   H     0.93760   0.41741   0.33732   0.00000  Uiso   1.00
H380   H     0.88431   0.37889   0.38859   0.00000  Uiso   1.00
H381   H     0.89151   0.44871   0.39036   0.00000  Uiso   1.00
O382   O     0.73277   0.51529   0.06725   0.00000  Uiso   1.00
C383   C     0.75230   0.57061   0.07782   0.00000  Uiso   1.00
H384   H     0.72855   0.59296   0.05863   0.00000  Uiso   1.00
H385   H     0.80238   0.58651   0.06361   0.00000  Uiso   1.00
C386   C     0.73951   0.58376   0.13594   0.00000  Uiso   1.00
H387   H     0.77766   0.57764   0.15276   0.00000  Uiso   1.00
H388   H     0.73725   0.62591   0.14331   0.00000  Uiso   1.00
H389   H     0.69535   0.55883   0.15553   0.00000  Uiso   1.00
Cl390  Cl    0.88768   0.60778   0.36993   0.00000  Uiso   1.00
C391   C     0.18179   0.93331   0.25160   0.00000  Uiso   1.00
C392   C     0.14531   0.84616   0.48820   0.00000  Uiso   1.00
C393   C     0.15925   0.85993   0.43606   0.00000  Uiso   1.00
C394   C     0.19334   0.85405   0.01577   0.00000  Uiso   1.00
C395   C     0.24729   0.89298   0.49965   0.00000  Uiso   1.00
C396   C     0.25748   0.91500   0.45160   0.00000  Uiso   1.00
C397   C     0.21418   0.89881   0.41970   0.00000  Uiso   1.00
C398   C     0.18426   0.83045   0.06319   0.00000  Uiso   1.00
C399   C     0.27069   0.89555   0.08492   0.00000  Uiso   1.00
C400   C     0.11422   0.83935   0.40513   0.00000  Uiso   1.00
C401   C     0.18950   0.98949   0.25337   0.00000  Uiso   1.00
C402   C     0.13352   0.83376   0.34760   0.00000  Uiso   1.00
C403   C     0.14330   0.67711   0.24738   0.00000  Uiso   1.00
C404   C     0.15146   0.73335   0.24847   0.00000  Uiso   1.00
C405   C     0.20042   0.83838   0.15305   0.00000  Uiso   1.00
C406   C     0.28513   0.91448   0.03500   0.00000  Uiso   1.00
C407   C     0.22160   0.85223   0.09867   0.00000  Uiso   1.00
C408   C     0.05176   0.82067   0.43045   0.00000  Uiso   1.00
C409   C     0.03648   0.82321   0.48509   0.00000  Uiso   1.00
C410   C     0.08267   0.83718   0.01425   0.00000  Uiso   1.00
Cu411  Cu    0.10710   0.82772   0.24436   0.00000  Uiso   1.00
Cu412  Cu    0.22623   0.83895   0.25565   0.00000  Uiso   1.00
H413   H     0.29522   0.91672   0.11381   0.00000  Uiso   1.00
H414   H     0.09912   0.98621   0.24130   0.00000  Uiso   1.00
H415   H     0.29710   0.94715   0.44026   0.00000  Uiso   1.00
H416   H     0.32271   0.94852   0.02524   0.00000  Uiso   1.00
H417   H     0.14448   0.79847   0.07465   0.00000  Uiso   1.00
H418   H     0.32193   0.81623   0.00516   0.00000  Uiso   1.00
H419   H     0.23341   0.68038   0.25989   0.00000  Uiso   1.00
N420   N     0.31574   0.84741   0.26416   0.00000  Uiso   1.00
N421   N     0.01759   0.81926   0.23584   0.00000  Uiso   1.00
O422   O     0.12797   0.90474   0.24633   0.00000  Uiso   1.00
O423   O     0.22858   0.91422   0.25587   0.00000  Uiso   1.00
O424   O     0.09181   0.82627   0.31840   0.00000  Uiso   1.00
O425   O     0.19242   0.83575   0.32793   0.00000  Uiso   1.00
O426   O     0.10476   0.75245   0.24414   0.00000  Uiso   1.00
O427   O     0.20536   0.76193   0.25367   0.00000  Uiso   1.00
O428   O     0.14092   0.83092   0.17207   0.00000  Uiso   1.00
O429   O     0.24152   0.84040   0.18161   0.00000  Uiso   1.00
Cl430  Cl    0.00851   0.88802   0.31371   0.00000  Uiso   1.00
O431   O     0.32935   0.79667   0.19355   0.00000  Uiso   1.00
C432   C     0.01275   0.74782   0.18157   0.00000  Uiso   1.00
H433   H     0.00052   0.72380   0.21644   0.00000  Uiso   1.00
H434   H     0.06270   0.75319   0.16438   0.00000  Uiso   1.00
C435   C     0.31099   0.71755   0.14117   0.00000  Uiso   1.00
H436   H     0.32293   0.74024   0.10549   0.00000  Uiso   1.00
H437   H     0.32376   0.67884   0.13116   0.00000  Uiso   1.00
H438   H     0.26029   0.71086   0.15643   0.00000  Uiso   1.00
O439   O     0.00537   0.81018   0.40206   0.00000  Uiso   1.00
C440   C     0.30170   0.75887   0.41035   0.00000  Uiso   1.00
H441   H     0.27888   0.75347   0.45175   0.00000  Uiso   1.00
H442   H     0.32989   0.72873   0.39691   0.00000  Uiso   1.00
C443   C     0.25075   0.75032   0.37952   0.00000  Uiso   1.00
H444   H     0.27093   0.75074   0.33732   0.00000  Uiso   1.00
H445   H     0.21765   0.71223   0.38859   0.00000  Uiso   1.00
H446   H     0.22485   0.78204   0.39036   0.00000  Uiso   1.00
O447   O     0.06611   0.84862   0.06725   0.00000  Uiso   1.00
C448   C     0.08563   0.90394   0.07782   0.00000  Uiso   1.00
H449   H     0.06188   0.92630   0.05863   0.00000  Uiso   1.00
H450   H     0.13572   0.91984   0.06361   0.00000  Uiso   1.00
C451   C     0.07285   0.91709   0.13594   0.00000  Uiso   1.00
H452   H     0.11100   0.91098   0.15276   0.00000  Uiso   1.00
H453   H     0.07059   0.95924   0.14331   0.00000  Uiso   1.00
H454   H     0.02868   0.89216   0.15553   0.00000  Uiso   1.00
Cl455  Cl    0.22101   0.94112   0.36993   0.00000  Uiso   1.00
C456   C     0.51512   0.93331   0.25160   0.00000  Uiso   1.00
C457   C     0.47865   0.84616   0.48820   0.00000  Uiso   1.00
C458   C     0.49258   0.85993   0.43606   0.00000  Uiso   1.00
C459   C     0.52668   0.85405   0.01577   0.00000  Uiso   1.00
C460   C     0.58062   0.89298   0.49965   0.00000  Uiso   1.00
C461   C     0.59081   0.91500   0.45160   0.00000  Uiso   1.00
C462   C     0.54752   0.89881   0.41970   0.00000  Uiso   1.00
C463   C     0.51759   0.83045   0.06319   0.00000  Uiso   1.00
C464   C     0.60402   0.89555   0.08492   0.00000  Uiso   1.00
C465   C     0.44755   0.83935   0.40513   0.00000  Uiso   1.00
C466   C     0.52283   0.98949   0.25337   0.00000  Uiso   1.00
C467   C     0.46686   0.83376   0.34760   0.00000  Uiso   1.00
C468   C     0.47664   0.67711   0.24738   0.00000  Uiso   1.00
C469   C     0.48479   0.73335   0.24847   0.00000  Uiso   1.00
C470   C     0.53375   0.83838   0.15305   0.00000  Uiso   1.00
C471   C     0.61846   0.91448   0.03500   0.00000  Uiso   1.00
C472   C     0.55493   0.85223   0.09867   0.00000  Uiso   1.00
C473   C     0.38509   0.82067   0.43045   0.00000  Uiso   1.00
C474   C     0.36982   0.82321   0.48509   0.00000  Uiso   1.00
C475   C     0.41601   0.83718   0.01425   0.00000  Uiso   1.00
Cu476  Cu    0.44043   0.82772   0.24436   0.00000  Uiso   1.00
Cu477  Cu    0.55957   0.83895   0.25565   0.00000  Uiso   1.00
H478   H     0.62855   0.91672   0.11381   0.00000  Uiso   1.00
H479   H     0.43245   0.98621   0.24130   0.00000  Uiso   1.00
H480   H     0.63044   0.94715   0.44026   0.00000  Uiso   1.00
H481   H     0.65604   0.94852   0.02524   0.00000  Uiso   1.00
H482   H     0.47781   0.79847   0.07465   0.00000  Uiso   1.00
H483   H     0.65526   0.81623   0.00516   0.00000  Uiso   1.00
H484   H     0.56674   0.68038   0.25989   0.00000  Uiso   1.00
N485   N     0.64908   0.84741   0.26416   0.00000  Uiso   1.00
N486   N     0.35092   0.81926   0.23584   0.00000  Uiso   1.00
O487   O     0.46131   0.90474   0.24633   0.00000  Uiso   1.00
O488   O     0.56191   0.91422   0.25587   0.00000  Uiso   1.00
O489   O     0.42515   0.82627   0.31840   0.00000  Uiso   1.00
O490   O     0.52575   0.83575   0.32793   0.00000  Uiso   1.00
O491   O     0.43809   0.75245   0.24414   0.00000  Uiso   1.00
O492   O     0.53869   0.76193   0.25367   0.00000  Uiso   1.00
O493   O     0.47425   0.83092   0.17207   0.00000  Uiso   1.00
O494   O     0.57485   0.84040   0.18161   0.00000  Uiso   1.00
Cl495  Cl    0.34184   0.88802   0.31371   0.00000  Uiso   1.00
O496   O     0.66269   0.79667   0.19355   0.00000  Uiso   1.00
C497   C     0.34609   0.74782   0.18157   0.00000  Uiso   1.00
H498   H     0.33385   0.72380   0.21644   0.00000  Uiso   1.00
H499   H     0.39603   0.75319   0.16438   0.00000  Uiso   1.00
C500   C     0.64432   0.71755   0.14117   0.00000  Uiso   1.00
H501   H     0.65626   0.74024   0.10549   0.00000  Uiso   1.00
H502   H     0.65710   0.67884   0.13116   0.00000  Uiso   1.00
H503   H     0.59363   0.71086   0.15643   0.00000  Uiso   1.00
O504   O     0.33870   0.81018   0.40206   0.00000  Uiso   1.00
C505   C     0.63504   0.75887   0.41035   0.00000  Uiso   1.00
H506   H     0.61221   0.75347   0.45175   0.00000  Uiso   1.00
H507   H     0.66322   0.72873   0.39691   0.00000  Uiso   1.00
C508   C     0.58408   0.75032   0.37952   0.00000  Uiso   1.00
H509   H     0.60426   0.75074   0.33732   0.00000  Uiso   1.00
H510   H     0.55098   0.71223   0.38859   0.00000  Uiso   1.00
H511   H     0.55818   0.78204   0.39036   0.00000  Uiso   1.00
O512   O     0.39944   0.84862   0.06725   0.00000  Uiso   1.00
C513   C     0.41896   0.90394   0.07782   0.00000  Uiso   1.00
H514   H     0.39521   0.92630   0.05863   0.00000  Uiso   1.00
H515   H     0.46905   0.91984   0.06361   0.00000  Uiso   1.00
C516   C     0.40618   0.91709   0.13594   0.00000  Uiso   1.00
H517   H     0.44433   0.91098   0.15276   0.00000  Uiso   1.00
H518   H     0.40392   0.95924   0.14331   0.00000  Uiso   1.00
H519   H     0.36202   0.89216   0.15553   0.00000  Uiso   1.00
Cl520  Cl    0.55435   0.94112   0.36993   0.00000  Uiso   1.00
C521   C     0.84846   0.93331   0.25160   0.00000  Uiso   1.00
C522   C     0.81198   0.84616   0.48820   0.00000  Uiso   1.00
C523   C     0.82592   0.85993   0.43606   0.00000  Uiso   1.00
C524   C     0.86001   0.85405   0.01577   0.00000  Uiso   1.00
C525   C     0.91396   0.89298   0.49965   0.00000  Uiso   1.00
C526   C     0.92414   0.91500   0.45160   0.00000  Uiso   1.00
C527   C     0.88085   0.89881   0.41970   0.00000  Uiso   1.00
C528   C     0.85093   0.83045   0.06319   0.00000  Uiso   1.00
C529   C     0.93735   0.89555   0.08492   0.00000  Uiso   1.00
C530   C     0.78088   0.83935   0.40513   0.00000  Uiso   1.00
C531   C     0.85617   0.98949   0.25337   0.00000  Uiso   1.00
C532   C     0.80019   0.83376   0.34760   0.00000  Uiso   1.00
C533   C     0.80997   0.67711   0.24738   0.00000  Uiso   1.00
C534   C     0.81813   0.73335   0.24847   0.00000  Uiso   1.00
C535   C     0.86709   0.83838   0.15305   0.00000  Uiso   1.00
C536   C     0.95180   0.91448   0.03500   0.00000  Uiso   1.00
C537   C     0.88827   0.85223   0.09867   0.00000  Uiso   1.00
C538   C     0.71842   0.82067   0.43045   0.00000  Uiso   1.00
C539   C     0.70315   0.82321   0.48509   0.00000  Uiso   1.00
C540   C     0.74934   0.83718   0.01425   0.00000  Uiso   1.00
Cu541  Cu    0.77377   0.82772   0.24436   0.00000  Uiso   1.00
Cu542  Cu    0.89290   0.83895   0.25565   0.00000  Uiso   1.00
H543   H     0.96188   0.91672   0.11381   0.00000  Uiso   1.00
H544   H     0.76579   0.98621   0.24130   0.00000  Uiso   1.00
H545   H     0.96377   0.94715   0.44026   0.00000  Uiso   1.00
H546   H     0.98938   0.94852   0.02524   0.00000  Uiso   1.00
H547   H     0.81114   0.79847   0.07465   0.00000  Uiso   1.00
H548   H     0.98860   0.81623   0.00516   0.00000  Uiso   1.00
H549   H     0.90007   0.68038   0.25989   0.00000  Uiso   1.00
N550   N     0.98241   0.84741   0.26416   0.00000  Uiso   1.00
N551   N     0.68426   0.81926   0.23584   0.00000  Uiso   1.00
O552   O     0.79464   0.90474   0.24633   0.00000  Uiso   1.00
O553   O     0.89524   0.91422   0.25587   0.00000  Uiso   1.00
O554   O     0.75848   0.82627   0.31840   0.00000  Uiso   1.00
O555   O     0.85908   0.83575   0.32793   0.00000  Uiso   1.00
O556   O     0.77142   0.75245   0.24414   0.00000  Uiso   1.00
O557   O     0.87203   0.76193   0.25367   0.00000  Uiso   1.00
O558   O     0.80758   0.83092   0.17207   0.00000  Uiso   1.00
O559   O     0.90819   0.84040   0.18161   0.00000  Uiso   1.00
Cl560  Cl    0.67518   0.88802   0.31371   0.00000  Uiso   1.00
O561   O     0.99602   0.79667   0.19355   0.00000  Uiso   1.00
C562   C     0.67942   0.74782   0.18157   0.00000  Uiso   1.00
H563   H     0.66718   0.72380   0.21644   0.00000  Uiso   1.00
H564   H     0.72937   0.75319   0.16438   0.00000  Uiso   1.00
C565   C     0.97766   0.71755   0.14117   0.00000  Uiso   1.00
H566   H     0.98960   0.74024   0.10549   0.00000  Uiso   1.00
H567   H     0.99043   0.67884   0.13116   0.00000  Uiso   1.00
H568   H     0.92696   0.71086   0.15643   0.00000  Uiso   1.00
O569   O     0.67203   0.81018   0.40206   0.00000  Uiso   1.00
C570   C     0.96837   0.75887   0.41035   0.00000  Uiso   1.00
H571   H     0.94554   0.75347   0.45175   0.00000  Uiso   1.00
H572   H     0.99656   0.72873   0.39691   0.00000  Uiso   1.00
C573   C     0.91742   0.75032   0.37952   0.00000  Uiso   1.00
H574   H     0.93760   0.75074   0.33732   0.00000  Uiso   1.00
H575   H     0.88431   0.71223   0.38859   0.00000  Uiso   1.00
H576   H     0.89151   0.78204   0.39036   0.00000  Uiso   1.00
O577   O     0.73277   0.84862   0.06725   0.00000  Uiso   1.00
C578   C     0.75230   0.90394   0.07782   0.00000  Uiso   1.00
H579   H     0.72855   0.92630   0.05863   0.00000  Uiso   1.00
H580   H     0.80238   0.91984   0.06361   0.00000  Uiso   1.00
C581   C     0.73951   0.91709   0.13594   0.00000  Uiso   1.00
H582   H     0.77766   0.91098   0.15276   0.00000  Uiso   1.00
H583   H     0.73725   0.95924   0.14331   0.00000  Uiso   1.00
H584   H     0.69535   0.89216   0.15553   0.00000  Uiso   1.00
Cl585  Cl    0.88768   0.94112   0.36993   0.00000  Uiso   1.00
C586   C     0.18179   0.26664   0.75160   0.00000  Uiso   1.00
C587   C     0.14531   0.17949   0.98820   0.00000  Uiso   1.00
C588   C     0.15925   0.19327   0.93606   0.00000  Uiso   1.00
C589   C     0.19334   0.18739   0.51577   0.00000  Uiso   1.00
C590   C     0.24729   0.22631   0.99965   0.00000  Uiso   1.00
C591   C     0.25748   0.24834   0.95160   0.00000  Uiso   1.00
C592   C     0.21418   0.23214   0.91970   0.00000  Uiso   1.00
C593   C     0.18426   0.16378   0.56319   0.00000  Uiso   1.00
C594   C     0.27069   0.22889   0.58492   0.00000  Uiso   1.00
C595   C     0.11422   0.17268   0.90513   0.00000  Uiso   1.00
C596   C     0.18950   0.32283   0.75337   0.00000  Uiso   1.00
C597   C     0.13352   0.16709   0.84760   0.00000  Uiso   1.00
C598   C     0.14330   0.01044   0.74738   0.00000  Uiso   1.00
C599   C     0.15146   0.06668   0.74847   0.00000  Uiso   1.00
C600   C     0.20042   0.17171   0.65305   0.00000  Uiso   1.00
C601   C     0.28513   0.24781   0.53500   0.00000  Uiso   1.00
C602   C     0.22160   0.18556   0.59867   0.00000  Uiso   1.00
C603   C     0.05176   0.15401   0.93045   0.00000  Uiso   1.00
C604   C     0.03648   0.15655   0.98509   0.00000  Uiso   1.00
C605   C     0.08267   0.17051   0.51425   0.00000  Uiso   1.00
Cu606  Cu    0.10710   0.16105   0.74436   0.00000  Uiso   1.00
Cu607  Cu    0.22623   0.17228   0.75565   0.00000  Uiso   1.00
H608   H     0.29522   0.25006   0.61381   0.00000  Uiso   1.00
H609   H     0.09912   0.31954   0.74130   0.00000  Uiso   1.00
H610   H     0.29710   0.28049   0.94026   0.00000  Uiso   1.00
H611   H     0.32271   0.28186   0.52524   0.00000  Uiso   1.00
H612   H     0.14448   0.13180   0.57465   0.00000  Uiso   1.00
H613   H     0.32193   0.14956   0.50516   0.00000  Uiso   1.00
H614   H     0.23341   0.01371   0.75989   0.00000  Uiso   1.00
N615   N     0.31574   0.18074   0.76416   0.00000  Uiso   1.00
N616   N     0.01759   0.15259   0.73584   0.00000  Uiso   1.00
O617   O     0.12797   0.23807   0.74633   0.00000  Uiso   1.00
O618   O     0.22858   0.24755   0.75587   0.00000  Uiso   1.00
O619   O     0.09181   0.15960   0.81840   0.00000  Uiso   1.00
O620   O     0.19242   0.16908   0.82793   0.00000  Uiso   1.00
O621   O     0.10476   0.08578   0.74414   0.00000  Uiso   1.00
O622   O     0.20536   0.09526   0.75367   0.00000  Uiso   1.00
O623   O     0.14092   0.16425   0.67207   0.00000  Uiso   1.00
O624   O     0.24152   0.17373   0.68161   0.00000  Uiso   1.00
Cl625  Cl    0.00851   0.22135   0.81371   0.00000  Uiso   1.00
O626   O     0.32935   0.13000   0.69355   0.00000  Uiso   1.00
C627   C     0.01275   0.08115   0.68157   0.00000  Uiso   1.00
H628   H     0.00052   0.05713   0.71644   0.00000  Uiso   1.00
H629   H     0.06270   0.08653   0.66438   0.00000  Uiso   1.00
C630   C     0.31099   0.05089   0.64117   0.00000  Uiso   1.00
H631   H     0.32293   0.07357   0.60549   0.00000  Uiso   1.00
H632   H     0.32376   0.01217   0.63116   0.00000  Uiso   1.00
H633   H     0.26029   0.04420   0.65643   0.00000  Uiso   1.00
O634   O     0.00537   0.14351   0.90206   0.00000  Uiso   1.00
C635   C     0.30170   0.09220   0.91035   0.00000  Uiso   1.00
H636   H     0.27888   0.08680   0.95175   0.00000  Uiso   1.00
H637   H     0.32989   0.06206   0.89691   0.00000  Uiso   1.00
C638   C     0.25075   0.08366   0.87952   0.00000  Uiso   1.00
H639   H     0.27093   0.08408   0.83732   0.00000  Uiso   1.00
H640   H     0.21765   0.04556   0.88859   0.00000  Uiso   1.00
H641   H     0.22485   0.11538   0.89036   0.00000  Uiso   1.00
O642   O     0.06611   0.18196   0.56725   0.00000  Uiso   1.00
C643   C     0.08563   0.23727   0.57782   0.00000  Uiso   1.00
H644   H     0.06188   0.25963   0.55863   0.00000  Uiso   1.00
H645   H     0.13572   0.25318   0.56361   0.00000  Uiso   1.00
C646   C     0.07285   0.25042   0.63594   0.00000  Uiso   1.00
H647   H     0.11100   0.24431   0.65276   0.00000  Uiso   1.00
H648   H     0.07059   0.29258   0.64331   0.00000  Uiso   1.00
H649   H     0.02868   0.22549   0.65553   0.00000  Uiso   1.00
Cl650  Cl    0.22101   0.27445   0.86993   0.00000  Uiso   1.00
C651   C     0.51512   0.26664   0.75160   0.00000  Uiso   1.00
C652   C     0.47865   0.17949   0.98820   0.00000  Uiso   1.00
C653   C     0.49258   0.19327   0.93606   0.00000  Uiso   1.00
C654   C     0.52668   0.18739   0.51577   0.00000  Uiso   1.00
C655   C     0.58062   0.22631   0.99965   0.00000  Uiso   1.00
C656   C     0.59081   0.24834   0.95160   0.00000  Uiso   1.00
C657   C     0.54752   0.23214   0.91970   0.00000  Uiso   1.00
C658   C     0.51759   0.16378   0.56319   0.00000  Uiso   1.00
C659   C     0.60402   0.22889   0.58492   0.00000  Uiso   1.00
C660   C     0.44755   0.17268   0.90513   0.00000  Uiso   1.00
C661   C     0.52283   0.32283   0.75337   0.00000  Uiso   1.00
C662   C     0.46686   0.16709   0.84760   0.00000  Uiso   1.00
C663   C     0.47664   0.01044   0.74738   0.00000  Uiso   1.00
C664   C     0.48479   0.06668   0.74847   0.00000  Uiso   1.00
C665   C     0.53375   0.17171   0.65305   0.00000  Uiso   1.00
C666   C     0.61846   0.24781   0.53500   0.00000  Uiso   1.00
C667   C     0.55493   0.18556   0.59867   0.00000  Uiso   1.00
C668   C     0.38509   0.15401   0.93045   0.00000  Uiso   1.00
C669   C     0.36982   0.15655   0.98509   0.00000  Uiso   1.00
C670   C     0.41601   0.17051   0.51425   0.00000  Uiso   1.00
Cu671  Cu    0.44043   0.16105   0.74436   0.00000  Uiso   1.00
Cu672  Cu    0.55957   0.17228   0.75565   0.00000  Uiso   1.00
H673   H     0.62855   0.25006   0.61381   0.00000  Uiso   1.00
H674   H     0.43245   0.31954   0.74130   0.00000  Uiso   1.00
H675   H     0.63044   0.28049   0.94026   0.00000  Uiso   1.00
H676   H     0.65604   0.28186   0.52524   0.00000  Uiso   1.00
H677   H     0.47781   0.13180   0.57465   0.00000  Uiso   1.00
H678   H     0.65526   0.14956   0.50516   0.00000  Uiso   1.00
H679   H     0.56674   0.01371   0.75989   0.00000  Uiso   1.00
N680   N     0.64908   0.18074   0.76416   0.00000  Uiso   1.00
N681   N     0.35092   0.15259   0.73584   0.00000  Uiso   1.00
O682   O     0.46131   0.23807   0.74633   0.00000  Uiso   1.00
O683   O     0.56191   0.24755   0.75587   0.00000  Uiso   1.00
O684   O     0.42515   0.15960   0.81840   0.00000  Uiso   1.00
O685   O     0.52575   0.16908   0.82793   0.00000  Uiso   1.00
O686   O     0.43809   0.08578   0.74414   0.00000  Uiso   1.00
O687   O     0.53869   0.09526   0.75367   0.00000  Uiso   1.00
O688   O     0.47425   0.16425   0.67207   0.00000  Uiso   1.00
O689   O     0.57485   0.17373   0.68161   0.00000  Uiso   1.00
Cl690  Cl    0.34184   0.22135   0.81371   0.00000  Uiso   1.00
O691   O     0.66269   0.13000   0.69355   0.00000  Uiso   1.00
C692   C     0.34609   0.08115   0.68157   0.00000  Uiso   1.00
H693   H     0.33385   0.05713   0.71644   0.00000  Uiso   1.00
H694   H     0.39603   0.08653   0.66438   0.00000  Uiso   1.00
C695   C     0.64432   0.05089   0.64117   0.00000  Uiso   1.00
H696   H     0.65626   0.07357   0.60549   0.00000  Uiso   1.00
H697   H     0.65710   0.01217   0.63116   0.00000  Uiso   1.00
H698   H     0.59363   0.04420   0.65643   0.00000  Uiso   1.00
O699   O     0.33870   0.14351   0.90206   0.00000  Uiso   1.00
C700   C     0.63504   0.09220   0.91035   0.00000  Uiso   1.00
H701   H     0.61221   0.08680   0.95175   0.00000  Uiso   1.00
H702   H     0.66322   0.06206   0.89691   0.00000  Uiso   1.00
C703   C     0.58408   0.08366   0.87952   0.00000  Uiso   1.00
H704   H     0.60426   0.08408   0.83732   0.00000  Uiso   1.00
H705   H     0.55098   0.04556   0.88859   0.00000  Uiso   1.00
H706   H     0.55818   0.11538   0.89036   0.00000  Uiso   1.00
O707   O     0.39944   0.18196   0.56725   0.00000  Uiso   1.00
C708   C     0.41896   0.23727   0.57782   0.00000  Uiso   1.00
H709   H     0.39521   0.25963   0.55863   0.00000  Uiso   1.00
H710   H     0.46905   0.25318   0.56361   0.00000  Uiso   1.00
C711   C     0.40618   0.25042   0.63594   0.00000  Uiso   1.00
H712   H     0.44433   0.24431   0.65276   0.00000  Uiso   1.00
H713   H     0.40392   0.29258   0.64331   0.00000  Uiso   1.00
H714   H     0.36202   0.22549   0.65553   0.00000  Uiso   1.00
Cl715  Cl    0.55435   0.27445   0.86993   0.00000  Uiso   1.00
C716   C     0.84846   0.26664   0.75160   0.00000  Uiso   1.00
C717   C     0.81198   0.17949   0.98820   0.00000  Uiso   1.00
C718   C     0.82592   0.19327   0.93606   0.00000  Uiso   1.00
C719   C     0.86001   0.18739   0.51577   0.00000  Uiso   1.00
C720   C     0.91396   0.22631   0.99965   0.00000  Uiso   1.00
C721   C     0.92414   0.24834   0.95160   0.00000  Uiso   1.00
C722   C     0.88085   0.23214   0.91970   0.00000  Uiso   1.00
C723   C     0.85093   0.16378   0.56319   0.00000  Uiso   1.00
C724   C     0.93735   0.22889   0.58492   0.00000  Uiso   1.00
C725   C     0.78088   0.17268   0.90513   0.00000  Uiso   1.00
C726   C     0.85617   0.32283   0.75337   0.00000  Uiso   1.00
C727   C     0.80019   0.16709   0.84760   0.00000  Uiso   1.00
C728   C     0.80997   0.01044   0.74738   0.00000  Uiso   1.00
C729   C     0.81813   0.06668   0.74847   0.00000  Uiso   1.00
C730   C     0.86709   0.17171   0.65305   0.00000  Uiso   1.00
C731   C     0.95180   0.24781   0.53500   0.00000  Uiso   1.00
C732   C     0.88827   0.18556   0.59867   0.00000  Uiso   1.00
C733   C     0.71842   0.15401   0.93045   0.00000  Uiso   1.00
C734   C     0.70315   0.15655   0.98509   0.00000  Uiso   1.00
C735   C     0.74934   0.17051   0.51425   0.00000  Uiso   1.00
Cu736  Cu    0.77377   0.16105   0.74436   0.00000  Uiso   1.00
Cu737  Cu    0.89290   0.17228   0.75565   0.00000  Uiso   1.00
H738   H     0.96188   0.25006   0.61381   0.00000  Uiso   1.00
H739   H     0.76579   0.31954   0.74130   0.00000  Uiso   1.00
H740   H     0.96377   0.28049   0.94026   0.00000  Uiso   1.00
H741   H     0.98938   0.28186   0.52524   0.00000  Uiso   1.00
H742   H     0.81114   0.13180   0.57465   0.00000  Uiso   1.00
H743   H     0.98860   0.14956   0.50516   0.00000  Uiso   1.00
H744   H     0.90007   0.01371   0.75989   0.00000  Uiso   1.00
N745   N     0.98241   0.18074   0.76416   0.00000  Uiso   1.00
N746   N     0.68426   0.15259   0.73584   0.00000  Uiso   1.00
O747   O     0.79464   0.23807   0.74633   0.00000  Uiso   1.00
O748   O     0.89524   0.24755   0.75587   0.00000  Uiso   1.00
O749   O     0.75848   0.15960   0.81840   0.00000  Uiso   1.00
O750   O     0.85908   0.16908   0.82793   0.00000  Uiso   1.00
O751   O     0.77142   0.08578   0.74414   0.00000  Uiso   1.00
O752   O     0.87203   0.09526   0.75367   0.00000  Uiso   1.00
O753   O     0.80758   0.16425   0.67207   0.00000  Uiso   1.00
O754   O     0.90819   0.17373   0.68161   0.00000  Uiso   1.00
Cl755  Cl    0.67518   0.22135   0.81371   0.00000  Uiso   1.00
O756   O     0.99602   0.13000   0.69355   0.00000  Uiso   1.00
C757   C     0.67942   0.08115   0.68157   0.00000  Uiso   1.00
H758   H     0.66718   0.05713   0.71644   0.00000  Uiso   1.00
H759   H     0.72937   0.08653   0.66438   0.00000  Uiso   1.00
C760   C     0.97766   0.05089   0.64117   0.00000  Uiso   1.00
H761   H     0.98960   0.07357   0.60549   0.00000  Uiso   1.00
H762   H     0.99043   0.01217   0.63116   0.00000  Uiso   1.00
H763   H     0.92696   0.04420   0.65643   0.00000  Uiso   1.00
O764   O     0.67203   0.14351   0.90206   0.00000  Uiso   1.00
C765   C     0.96837   0.09220   0.91035   0.00000  Uiso   1.00
H766   H     0.94554   0.08680   0.95175   0.00000  Uiso   1.00
H767   H     0.99656   0.06206   0.89691   0.00000  Uiso   1.00
C768   C     0.91742   0.08366   0.87952   0.00000  Uiso   1.00
H769   H     0.93760   0.08408   0.83732   0.00000  Uiso   1.00
H770   H     0.88431   0.04556   0.88859   0.00000  Uiso   1.00
H771   H     0.89151   0.11538   0.89036   0.00000  Uiso   1.00
O772   O     0.73277   0.18196   0.56725   0.00000  Uiso   1.00
C773   C     0.75230   0.23727   0.57782   0.00000  Uiso   1.00
H774   H     0.72855   0.25963   0.55863   0.00000  Uiso   1.00
H775   H     0.80238   0.25318   0.56361   0.00000  Uiso   1.00
C776   C     0.73951   0.25042   0.63594   0.00000  Uiso   1.00
H777   H     0.77766   0.24431   0.65276   0.00000  Uiso   1.00
H778   H     0.73725   0.29258   0.64331   0.00000  Uiso   1.00
H779   H     0.69535   0.22549   0.65553   0.00000  Uiso   1.00
Cl780  Cl    0.88768   0.27445   0.86993   0.00000  Uiso   1.00
C781   C     0.18179   0.59997   0.75160   0.00000  Uiso   1.00
C782   C     0.14531   0.51283   0.98820   0.00000  Uiso   1.00
C783   C     0.15925   0.52660   0.93606   0.00000  Uiso   1.00
C784   C     0.19334   0.52072   0.51577   0.00000  Uiso   1.00
C785   C     0.24729   0.55965   0.99965   0.00000  Uiso   1.00
C786   C     0.25748   0.58167   0.95160   0.00000  Uiso   1.00
C787   C     0.21418   0.56547   0.91970   0.00000  Uiso   1.00
C788   C     0.18426   0.49711   0.56319   0.00000  Uiso   1.00
C789   C     0.27069   0.56222   0.58492   0.00000  Uiso   1.00
C790   C     0.11422   0.50601   0.90513   0.00000  Uiso   1.00
C791   C     0.18950   0.65616   0.75337   0.00000  Uiso   1.00
C792   C     0.13352   0.50043   0.84760   0.00000  Uiso   1.00
C793   C     0.14330   0.34378   0.74738   0.00000  Uiso   1.00
C794   C     0.15146   0.40002   0.74847   0.00000  Uiso   1.00
C795   C     0.20042   0.50504   0.65305   0.00000  Uiso   1.00
C796   C     0.28513   0.58114   0.53500   0.00000  Uiso   1.00
C797   C     0.22160   0.51889   0.59867   0.00000  Uiso   1.00
C798   C     0.05176   0.48734   0.93045   0.00000  Uiso   1.00
C799   C     0.03648   0.48988   0.98509   0.00000  Uiso   1.00
C800   C     0.08267   0.50385   0.51425   0.00000  Uiso   1.00
Cu801  Cu    0.10710   0.49439   0.74436   0.00000  Uiso   1.00
Cu802  Cu    0.22623   0.50561   0.75565   0.00000  Uiso   1.00
H803   H     0.29522   0.58339   0.61381   0.00000  Uiso   1.00
H804   H     0.09912   0.65288   0.74130   0.00000  Uiso   1.00
H805   H     0.29710   0.61382   0.94026   0.00000  Uiso   1.00
H806   H     0.32271   0.61519   0.52524   0.00000  Uiso   1.00
H807   H     0.14448   0.46513   0.57465   0.00000  Uiso   1.00
H808   H     0.32193   0.48289   0.50516   0.00000  Uiso   1.00
H809   H     0.23341   0.34705   0.75989   0.00000  Uiso   1.00
N810   N     0.31574   0.51407   0.76416   0.00000  Uiso   1.00
N811   N     0.01759   0.48593   0.73584   0.00000  Uiso   1.00
O812   O     0.12797   0.57141   0.74633   0.00000  Uiso   1.00
O813   O     0.22858   0.58089   0.75587   0.00000  Uiso   1.00
O814   O     0.09181   0.49293   0.81840   0.00000  Uiso   1.00
O815   O     0.19242   0.50241   0.82793   0.00000  Uiso   1.00
O816   O     0.10476   0.41911   0.74414   0.00000  Uiso   1.00
O817   O     0.20536   0.42859   0.75367   0.00000  Uiso   1.00
O818   O     0.14092   0.49759   0.67207   0.00000  Uiso   1.00
O819   O     0.24152   0.50707   0.68161   0.00000  Uiso   1.00
Cl820  Cl    0.00851   0.55468   0.81371   0.00000  Uiso   1.00
O821   O     0.32935   0.46333   0.69355   0.00000  Uiso   1.00
C822   C     0.01275   0.41448   0.68157   0.00000  Uiso   1.00
H823   H     0.00052   0.39047   0.71644   0.00000  Uiso   1.00
H824   H     0.06270   0.41986   0.66438   0.00000  Uiso   1.00
C825   C     0.31099   0.38422   0.64117   0.00000  Uiso   1.00
H826   H     0.32293   0.40690   0.60549   0.00000  Uiso   1.00
H827   H     0.32376   0.34550   0.63116   0.00000  Uiso   1.00
H828   H     0.26029   0.37753   0.65643   0.00000  Uiso   1.00
O829   O     0.00537   0.47685   0.90206   0.00000  Uiso   1.00
C830   C     0.30170   0.42553   0.91035   0.00000  Uiso   1.00
H831   H     0.27888   0.42013   0.95175   0.00000  Uiso   1.00
H832   H     0.32989   0.39540   0.89691   0.00000  Uiso   1.00
C833   C     0.25075   0.41699   0.87952   0.00000  Uiso   1.00
H834   H     0.27093   0.41741   0.83732   0.00000  Uiso   1.00
H835   H     0.21765   0.37889   0.88859   0.00000  Uiso   1.00
H836   H     0.22485   0.44871   0.89036   0.00000  Uiso   1.00
O837   O     0.06611   0.51529   0.56725   0.00000  Uiso   1.00
C838   C     0.08563   0.57061   0.57782   0.00000  Uiso   1.00
H839   H     0.06188   0.59296   0.55863   0.00000  Uiso   1.00
H840   H     0.13572   0.58651   0.56361   0.00000  Uiso   1.00
C841   C     0.07285   0.58376   0.63594   0.00000  Uiso   1.00
H842   H     0.11100   0.57764   0.65276   0.00000  Uiso   1.00
H843   H     0.07059   0.62591   0.64331   0.00000  Uiso   1.00
H844   H     0.02868   0.55883   0.65553   0.00000  Uiso   1.00
Cl845  Cl    0.22101   0.60778   0.86993   0.00000  Uiso   1.00
C846   C     0.51512   0.59997   0.75160   0.00000  Uiso   1.00
C847   C     0.47865   0.51283   0.98820   0.00000  Uiso   1.00
C848   C     0.49258   0.52660   0.93606   0.00000  Uiso   1.00
C849   C     0.52668   0.52072   0.51577   0.00000  Uiso   1.00
C850   C     0.58062   0.55965   0.99965   0.00000  Uiso   1.00
C851   C     0.59081   0.58167   0.95160   0.00000  Uiso   1.00
C852   C     0.54752   0.56547   0.91970   0.00000  Uiso   1.00
C853   C     0.51759   0.49711   0.56319   0.00000  Uiso   1.00
C854   C     0.60402   0.56222   0.58492   0.00000  Uiso   1.00
C855   C     0.44755   0.50601   0.90513   0.00000  Uiso   1.00
C856   C     0.52283   0.65616   0.75337   0.00000  Uiso   1.00
C857   C     0.46686   0.50043   0.84760   0.00000  Uiso   1.00
C858   C     0.47664   0.34378   0.74738   0.00000  Uiso   1.00
C859   C     0.48479   0.40002   0.74847   0.00000  Uiso   1.00
C860   C     0.53375   0.50504   0.65305   0.00000  Uiso   1.00
C861   C     0.61846   0.58114   0.53500   0.00000  Uiso   1.00
C862   C     0.55493   0.51889   0.59867   0.00000  Uiso   1.00
C863   C     0.38509   0.48734   0.93045   0.00000  Uiso   1.00
C864   C     0.36982   0.48988   0.98509   0.00000  Uiso   1.00
C865   C     0.41601   0.50385   0.51425   0.00000  Uiso   1.00
Cu866  Cu    0.44043   0.49439   0.74436   0.00000  Uiso   1.00
Cu867  Cu    0.55957   0.50561   0.75565   0.00000  Uiso   1.00
H868   H     0.62855   0.58339   0.61381   0.00000  Uiso   1.00
H869   H     0.43245   0.65288   0.74130   0.00000  Uiso   1.00
H870   H     0.63044   0.61382   0.94026   0.00000  Uiso   1.00
H871   H     0.65604   0.61519   0.52524   0.00000  Uiso   1.00
H872   H     0.47781   0.46513   0.57465   0.00000  Uiso   1.00
H873   H     0.65526   0.48289   0.50516   0.00000  Uiso   1.00
H874   H     0.56674   0.34705   0.75989   0.00000  Uiso   1.00
N875   N     0.64908   0.51407   0.76416   0.00000  Uiso   1.00
N876   N     0.35092   0.48593   0.73584   0.00000  Uiso   1.00
O877   O     0.46131   0.57141   0.74633   0.00000  Uiso   1.00
O878   O     0.56191   0.58089   0.75587   0.00000  Uiso   1.00
O879   O     0.42515   0.49293   0.81840   0.00000  Uiso   1.00
O880   O     0.52575   0.50241   0.82793   0.00000  Uiso   1.00
O881   O     0.43809   0.41911   0.74414   0.00000  Uiso   1.00
O882   O     0.53869   0.42859   0.75367   0.00000  Uiso   1.00
O883   O     0.47425   0.49759   0.67207   0.00000  Uiso   1.00
O884   O     0.57485   0.50707   0.68161   0.00000  Uiso   1.00
Cl885  Cl    0.34184   0.55468   0.81371   0.00000  Uiso   1.00
O886   O     0.66269   0.46333   0.69355   0.00000  Uiso   1.00
C887   C     0.34609   0.41448   0.68157   0.00000  Uiso   1.00
H888   H     0.33385   0.39047   0.71644   0.00000  Uiso   1.00
H889   H     0.39603   0.41986   0.66438   0.00000  Uiso   1.00
C890   C     0.64432   0.38422   0.64117   0.00000  Uiso   1.00
H891   H     0.65626   0.40690   0.60549   0.00000  Uiso   1.00
H892   H     0.65710   0.34550   0.63116   0.00000  Uiso   1.00
H893   H     0.59363   0.37753   0.65643   0.00000  Uiso   1.00
O894   O     0.33870   0.47685   0.90206   0.00000  Uiso   1.00
C895   C     0.63504   0.42553   0.91035   0.00000  Uiso   1.00
H896   H     0.61221   0.42013   0.95175   0.00000  Uiso   1.00
H897   H     0.66322   0.39540   0.89691   0.00000  Uiso   1.00
C898   C     0.58408   0.41699   0.87952   0.00000  Uiso   1.00
H899   H     0.60426   0.41741   0.83732   0.00000  Uiso   1.00
H900   H     0.55098   0.37889   0.88859   0.00000  Uiso   1.00
H901   H     0.55818   0.44871   0.89036   0.00000  Uiso   1.00
O902   O     0.39944   0.51529   0.56725   0.00000  Uiso   1.00
C903   C     0.41896   0.57061   0.57782   0.00000  Uiso   1.00
H904   H     0.39521   0.59296   0.55863   0.00000  Uiso   1.00
H905   H     0.46905   0.58651   0.56361   0.00000  Uiso   1.00
C906   C     0.40618   0.58376   0.63594   0.00000  Uiso   1.00
H907   H     0.44433   0.57764   0.65276   0.00000  Uiso   1.00
H908   H     0.40392   0.62591   0.64331   0.00000  Uiso   1.00
H909   H     0.36202   0.55883   0.65553   0.00000  Uiso   1.00
Cl910  Cl    0.55435   0.60778   0.86993   0.00000  Uiso   1.00
C911   C     0.84846   0.59997   0.75160   0.00000  Uiso   1.00
C912   C     0.81198   0.51283   0.98820   0.00000  Uiso   1.00
C913   C     0.82592   0.52660   0.93606   0.00000  Uiso   1.00
C914   C     0.86001   0.52072   0.51577   0.00000  Uiso   1.00
C915   C     0.91396   0.55965   0.99965   0.00000  Uiso   1.00
C916   C     0.92414   0.58167   0.95160   0.00000  Uiso   1.00
C917   C     0.88085   0.56547   0.91970   0.00000  Uiso   1.00
C918   C     0.85093   0.49711   0.56319   0.00000  Uiso   1.00
C919   C     0.93735   0.56222   0.58492   0.00000  Uiso   1.00
C920   C     0.78088   0.50601   0.90513   0.00000  Uiso   1.00
C921   C     0.85617   0.65616   0.75337   0.00000  Uiso   1.00
C922   C     0.80019   0.50043   0.84760   0.00000  Uiso   1.00
C923   C     0.80997   0.34378   0.74738   0.00000  Uiso   1.00
C924   C     0.81813   0.40002   0.74847   0.00000  Uiso   1.00
C925   C     0.86709   0.50504   0.65305   0.00000  Uiso   1.00
C926   C     0.95180   0.58114   0.53500   0.00000  Uiso   1.00
C927   C     0.88827   0.51889   0.59867   0.00000  Uiso   1.00
C928   C     0.71842   0.48734   0.93045   0.00000  Uiso   1.00
C929   C     0.70315   0.48988   0.98509   0.00000  Uiso   1.00
C930   C     0.74934   0.50385   0.51425   0.00000  Uiso   1.00
Cu931  Cu    0.77377   0.49439   0.74436   0.00000  Uiso   1.00
Cu932  Cu    0.89290   0.50561   0.75565   0.00000  Uiso   1.00
H933   H     0.96188   0.58339   0.61381   0.00000  Uiso   1.00
H934   H     0.76579   0.65288   0.74130   0.00000  Uiso   1.00
H935   H     0.96377   0.61382   0.94026   0.00000  Uiso   1.00
H936   H     0.98938   0.61519   0.52524   0.00000  Uiso   1.00
H937   H     0.81114   0.46513   0.57465   0.00000  Uiso   1.00
H938   H     0.98860   0.48289   0.50516   0.00000  Uiso   1.00
H939   H     0.90007   0.34705   0.75989   0.00000  Uiso   1.00
N940   N     0.98241   0.51407   0.76416   0.00000  Uiso   1.00
N941   N     0.68426   0.48593   0.73584   0.00000  Uiso   1.00
O942   O     0.79464   0.57141   0.74633   0.00000  Uiso   1.00
O943   O     0.89524   0.58089   0.75587   0.00000  Uiso   1.00
O944   O     0.75848   0.49293   0.81840   0.00000  Uiso   1.00
O945   O     0.85908   0.50241   0.82793   0.00000  Uiso   1.00
O946   O     0.77142   0.41911   0.74414   0.00000  Uiso   1.00
O947   O     0.87203   0.42859   0.75367   0.00000  Uiso   1.00
O948   O     0.80758   0.49759   0.67207   0.00000  Uiso   1.00
O949   O     0.90819   0.50707   0.68161   0.00000  Uiso   1.00
Cl950  Cl    0.67518   0.55468   0.81371   0.00000  Uiso   1.00
O951   O     0.99602   0.46333   0.69355   0.00000  Uiso   1.00
C952   C     0.67942   0.41448   0.68157   0.00000  Uiso   1.00
H953   H     0.66718   0.39047   0.71644   0.00000  Uiso   1.00
H954   H     0.72937   0.41986   0.66438   0.00000  Uiso   1.00
C955   C     0.97766   0.38422   0.64117   0.00000  Uiso   1.00
H956   H     0.98960   0.40690   0.60549   0.00000  Uiso   1.00
H957   H     0.99043   0.34550   0.63116   0.00000  Uiso   1.00
H958   H     0.92696   0.37753   0.65643   0.00000  Uiso   1.00
O959   O     0.67203   0.47685   0.90206   0.00000  Uiso   1.00
C960   C     0.96837   0.42553   0.91035   0.00000  Uiso   1.00
H961   H     0.94554   0.42013   0.95175   0.00000  Uiso   1.00
H962   H     0.99656   0.39540   0.89691   0.00000  Uiso   1.00
C963   C     0.91742   0.41699   0.87952   0.00000  Uiso   1.00
H964   H     0.93760   0.41741   0.83732   0.00000  Uiso   1.00
H965   H     0.88431   0.37889   0.88859   0.00000  Uiso   1.00
H966   H     0.89151   0.44871   0.89036   0.00000  Uiso   1.00
O967   O     0.73277   0.51529   0.56725   0.00000  Uiso   1.00
C968   C     0.75230   0.57061   0.57782   0.00000  Uiso   1.00
H969   H     0.72855   0.59296   0.55863   0.00000  Uiso   1.00
H970   H     0.80238   0.58651   0.56361   0.00000  Uiso   1.00
C971   C     0.73951   0.58376   0.63594   0.00000  Uiso   1.00
H972   H     0.77766   0.57764   0.65276   0.00000  Uiso   1.00
H973   H     0.73725   0.62591   0.64331   0.00000  Uiso   1.00
H974   H     0.69535   0.55883   0.65553   0.00000  Uiso   1.00
Cl975  Cl    0.88768   0.60778   0.86993   0.00000  Uiso   1.00
C976   C     0.18179   0.93331   0.75160   0.00000  Uiso   1.00
C977   C     0.14531   0.84616   0.98820   0.00000  Uiso   1.00
C978   C     0.15925   0.85993   0.93606   0.00000  Uiso   1.00
C979   C     0.19334   0.85405   0.51577   0.00000  Uiso   1.00
C980   C     0.24729   0.89298   0.99965   0.00000  Uiso   1.00
C981   C     0.25748   0.91500   0.95160   0.00000  Uiso   1.00
C982   C     0.21418   0.89881   0.91970   0.00000  Uiso   1.00
C983   C     0.18426   0.83045   0.56319   0.00000  Uiso   1.00
C984   C     0.27069   0.89555   0.58492   0.00000  Uiso   1.00
C985   C     0.11422   0.83935   0.90513   0.00000  Uiso   1.00
C986   C     0.18950   0.98949   0.75337   0.00000  Uiso   1.00
C987   C     0.13352   0.83376   0.84760   0.00000  Uiso   1.00
C988   C     0.14330   0.67711   0.74738   0.00000  Uiso   1.00
C989   C     0.15146   0.73335   0.74847   0.00000  Uiso   1.00
C990   C     0.20042   0.83838   0.65305   0.00000  Uiso   1.00
C991   C     0.28513   0.91448   0.53500   0.00000  Uiso   1.00
C992   C     0.22160   0.85223   0.59867   0.00000  Uiso   1.00
C993   C     0.05176   0.82067   0.93045   0.00000  Uiso   1.00
C994   C     0.03648   0.82321   0.98509   0.00000  Uiso   1.00
C995   C     0.08267   0.83718   0.51425   0.00000  Uiso   1.00
Cu996  Cu    0.10710   0.82772   0.74436   0.00000  Uiso   1.00
Cu997  Cu    0.22623   0.83895   0.75565   0.00000  Uiso   1.00
H998   H     0.29522   0.91672   0.61381   0.00000  Uiso   1.00
H999   H     0.09912   0.98621   0.74130   0.00000  Uiso   1.00
H1000  H     0.29710   0.94715   0.94026   0.00000  Uiso   1.00
H1001  H     0.32271   0.94852   0.52524   0.00000  Uiso   1.00
H1002  H     0.14448   0.79847   0.57465   0.00000  Uiso   1.00
H1003  H     0.32193   0.81623   0.50516   0.00000  Uiso   1.00
H1004  H     0.23341   0.68038   0.75989   0.00000  Uiso   1.00
N1005  N     0.31574   0.84741   0.76416   0.00000  Uiso   1.00
N1006  N     0.01759   0.81926   0.73584   0.00000  Uiso   1.00
O1007  O     0.12797   0.90474   0.74633   0.00000  Uiso   1.00
O1008  O     0.22858   0.91422   0.75587   0.00000  Uiso   1.00
O1009  O     0.09181   0.82627   0.81840   0.00000  Uiso   1.00
O1010  O     0.19242   0.83575   0.82793   0.00000  Uiso   1.00
O1011  O     0.10476   0.75245   0.74414   0.00000  Uiso   1.00
O1012  O     0.20536   0.76193   0.75367   0.00000  Uiso   1.00
O1013  O     0.14092   0.83092   0.67207   0.00000  Uiso   1.00
O1014  O     0.24152   0.84040   0.68161   0.00000  Uiso   1.00
Cl1015 Cl    0.00851   0.88802   0.81371   0.00000  Uiso   1.00
O1016  O     0.32935   0.79667   0.69355   0.00000  Uiso   1.00
C1017  C     0.01275   0.74782   0.68157   0.00000  Uiso   1.00
H1018  H     0.00052   0.72380   0.71644   0.00000  Uiso   1.00
H1019  H     0.06270   0.75319   0.66438   0.00000  Uiso   1.00
C1020  C     0.31099   0.71755   0.64117   0.00000  Uiso   1.00
H1021  H     0.32293   0.74024   0.60549   0.00000  Uiso   1.00
H1022  H     0.32376   0.67884   0.63116   0.00000  Uiso   1.00
H1023  H     0.26029   0.71086   0.65643   0.00000  Uiso   1.00
O1024  O     0.00537   0.81018   0.90206   0.00000  Uiso   1.00
C1025  C     0.30170   0.75887   0.91035   0.00000  Uiso   1.00
H1026  H     0.27888   0.75347   0.95175   0.00000  Uiso   1.00
H1027  H     0.32989   0.72873   0.89691   0.00000  Uiso   1.00
C1028  C     0.25075   0.75032   0.87952   0.00000  Uiso   1.00
H1029  H     0.27093   0.75074   0.83732   0.00000  Uiso   1.00
H1030  H     0.21765   0.71223   0.88859   0.00000  Uiso   1.00
H1031  H     0.22485   0.78204   0.89036   0.00000  Uiso   1.00
O1032  O     0.06611   0.84862   0.56725   0.00000  Uiso   1.00
C1033  C     0.08563   0.90394   0.57782   0.00000  Uiso   1.00
H1034  H     0.06188   0.92630   0.55863   0.00000  Uiso   1.00
H1035  H     0.13572   0.91984   0.56361   0.00000  Uiso   1.00
C1036  C     0.07285   0.91709   0.63594   0.00000  Uiso   1.00
H1037  H     0.11100   0.91098   0.65276   0.00000  Uiso   1.00
H1038  H     0.07059   0.95924   0.64331   0.00000  Uiso   1.00
H1039  H     0.02868   0.89216   0.65553   0.00000  Uiso   1.00
Cl1040 Cl    0.22101   0.94112   0.86993   0.00000  Uiso   1.00
C1041  C     0.51512   0.93331   0.75160   0.00000  Uiso   1.00
C1042  C     0.47865   0.84616   0.98820   0.00000  Uiso   1.00
C1043  C     0.49258   0.85993   0.93606   0.00000  Uiso   1.00
C1044  C     0.52668   0.85405   0.51577   0.00000  Uiso   1.00
C1045  C     0.58062   0.89298   0.99965   0.00000  Uiso   1.00
C1046  C     0.59081   0.91500   0.95160   0.00000  Uiso   1.00
C1047  C     0.54752   0.89881   0.91970   0.00000  Uiso   1.00
C1048  C     0.51759   0.83045   0.56319   0.00000  Uiso   1.00
C1049  C     0.60402   0.89555   0.58492   0.00000  Uiso   1.00
C1050  C     0.44755   0.83935   0.90513   0.00000  Uiso   1.00
C1051  C     0.52283   0.98949   0.75337   0.00000  Uiso   1.00
C1052  C     0.46686   0.83376   0.84760   0.00000  Uiso   1.00
C1053  C     0.47664   0.67711   0.74738   0.00000  Uiso   1.00
C1054  C     0.48479   0.73335   0.74847   0.00000  Uiso   1.00
C1055  C     0.53375   0.83838   0.65305   0.00000  Uiso   1.00
C1056  C     0.61846   0.91448   0.53500   0.00000  Uiso   1.00
C1057  C     0.55493   0.85223   0.59867   0.00000  Uiso   1.00
C1058  C     0.38509   0.82067   0.93045   0.00000  Uiso   1.00
C1059  C     0.36982   0.82321   0.98509   0.00000  Uiso   1.00
C1060  C     0.41601   0.83718   0.51425   0.00000  Uiso   1.00
Cu1061 Cu    0.44043   0.82772   0.74436   0.00000  Uiso   1.00
Cu1062 Cu    0.55957   0.83895   0.75565   0.00000  Uiso   1.00
H1063  H     0.62855   0.91672   0.61381   0.00000  Uiso   1.00
H1064  H     0.43245   0.98621   0.74130   0.00000  Uiso   1.00
H1065  H     0.63044   0.94715   0.94026   0.00000  Uiso   1.00
H1066  H     0.65604   0.94852   0.52524   0.00000  Uiso   1.00
H1067  H     0.47781   0.79847   0.57465   0.00000  Uiso   1.00
H1068  H     0.65526   0.81623   0.50516   0.00000  Uiso   1.00
H1069  H     0.56674   0.68038   0.75989   0.00000  Uiso   1.00
N1070  N     0.64908   0.84741   0.76416   0.00000  Uiso   1.00
N1071  N     0.35092   0.81926   0.73584   0.00000  Uiso   1.00
O1072  O     0.46131   0.90474   0.74633   0.00000  Uiso   1.00
O1073  O     0.56191   0.91422   0.75587   0.00000  Uiso   1.00
O1074  O     0.42515   0.82627   0.81840   0.00000  Uiso   1.00
O1075  O     0.52575   0.83575   0.82793   0.00000  Uiso   1.00
O1076  O     0.43809   0.75245   0.74414   0.00000  Uiso   1.00
O1077  O     0.53869   0.76193   0.75367   0.00000  Uiso   1.00
O1078  O     0.47425   0.83092   0.67207   0.00000  Uiso   1.00
O1079  O     0.57485   0.84040   0.68161   0.00000  Uiso   1.00
Cl1080 Cl    0.34184   0.88802   0.81371   0.00000  Uiso   1.00
O1081  O     0.66269   0.79667   0.69355   0.00000  Uiso   1.00
C1082  C     0.34609   0.74782   0.68157   0.00000  Uiso   1.00
H1083  H     0.33385   0.72380   0.71644   0.00000  Uiso   1.00
H1084  H     0.39603   0.75319   0.66438   0.00000  Uiso   1.00
C1085  C     0.64432   0.71755   0.64117   0.00000  Uiso   1.00
H1086  H     0.65626   0.74024   0.60549   0.00000  Uiso   1.00
H1087  H     0.65710   0.67884   0.63116   0.00000  Uiso   1.00
H1088  H     0.59363   0.71086   0.65643   0.00000  Uiso   1.00
O1089  O     0.33870   0.81018   0.90206   0.00000  Uiso   1.00
C1090  C     0.63504   0.75887   0.91035   0.00000  Uiso   1.00
H1091  H     0.61221   0.75347   0.95175   0.00000  Uiso   1.00
H1092  H     0.66322   0.72873   0.89691   0.00000  Uiso   1.00
C1093  C     0.58408   0.75032   0.87952   0.00000  Uiso   1.00
H1094  H     0.60426   0.75074   0.83732   0.00000  Uiso   1.00
H1095  H     0.55098   0.71223   0.88859   0.00000  Uiso   1.00
H1096  H     0.55818   0.78204   0.89036   0.00000  Uiso   1.00
O1097  O     0.39944   0.84862   0.56725   0.00000  Uiso   1.00
C1098  C     0.41896   0.90394   0.57782   0.00000  Uiso   1.00
H1099  H     0.39521   0.92630   0.55863   0.00000  Uiso   1.00
H1100  H     0.46905   0.91984   0.56361   0.00000  Uiso   1.00
C1101  C     0.40618   0.91709   0.63594   0.00000  Uiso   1.00
H1102  H     0.44433   0.91098   0.65276   0.00000  Uiso   1.00
H1103  H     0.40392   0.95924   0.64331   0.00000  Uiso   1.00
H1104  H     0.36202   0.89216   0.65553   0.00000  Uiso   1.00
Cl1105 Cl    0.55435   0.94112   0.86993   0.00000  Uiso   1.00
C1106  C     0.84846   0.93331   0.75160   0.00000  Uiso   1.00
C1107  C     0.81198   0.84616   0.98820   0.00000  Uiso   1.00
C1108  C     0.82592   0.85993   0.93606   0.00000  Uiso   1.00
C1109  C     0.86001   0.85405   0.51577   0.00000  Uiso   1.00
C1110  C     0.91396   0.89298   0.99965   0.00000  Uiso   1.00
C1111  C     0.92414   0.91500   0.95160   0.00000  Uiso   1.00
C1112  C     0.88085   0.89881   0.91970   0.00000  Uiso   1.00
C1113  C     0.85093   0.83045   0.56319   0.00000  Uiso   1.00
C1114  C     0.93735   0.89555   0.58492   0.00000  Uiso   1.00
C1115  C     0.78088   0.83935   0.90513   0.00000  Uiso   1.00
C1116  C     0.85617   0.98949   0.75337   0.00000  Uiso   1.00
C1117  C     0.80019   0.83376   0.84760   0.00000  Uiso   1.00
C1118  C     0.80997   0.67711   0.74738   0.00000  Uiso   1.00
C1119  C     0.81813   0.73335   0.74847   0.00000  Uiso   1.00
C1120  C     0.86709   0.83838   0.65305   0.00000  Uiso   1.00
C1121  C     0.95180   0.91448   0.53500   0.00000  Uiso   1.00
C1122  C     0.88827   0.85223   0.59867   0.00000  Uiso   1.00
C1123  C     0.71842   0.82067   0.93045   0.00000  Uiso   1.00
C1124  C     0.70315   0.82321   0.98509   0.00000  Uiso   1.00
C1125  C     0.74934   0.83718   0.51425   0.00000  Uiso   1.00
Cu1126 Cu    0.77377   0.82772   0.74436   0.00000  Uiso   1.00
Cu1127 Cu    0.89290   0.83895   0.75565   0.00000  Uiso   1.00
H1128  H     0.96188   0.91672   0.61381   0.00000  Uiso   1.00
H1129  H     0.76579   0.98621   0.74130   0.00000  Uiso   1.00
H1130  H     0.96377   0.94715   0.94026   0.00000  Uiso   1.00
H1131  H     0.98938   0.94852   0.52524   0.00000  Uiso   1.00
H1132  H     0.81114   0.79847   0.57465   0.00000  Uiso   1.00
H1133  H     0.98860   0.81623   0.50516   0.00000  Uiso   1.00
H1134  H     0.90007   0.68038   0.75989   0.00000  Uiso   1.00
N1135  N     0.98241   0.84741   0.76416   0.00000  Uiso   1.00
N1136  N     0.68426   0.81926   0.73584   0.00000  Uiso   1.00
O1137  O     0.79464   0.90474   0.74633   0.00000  Uiso   1.00
O1138  O     0.89524   0.91422   0.75587   0.00000  Uiso   1.00
O1139  O     0.75848   0.82627   0.81840   0.00000  Uiso   1.00
O1140  O     0.85908   0.83575   0.82793   0.00000  Uiso   1.00
O1141  O     0.77142   0.75245   0.74414   0.00000  Uiso   1.00
O1142  O     0.87203   0.76193   0.75367   0.00000  Uiso   1.00
O1143  O     0.80758   0.83092   0.67207   0.00000  Uiso   1.00
O1144  O     0.90819   0.84040   0.68161   0.00000  Uiso   1.00
Cl1145 Cl    0.67518   0.88802   0.81371   0.00000  Uiso   1.00
O1146  O     0.99602   0.79667   0.69355   0.00000  Uiso   1.00
C1147  C     0.67942   0.74782   0.68157   0.00000  Uiso   1.00
H1148  H     0.66718   0.72380   0.71644   0.00000  Uiso   1.00
H1149  H     0.72937   0.75319   0.66438   0.00000  Uiso   1.00
C1150  C     0.97766   0.71755   0.64117   0.00000  Uiso   1.00
H1151  H     0.98960   0.74024   0.60549   0.00000  Uiso   1.00
H1152  H     0.99043   0.67884   0.63116   0.00000  Uiso   1.00
H1153  H     0.92696   0.71086   0.65643   0.00000  Uiso   1.00
O1154  O     0.67203   0.81018   0.90206   0.00000  Uiso   1.00
C1155  C     0.96837   0.75887   0.91035   0.00000  Uiso   1.00
H1156  H     0.94554   0.75347   0.95175   0.00000  Uiso   1.00
H1157  H     0.99656   0.72873   0.89691   0.00000  Uiso   1.00
C1158  C     0.91742   0.75032   0.87952   0.00000  Uiso   1.00
H1159  H     0.93760   0.75074   0.83732   0.00000  Uiso   1.00
H1160  H     0.88431   0.71223   0.88859   0.00000  Uiso   1.00
H1161  H     0.89151   0.78204   0.89036   0.00000  Uiso   1.00
O1162  O     0.73277   0.84862   0.56725   0.00000  Uiso   1.00
C1163  C     0.75230   0.90394   0.57782   0.00000  Uiso   1.00
H1164  H     0.72855   0.92630   0.55863   0.00000  Uiso   1.00
H1165  H     0.80238   0.91984   0.56361   0.00000  Uiso   1.00
C1166  C     0.73951   0.91709   0.63594   0.00000  Uiso   1.00
H1167  H     0.77766   0.91098   0.65276   0.00000  Uiso   1.00
H1168  H     0.73725   0.95924   0.64331   0.00000  Uiso   1.00
H1169  H     0.69535   0.89216   0.65553   0.00000  Uiso   1.00
Cl1170 Cl    0.88768   0.94112   0.86993   0.00000  Uiso   1.00
loop_
_geom_bond_atom_site_label_1
_geom_bond_atom_site_label_2
_geom_bond_distance
_geom_bond_site_symmetry_2
_ccdc_geom_bond_type
C1     C11     1.433   .     S
C1     O33     1.305   .     A
C1     O32     1.300   .     A
C2     C3      1.408   .     A
C2     C589    1.405   .     S
C2     C605    1.413   .     S
C3     C7      1.421   .     A
C3     C10     1.423   .     A
C4     C8      1.404   .     A
C4     C587    1.405   1_554 S
C4     C590    1.407   1_554 S
C5     C6      1.396   .     A
C5     C589    1.407   .     S
C5     C601    1.397   .     S
C6     C7      1.398   .     A
C6     H25     1.084   .     S
C7     Cl65    1.757   .     S
C8     H27     1.084   .     S
C8     C17     1.393   .     A
C9     C16     1.399   .     A
C9     C17     1.399   .     A
C9     H23     1.077   .     S
C10    C18     1.420   .     A
C10    C12     1.493   .     S
C11    C208    1.336   .     S
C11    H224    1.085   .     S
C12    O35     1.314   .     A
C12    O34     1.317   .     A
C13    C14     1.434   .     S
C13    C401    1.336   1_545 S
C13    H414    1.087   1_545 S
C14    O36     1.304   .     A
C14    O37     1.301   .     A
C15    O38     1.308   .     A
C15    C17     1.465   .     S
C15    O39     1.312   .     A
C16    H26     1.083   .     S
C16    C590    1.397   1_554 S
C18    O49     1.385   .     S
C18    C19     1.410   .     A
C19    C605    1.395   .     S
C19    H743    1.081   1_455 S
C20    O57     1.393   .     S
C20    C604    1.395   1_554 S
C20    C587    1.413   1_554 S
Cu21   N31     2.050   .     S
Cu21   O36     1.953   .     S
Cu21   Cu22    2.728   .     S
Cu21   O32     1.952   .     S
Cu21   O34     1.916   .     S
Cu21   O38     1.901   .     S
Cu22   O35     1.901   .     S
Cu22   O39     1.916   .     S
Cu22   N30     2.050   .     S
Cu22   O37     1.952   .     S
Cu22   O33     1.953   .     S
H24    C208    1.087   .     S
H28    C669    1.081   1_554 S
H29    C401    1.085   1_545 S
N30    N96     1.285   .     S
N30    Cl105   1.724   .     S
N31    N160    1.285   1_455 S
N31    O171    1.348   1_455 S
Cl40   N160    1.724   1_455 S
O41    N96     1.348   .     S
O41    C107    1.404   .     S
C42    H44     1.106   .     S
C42    H43     1.113   .     S
C42    O171    1.404   1_455 S
C42    C175    1.521   1_455 S
C45    H47     1.109   .     S
C45    H48     1.110   .     S
C45    H46     1.111   .     S
C45    C107    1.521   .     S
O49    C180    1.411   1_455 S
C50    H52     1.114   .     S
C50    H51     1.111   .     S
C50    C53     1.519   .     S
C50    O114    1.411   .     S
C53    H55     1.106   .     S
C53    H54     1.111   .     S
C53    H56     1.107   .     S
O57    C58     1.426   .     S
C58    C61     1.523   .     S
C58    H60     1.107   .     S
C58    H59     1.102   .     S
C61    H64     1.107   .     S
C61    H62     1.105   .     S
C61    H63     1.111   .     S
C66    C76     1.433   .     S
C66    O98     1.305   .     A
C66    O97     1.300   .     A
C67    C68     1.408   .     A
C67    C654    1.405   .     S
C67    C670    1.413   .     S
C68    C72     1.421   .     A
C68    C75     1.423   .     A
C69    C73     1.404   .     A
C69    C652    1.405   1_554 S
C69    C655    1.407   1_554 S
C70    C71     1.396   .     A
C70    C654    1.407   .     S
C70    C666    1.397   .     S
C71    C72     1.398   .     A
C71    H90     1.084   .     S
C72    Cl130   1.757   .     S
C73    H92     1.084   .     S
C73    C82     1.393   .     A
C74    C81     1.399   .     A
C74    C82     1.399   .     A
C74    H88     1.077   .     S
C75    C83     1.420   .     A
C75    C77     1.493   .     S
C76    C273    1.336   .     S
C76    H289    1.085   .     S
C77    O100    1.314   .     A
C77    O99     1.317   .     A
C78    C79     1.434   .     S
C78    C466    1.336   1_545 S
C78    H479    1.087   1_545 S
C79    O101    1.304   .     A
C79    O102    1.301   .     A
C80    O103    1.308   .     A
C80    C82     1.465   .     S
C80    O104    1.312   .     A
C81    H91     1.083   .     S
C81    C655    1.397   1_554 S
C83    O114    1.385   .     S
C83    C84     1.410   .     A
C84    C670    1.395   .     S
C84    H613    1.081   .     S
C85    O122    1.393   .     S
C85    C669    1.395   1_554 S
C85    C652    1.413   1_554 S
Cu86   N96     2.050   .     S
Cu86   O101    1.953   .     S
Cu86   Cu87    2.728   .     S
Cu86   O97     1.952   .     S
Cu86   O99     1.916   .     S
Cu86   O103    1.901   .     S
Cu87   O100    1.901   .     S
Cu87   O104    1.916   .     S
Cu87   N95     2.050   .     S
Cu87   O102    1.952   .     S
Cu87   O98     1.953   .     S
H89    C273    1.087   .     S
H93    C734    1.081   1_554 S
H94    C466    1.085   1_545 S
N95    N161    1.285   .     S
N95    Cl170   1.724   .     S
O106   N161    1.348   .     S
O106   C172    1.404   .     S
C107   H109    1.106   .     S
C107   H108    1.113   .     S
C110   H112    1.109   .     S
C110   H113    1.110   .     S
C110   H111    1.111   .     S
C110   C172    1.521   .     S
C115   H117    1.114   .     S
C115   H116    1.111   .     S
C115   C118    1.519   .     S
C115   O179    1.411   .     S
C118   H120    1.106   .     S
C118   H119    1.111   .     S
C118   H121    1.107   .     S
O122   C123    1.426   .     S
C123   C126    1.523   .     S
C123   H125    1.107   .     S
C123   H124    1.102   .     S
C126   H129    1.107   .     S
C126   H127    1.105   .     S
C126   H128    1.111   .     S
C131   C141    1.433   .     S
C131   O163    1.305   .     A
C131   O162    1.300   .     A
C132   C133    1.408   .     A
C132   C719    1.405   .     S
C132   C735    1.413   .     S
C133   C137    1.421   .     A
C133   C140    1.423   .     A
C134   C138    1.404   .     A
C134   C717    1.405   1_554 S
C134   C720    1.407   1_554 S
C135   C136    1.396   .     A
C135   C719    1.407   .     S
C135   C731    1.397   .     S
C136   C137    1.398   .     A
C136   H155    1.084   .     S
C137   Cl195   1.757   .     S
C138   H157    1.084   .     S
C138   C147    1.393   .     A
C139   C146    1.399   .     A
C139   C147    1.399   .     A
C139   H153    1.077   .     S
C140   C148    1.420   .     A
C140   C142    1.493   .     S
C141   C338    1.336   .     S
C141   H354    1.085   .     S
C142   O165    1.314   .     A
C142   O164    1.317   .     A
C143   C144    1.434   .     S
C143   C531    1.336   1_545 S
C143   H544    1.087   1_545 S
C144   O166    1.304   .     A
C144   O167    1.301   .     A
C145   O168    1.308   .     A
C145   C147    1.465   .     S
C145   O169    1.312   .     A
C146   H156    1.083   .     S
C146   C720    1.397   1_554 S
C148   O179    1.385   .     S
C148   C149    1.410   .     A
C149   C735    1.395   .     S
C149   H678    1.081   .     S
C150   O187    1.393   .     S
C150   C734    1.395   1_554 S
C150   C717    1.413   1_554 S
Cu151  N161    2.050   .     S
Cu151  O166    1.953   .     S
Cu151  Cu152   2.728   .     S
Cu151  O162    1.952   .     S
Cu151  O164    1.916   .     S
Cu151  O168    1.901   .     S
Cu152  O165    1.901   .     S
Cu152  O169    1.916   .     S
Cu152  N160    2.050   .     S
Cu152  O167    1.952   .     S
Cu152  O163    1.953   .     S
H154   C338    1.087   .     S
H158   C604    1.081   1_654 S
H159   C531    1.085   1_545 S
N160   N31     1.285   1_655 S
N160   Cl40    1.724   1_655 S
O171   N31     1.348   1_655 S
O171   C42     1.404   1_655 S
C172   H174    1.106   .     S
C172   H173    1.113   .     S
C175   H177    1.109   .     S
C175   H178    1.110   .     S
C175   H176    1.111   .     S
C175   C42     1.521   1_655 S
C180   H182    1.114   .     S
C180   H181    1.111   .     S
C180   C183    1.519   .     S
C180   O49     1.411   1_655 S
C183   H185    1.106   .     S
C183   H184    1.111   .     S
C183   H186    1.107   .     S
O187   C188    1.426   .     S
C188   C191    1.523   .     S
C188   H190    1.107   .     S
C188   H189    1.102   .     S
C191   H194    1.107   .     S
C191   H192    1.105   .     S
C191   H193    1.111   .     S
C196   C206    1.433   .     S
C196   O228    1.305   .     A
C196   O227    1.300   .     A
C197   C198    1.408   .     A
C197   C784    1.405   .     S
C197   C800    1.413   .     S
C198   C202    1.421   .     A
C198   C205    1.423   .     A
C199   C203    1.404   .     A
C199   C782    1.405   1_554 S
C199   C785    1.407   1_554 S
C200   C201    1.396   .     A
C200   C784    1.407   .     S
C200   C796    1.397   .     S
C201   C202    1.398   .     A
C201   H220    1.084   .     S
C202   Cl260   1.757   .     S
C203   H222    1.084   .     S
C203   C212    1.393   .     A
C204   C211    1.399   .     A
C204   C212    1.399   .     A
C204   H218    1.077   .     S
C205   C213    1.420   .     A
C205   C207    1.493   .     S
C206   C403    1.336   .     S
C206   H419    1.085   .     S
C207   O230    1.314   .     A
C207   O229    1.317   .     A
C208   C209    1.434   .     S
C209   O231    1.304   .     A
C209   O232    1.301   .     A
C210   O233    1.308   .     A
C210   C212    1.465   .     S
C210   O234    1.312   .     A
C211   H221    1.083   .     S
C211   C785    1.397   1_554 S
C213   O244    1.385   .     S
C213   C214    1.410   .     A
C214   C800    1.395   .     S
C214   H938    1.081   1_455 S
C215   O252    1.393   .     S
C215   C799    1.395   1_554 S
C215   C782    1.413   1_554 S
Cu216  N226    2.050   .     S
Cu216  O231    1.953   .     S
Cu216  Cu217   2.728   .     S
Cu216  O227    1.952   .     S
Cu216  O229    1.916   .     S
Cu216  O233    1.901   .     S
Cu217  O230    1.901   .     S
Cu217  O234    1.916   .     S
Cu217  N225    2.050   .     S
Cu217  O232    1.952   .     S
Cu217  O228    1.953   .     S
H219   C403    1.087   .     S
H223   C864    1.081   1_554 S
N225   N291    1.285   .     S
N225   Cl300   1.724   .     S
N226   N355    1.285   1_455 S
N226   O366    1.348   1_455 S
Cl235  N355    1.724   1_455 S
O236   N291    1.348   .     S
O236   C302    1.404   .     S
C237   H239    1.106   .     S
C237   H238    1.113   .     S
C237   O366    1.404   1_455 S
C237   C370    1.521   1_455 S
C240   H242    1.109   .     S
C240   H243    1.110   .     S
C240   H241    1.111   .     S
C240   C302    1.521   .     S
O244   C375    1.411   1_455 S
C245   H247    1.114   .     S
C245   H246    1.111   .     S
C245   C248    1.519   .     S
C245   O309    1.411   .     S
C248   H250    1.106   .     S
C248   H249    1.111   .     S
C248   H251    1.107   .     S
O252   C253    1.426   .     S
C253   C256    1.523   .     S
C253   H255    1.107   .     S
C253   H254    1.102   .     S
C256   H259    1.107   .     S
C256   H257    1.105   .     S
C256   H258    1.111   .     S
C261   C271    1.433   .     S
C261   O293    1.305   .     A
C261   O292    1.300   .     A
C262   C263    1.408   .     A
C262   C849    1.405   .     S
C262   C865    1.413   .     S
C263   C267    1.421   .     A
C263   C270    1.423   .     A
C264   C268    1.404   .     A
C264   C847    1.405   1_554 S
C264   C850    1.407   1_554 S
C265   C266    1.396   .     A
C265   C849    1.407   .     S
C265   C861    1.397   .     S
C266   C267    1.398   .     A
C266   H285    1.084   .     S
C267   Cl325   1.757   .     S
C268   H287    1.084   .     S
C268   C277    1.393   .     A
C269   C276    1.399   .     A
C269   C277    1.399   .     A
C269   H283    1.077   .     S
C270   C278    1.420   .     A
C270   C272    1.493   .     S
C271   C468    1.336   .     S
C271   H484    1.085   .     S
C272   O295    1.314   .     A
C272   O294    1.317   .     A
C273   C274    1.434   .     S
C274   O296    1.304   .     A
C274   O297    1.301   .     A
C275   O298    1.308   .     A
C275   C277    1.465   .     S
C275   O299    1.312   .     A
C276   H286    1.083   .     S
C276   C850    1.397   1_554 S
C278   O309    1.385   .     S
C278   C279    1.410   .     A
C279   C865    1.395   .     S
C279   H808    1.081   .     S
C280   O317    1.393   .     S
C280   C864    1.395   1_554 S
C280   C847    1.413   1_554 S
Cu281  N291    2.050   .     S
Cu281  O296    1.953   .     S
Cu281  Cu282   2.728   .     S
Cu281  O292    1.952   .     S
Cu281  O294    1.916   .     S
Cu281  O298    1.901   .     S
Cu282  O295    1.901   .     S
Cu282  O299    1.916   .     S
Cu282  N290    2.050   .     S
Cu282  O297    1.952   .     S
Cu282  O293    1.953   .     S
H284   C468    1.087   .     S
H288   C929    1.081   1_554 S
N290   N356    1.285   .     S
N290   Cl365   1.724   .     S
O301   N356    1.348   .     S
O301   C367    1.404   .     S
C302   H304    1.106   .     S
C302   H303    1.113   .     S
C305   H307    1.109   .     S
C305   H308    1.110   .     S
C305   H306    1.111   .     S
C305   C367    1.521   .     S
C310   H312    1.114   .     S
C310   H311    1.111   .     S
C310   C313    1.519   .     S
C310   O374    1.411   .     S
C313   H315    1.106   .     S
C313   H314    1.111   .     S
C313   H316    1.107   .     S
O317   C318    1.426   .     S
C318   C321    1.523   .     S
C318   H320    1.107   .     S
C318   H319    1.102   .     S
C321   H324    1.107   .     S
C321   H322    1.105   .     S
C321   H323    1.111   .     S
C326   C336    1.433   .     S
C326   O358    1.305   .     A
C326   O357    1.300   .     A
C327   C328    1.408   .     A
C327   C914    1.405   .     S
C327   C930    1.413   .     S
C328   C332    1.421   .     A
C328   C335    1.423   .     A
C329   C333    1.404   .     A
C329   C912    1.405   1_554 S
C329   C915    1.407   1_554 S
C330   C331    1.396   .     A
C330   C914    1.407   .     S
C330   C926    1.397   .     S
C331   C332    1.398   .     A
C331   H350    1.084   .     S
C332   Cl390   1.757   .     S
C333   H352    1.084   .     S
C333   C342    1.393   .     A
C334   C341    1.399   .     A
C334   C342    1.399   .     A
C334   H348    1.077   .     S
C335   C343    1.420   .     A
C335   C337    1.493   .     S
C336   C533    1.336   .     S
C336   H549    1.085   .     S
C337   O360    1.314   .     A
C337   O359    1.317   .     A
C338   C339    1.434   .     S
C339   O361    1.304   .     A
C339   O362    1.301   .     A
C340   O363    1.308   .     A
C340   C342    1.465   .     S
C340   O364    1.312   .     A
C341   H351    1.083   .     S
C341   C915    1.397   1_554 S
C343   O374    1.385   .     S
C343   C344    1.410   .     A
C344   C930    1.395   .     S
C344   H873    1.081   .     S
C345   O382    1.393   .     S
C345   C929    1.395   1_554 S
C345   C912    1.413   1_554 S
Cu346  N356    2.050   .     S
Cu346  O361    1.953   .     S
Cu346  Cu347   2.728   .     S
Cu346  O357    1.952   .     S
Cu346  O359    1.916   .     S
Cu346  O363    1.901   .     S
Cu347  O360    1.901   .     S
Cu347  O364    1.916   .     S
Cu347  N355    2.050   .     S
Cu347  O362    1.952   .     S
Cu347  O358    1.953   .     S
H349   C533    1.087   .     S
H353   C799    1.081   1_654 S
N355   N226    1.285   1_655 S
N355   Cl235   1.724   1_655 S
O366   N226    1.348   1_655 S
O366   C237    1.404   1_655 S
C367   H369    1.106   .     S
C367   H368    1.113   .     S
C370   H372    1.109   .     S
C370   H373    1.110   .     S
C370   H371    1.111   .     S
C370   C237    1.521   1_655 S
C375   H377    1.114   .     S
C375   H376    1.111   .     S
C375   C378    1.519   .     S
C375   O244    1.411   1_655 S
C378   H380    1.106   .     S
C378   H379    1.111   .     S
C378   H381    1.107   .     S
O382   C383    1.426   .     S
C383   C386    1.523   .     S
C383   H385    1.107   .     S
C383   H384    1.102   .     S
C386   H389    1.107   .     S
C386   H387    1.105   .     S
C386   H388    1.111   .     S
C391   C401    1.433   .     S
C391   O423    1.305   .     A
C391   O422    1.300   .     A
C392   C393    1.408   .     A
C392   C979    1.405   .     S
C392   C995    1.413   .     S
C393   C397    1.421   .     A
C393   C400    1.423   .     A
C394   C398    1.404   .     A
C394   C977    1.405   1_554 S
C394   C980    1.407   1_554 S
C395   C396    1.396   .     A
C395   C979    1.407   .     S
C395   C991    1.397   .     S
C396   C397    1.398   .     A
C396   H415    1.084   .     S
C397   Cl455   1.757   .     S
C398   H417    1.084   .     S
C398   C407    1.393   .     A
C399   C406    1.399   .     A
C399   C407    1.399   .     A
C399   H413    1.077   .     S
C400   C408    1.420   .     A
C400   C402    1.493   .     S
C401   C13     1.336   1_565 S
C401   H29     1.085   1_565 S
C402   O425    1.314   .     A
C402   O424    1.317   .     A
C403   C404    1.434   .     S
C404   O426    1.304   .     A
C404   O427    1.301   .     A
C405   O428    1.308   .     A
C405   C407    1.465   .     S
C405   O429    1.312   .     A
C406   H416    1.083   .     S
C406   C980    1.397   1_554 S
C408   O439    1.385   .     S
C408   C409    1.410   .     A
C409   C995    1.395   .     S
C409   H1133   1.081   1_455 S
C410   O447    1.393   .     S
C410   C994    1.395   1_554 S
C410   C977    1.413   1_554 S
Cu411  N421    2.050   .     S
Cu411  O426    1.953   .     S
Cu411  Cu412   2.728   .     S
Cu411  O422    1.952   .     S
Cu411  O424    1.916   .     S
Cu411  O428    1.901   .     S
Cu412  O425    1.901   .     S
Cu412  O429    1.916   .     S
Cu412  N420    2.050   .     S
Cu412  O427    1.952   .     S
Cu412  O423    1.953   .     S
H414   C13     1.087   1_565 S
H418   C1059   1.081   1_554 S
N420   N486    1.285   .     S
N420   Cl495   1.724   .     S
N421   N550    1.285   1_455 S
N421   O561    1.348   1_455 S
Cl430  N550    1.724   1_455 S
O431   N486    1.348   .     S
O431   C497    1.404   .     S
C432   H434    1.106   .     S
C432   H433    1.113   .     S
C432   O561    1.404   1_455 S
C432   C565    1.521   1_455 S
C435   H437    1.109   .     S
C435   H438    1.110   .     S
C435   H436    1.111   .     S
C435   C497    1.521   .     S
O439   C570    1.411   1_455 S
C440   H442    1.114   .     S
C440   H441    1.111   .     S
C440   C443    1.519   .     S
C440   O504    1.411   .     S
C443   H445    1.106   .     S
C443   H444    1.111   .     S
C443   H446    1.107   .     S
O447   C448    1.426   .     S
C448   C451    1.523   .     S
C448   H450    1.107   .     S
C448   H449    1.102   .     S
C451   H454    1.107   .     S
C451   H452    1.105   .     S
C451   H453    1.111   .     S
C456   C466    1.433   .     S
C456   O488    1.305   .     A
C456   O487    1.300   .     A
C457   C458    1.408   .     A
C457   C1044   1.405   .     S
C457   C1060   1.413   .     S
C458   C462    1.421   .     A
C458   C465    1.423   .     A
C459   C463    1.404   .     A
C459   C1042   1.405   1_554 S
C459   C1045   1.407   1_554 S
C460   C461    1.396   .     A
C460   C1044   1.407   .     S
C460   C1056   1.397   .     S
C461   C462    1.398   .     A
C461   H480    1.084   .     S
C462   Cl520   1.757   .     S
C463   H482    1.084   .     S
C463   C472    1.393   .     A
C464   C471    1.399   .     A
C464   C472    1.399   .     A
C464   H478    1.077   .     S
C465   C473    1.420   .     A
C465   C467    1.493   .     S
C466   C78     1.336   1_565 S
C466   H94     1.085   1_565 S
C467   O490    1.314   .     A
C467   O489    1.317   .     A
C468   C469    1.434   .     S
C469   O491    1.304   .     A
C469   O492    1.301   .     A
C470   O493    1.308   .     A
C470   C472    1.465   .     S
C470   O494    1.312   .     A
C471   H481    1.083   .     S
C471   C1045   1.397   1_554 S
C473   O504    1.385   .     S
C473   C474    1.410   .     A
C474   C1060   1.395   .     S
C474   H1003   1.081   .     S
C475   O512    1.393   .     S
C475   C1059   1.395   1_554 S
C475   C1042   1.413   1_554 S
Cu476  N486    2.050   .     S
Cu476  O491    1.953   .     S
Cu476  Cu477   2.728   .     S
Cu476  O487    1.952   .     S
Cu476  O489    1.916   .     S
Cu476  O493    1.901   .     S
Cu477  O490    1.901   .     S
Cu477  O494    1.916   .     S
Cu477  N485    2.050   .     S
Cu477  O492    1.952   .     S
Cu477  O488    1.953   .     S
H479   C78     1.087   1_565 S
H483   C1124   1.081   1_554 S
N485   N551    1.285   .     S
N485   Cl560   1.724   .     S
O496   N551    1.348   .     S
O496   C562    1.404   .     S
C497   H499    1.106   .     S
C497   H498    1.113   .     S
C500   H502    1.109   .     S
C500   H503    1.110   .     S
C500   H501    1.111   .     S
C500   C562    1.521   .     S
C505   H507    1.114   .     S
C505   H506    1.111   .     S
C505   C508    1.519   .     S
C505   O569    1.411   .     S
C508   H510    1.106   .     S
C508   H509    1.111   .     S
C508   H511    1.107   .     S
O512   C513    1.426   .     S
C513   C516    1.523   .     S
C513   H515    1.107   .     S
C513   H514    1.102   .     S
C516   H519    1.107   .     S
C516   H517    1.105   .     S
C516   H518    1.111   .     S
C521   C531    1.433   .     S
C521   O553    1.305   .     A
C521   O552    1.300   .     A
C522   C523    1.408   .     A
C522   C1109   1.405   .     S
C522   C1125   1.413   .     S
C523   C527    1.421   .     A
C523   C530    1.423   .     A
C524   C528    1.404   .     A
C524   C1107   1.405   1_554 S
C524   C1110   1.407   1_554 S
C525   C526    1.396   .     A
C525   C1109   1.407   .     S
C525   C1121   1.397   .     S
C526   C527    1.398   .     A
C526   H545    1.084   .     S
C527   Cl585   1.757   .     S
C528   H547    1.084   .     S
C528   C537    1.393   .     A
C529   C536    1.399   .     A
C529   C537    1.399   .     A
C529   H543    1.077   .     S
C530   C538    1.420   .     A
C530   C532    1.493   .     S
C531   C143    1.336   1_565 S
C531   H159    1.085   1_565 S
C532   O555    1.314   .     A
C532   O554    1.317   .     A
C533   C534    1.434   .     S
C534   O556    1.304   .     A
C534   O557    1.301   .     A
C535   O558    1.308   .     A
C535   C537    1.465   .     S
C535   O559    1.312   .     A
C536   H546    1.083   .     S
C536   C1110   1.397   1_554 S
C538   O569    1.385   .     S
C538   C539    1.410   .     A
C539   C1125   1.395   .     S
C539   H1068   1.081   .     S
C540   O577    1.393   .     S
C540   C1124   1.395   1_554 S
C540   C1107   1.413   1_554 S
Cu541  N551    2.050   .     S
Cu541  O556    1.953   .     S
Cu541  Cu542   2.728   .     S
Cu541  O552    1.952   .     S
Cu541  O554    1.916   .     S
Cu541  O558    1.901   .     S
Cu542  O555    1.901   .     S
Cu542  O559    1.916   .     S
Cu542  N550    2.050   .     S
Cu542  O557    1.952   .     S
Cu542  O553    1.953   .     S
H544   C143    1.087   1_565 S
H548   C994    1.081   1_654 S
N550   N421    1.285   1_655 S
N550   Cl430   1.724   1_655 S
O561   N421    1.348   1_655 S
O561   C432    1.404   1_655 S
C562   H564    1.106   .     S
C562   H563    1.113   .     S
C565   H567    1.109   .     S
C565   H568    1.110   .     S
C565   H566    1.111   .     S
C565   C432    1.521   1_655 S
C570   H572    1.114   .     S
C570   H571    1.111   .     S
C570   C573    1.519   .     S
C570   O439    1.411   1_655 S
C573   H575    1.106   .     S
C573   H574    1.111   .     S
C573   H576    1.107   .     S
O577   C578    1.426   .     S
C578   C581    1.523   .     S
C578   H580    1.107   .     S
C578   H579    1.102   .     S
C581   H584    1.107   .     S
C581   H582    1.105   .     S
C581   H583    1.111   .     S
C586   C596    1.433   .     S
C586   O618    1.305   .     A
C586   O617    1.300   .     A
C587   C588    1.408   .     A
C587   C4      1.405   1_556 S
C587   C20     1.413   1_556 S
C588   C592    1.421   .     A
C588   C595    1.423   .     A
C589   C593    1.404   .     A
C590   C591    1.396   .     A
C590   C4      1.407   1_556 S
C590   C16     1.397   1_556 S
C591   C592    1.398   .     A
C591   H610    1.084   .     S
C592   Cl650   1.757   .     S
C593   H612    1.084   .     S
C593   C602    1.393   .     A
C594   C601    1.399   .     A
C594   C602    1.399   .     A
C594   H608    1.077   .     S
C595   C603    1.420   .     A
C595   C597    1.493   .     S
C596   C793    1.336   .     S
C596   H809    1.085   .     S
C597   O620    1.314   .     A
C597   O619    1.317   .     A
C598   C599    1.434   .     S
C598   C986    1.336   1_545 S
C598   H999    1.087   1_545 S
C599   O621    1.304   .     A
C599   O622    1.301   .     A
C600   O623    1.308   .     A
C600   C602    1.465   .     S
C600   O624    1.312   .     A
C601   H611    1.083   .     S
C603   O634    1.385   .     S
C603   C604    1.410   .     A
C604   C20     1.395   1_556 S
C604   H158    1.081   1_456 S
C605   O642    1.393   .     S
Cu606  N616    2.050   .     S
Cu606  O621    1.953   .     S
Cu606  Cu607   2.728   .     S
Cu606  O617    1.952   .     S
Cu606  O619    1.916   .     S
Cu606  O623    1.901   .     S
Cu607  O620    1.901   .     S
Cu607  O624    1.916   .     S
Cu607  N615    2.050   .     S
Cu607  O622    1.952   .     S
Cu607  O618    1.953   .     S
H609   C793    1.087   .     S
H614   C986    1.085   1_545 S
N615   N681    1.285   .     S
N615   Cl690   1.724   .     S
N616   N745    1.285   1_455 S
N616   O756    1.348   1_455 S
Cl625  N745    1.724   1_455 S
O626   N681    1.348   .     S
O626   C692    1.404   .     S
C627   H629    1.106   .     S
C627   H628    1.113   .     S
C627   O756    1.404   1_455 S
C627   C760    1.521   1_455 S
C630   H632    1.109   .     S
C630   H633    1.110   .     S
C630   H631    1.111   .     S
C630   C692    1.521   .     S
O634   C765    1.411   1_455 S
C635   H637    1.114   .     S
C635   H636    1.111   .     S
C635   C638    1.519   .     S
C635   O699    1.411   .     S
C638   H640    1.106   .     S
C638   H639    1.111   .     S
C638   H641    1.107   .     S
O642   C643    1.426   .     S
C643   C646    1.523   .     S
C643   H645    1.107   .     S
C643   H644    1.102   .     S
C646   H649    1.107   .     S
C646   H647    1.105   .     S
C646   H648    1.111   .     S
C651   C661    1.433   .     S
C651   O683    1.305   .     A
C651   O682    1.300   .     A
C652   C653    1.408   .     A
C652   C69     1.405   1_556 S
C652   C85     1.413   1_556 S
C653   C657    1.421   .     A
C653   C660    1.423   .     A
C654   C658    1.404   .     A
C655   C656    1.396   .     A
C655   C69     1.407   1_556 S
C655   C81     1.397   1_556 S
C656   C657    1.398   .     A
C656   H675    1.084   .     S
C657   Cl715   1.757   .     S
C658   H677    1.084   .     S
C658   C667    1.393   .     A
C659   C666    1.399   .     A
C659   C667    1.399   .     A
C659   H673    1.077   .     S
C660   C668    1.420   .     A
C660   C662    1.493   .     S
C661   C858    1.336   .     S
C661   H874    1.085   .     S
C662   O685    1.314   .     A
C662   O684    1.317   .     A
C663   C664    1.434   .     S
C663   C1051   1.336   1_545 S
C663   H1064   1.087   1_545 S
C664   O686    1.304   .     A
C664   O687    1.301   .     A
C665   O688    1.308   .     A
C665   C667    1.465   .     S
C665   O689    1.312   .     A
C666   H676    1.083   .     S
C668   O699    1.385   .     S
C668   C669    1.410   .     A
C669   C85     1.395   1_556 S
C669   H28     1.081   1_556 S
C670   O707    1.393   .     S
Cu671  N681    2.050   .     S
Cu671  O686    1.953   .     S
Cu671  Cu672   2.728   .     S
Cu671  O682    1.952   .     S
Cu671  O684    1.916   .     S
Cu671  O688    1.901   .     S
Cu672  O685    1.901   .     S
Cu672  O689    1.916   .     S
Cu672  N680    2.050   .     S
Cu672  O687    1.952   .     S
Cu672  O683    1.953   .     S
H674   C858    1.087   .     S
H679   C1051   1.085   1_545 S
N680   N746    1.285   .     S
N680   Cl755   1.724   .     S
O691   N746    1.348   .     S
O691   C757    1.404   .     S
C692   H694    1.106   .     S
C692   H693    1.113   .     S
C695   H697    1.109   .     S
C695   H698    1.110   .     S
C695   H696    1.111   .     S
C695   C757    1.521   .     S
C700   H702    1.114   .     S
C700   H701    1.111   .     S
C700   C703    1.519   .     S
C700   O764    1.411   .     S
C703   H705    1.106   .     S
C703   H704    1.111   .     S
C703   H706    1.107   .     S
O707   C708    1.426   .     S
C708   C711    1.523   .     S
C708   H710    1.107   .     S
C708   H709    1.102   .     S
C711   H714    1.107   .     S
C711   H712    1.105   .     S
C711   H713    1.111   .     S
C716   C726    1.433   .     S
C716   O748    1.305   .     A
C716   O747    1.300   .     A
C717   C718    1.408   .     A
C717   C134    1.405   1_556 S
C717   C150    1.413   1_556 S
C718   C722    1.421   .     A
C718   C725    1.423   .     A
C719   C723    1.404   .     A
C720   C721    1.396   .     A
C720   C134    1.407   1_556 S
C720   C146    1.397   1_556 S
C721   C722    1.398   .     A
C721   H740    1.084   .     S
C722   Cl780   1.757   .     S
C723   H742    1.084   .     S
C723   C732    1.393   .     A
C724   C731    1.399   .     A
C724   C732    1.399   .     A
C724   H738    1.077   .     S
C725   C733    1.420   .     A
C725   C727    1.493   .     S
C726   C923    1.336   .     S
C726   H939    1.085   .     S
C727   O750    1.314   .     A
C727   O749    1.317   .     A
C728   C729    1.434   .     S
C728   C1116   1.336   1_545 S
C728   H1129   1.087   1_545 S
C729   O751    1.304   .     A
C729   O752    1.301   .     A
C730   O753    1.308   .     A
C730   C732    1.465   .     S
C730   O754    1.312   .     A
C731   H741    1.083   .     S
C733   O764    1.385   .     S
C733   C734    1.410   .     A
C734   C150    1.395   1_556 S
C734   H93     1.081   1_556 S
C735   O772    1.393   .     S
Cu736  N746    2.050   .     S
Cu736  O751    1.953   .     S
Cu736  Cu737   2.728   .     S
Cu736  O747    1.952   .     S
Cu736  O749    1.916   .     S
Cu736  O753    1.901   .     S
Cu737  O750    1.901   .     S
Cu737  O754    1.916   .     S
Cu737  N745    2.050   .     S
Cu737  O752    1.952   .     S
Cu737  O748    1.953   .     S
H739   C923    1.087   .     S
H743   C19     1.081   1_655 S
H744   C1116   1.085   1_545 S
N745   N616    1.285   1_655 S
N745   Cl625   1.724   1_655 S
O756   N616    1.348   1_655 S
O756   C627    1.404   1_655 S
C757   H759    1.106   .     S
C757   H758    1.113   .     S
C760   H762    1.109   .     S
C760   H763    1.110   .     S
C760   H761    1.111   .     S
C760   C627    1.521   1_655 S
C765   H767    1.114   .     S
C765   H766    1.111   .     S
C765   C768    1.519   .     S
C765   O634    1.411   1_655 S
C768   H770    1.106   .     S
C768   H769    1.111   .     S
C768   H771    1.107   .     S
O772   C773    1.426   .     S
C773   C776    1.523   .     S
C773   H775    1.107   .     S
C773   H774    1.102   .     S
C776   H779    1.107   .     S
C776   H777    1.105   .     S
C776   H778    1.111   .     S
C781   C791    1.433   .     S
C781   O813    1.305   .     A
C781   O812    1.300   .     A
C782   C783    1.408   .     A
C782   C199    1.405   1_556 S
C782   C215    1.413   1_556 S
C783   C787    1.421   .     A
C783   C790    1.423   .     A
C784   C788    1.404   .     A
C785   C786    1.396   .     A
C785   C199    1.407   1_556 S
C785   C211    1.397   1_556 S
C786   C787    1.398   .     A
C786   H805    1.084   .     S
C787   Cl845   1.757   .     S
C788   H807    1.084   .     S
C788   C797    1.393   .     A
C789   C796    1.399   .     A
C789   C797    1.399   .     A
C789   H803    1.077   .     S
C790   C798    1.420   .     A
C790   C792    1.493   .     S
C791   C988    1.336   .     S
C791   H1004   1.085   .     S
C792   O815    1.314   .     A
C792   O814    1.317   .     A
C793   C794    1.434   .     S
C794   O816    1.304   .     A
C794   O817    1.301   .     A
C795   O818    1.308   .     A
C795   C797    1.465   .     S
C795   O819    1.312   .     A
C796   H806    1.083   .     S
C798   O829    1.385   .     S
C798   C799    1.410   .     A
C799   C215    1.395   1_556 S
C799   H353    1.081   1_456 S
C800   O837    1.393   .     S
Cu801  N811    2.050   .     S
Cu801  O816    1.953   .     S
Cu801  Cu802   2.728   .     S
Cu801  O812    1.952   .     S
Cu801  O814    1.916   .     S
Cu801  O818    1.901   .     S
Cu802  O815    1.901   .     S
Cu802  O819    1.916   .     S
Cu802  N810    2.050   .     S
Cu802  O817    1.952   .     S
Cu802  O813    1.953   .     S
H804   C988    1.087   .     S
N810   N876    1.285   .     S
N810   Cl885   1.724   .     S
N811   N940    1.285   1_455 S
N811   O951    1.348   1_455 S
Cl820  N940    1.724   1_455 S
O821   N876    1.348   .     S
O821   C887    1.404   .     S
C822   H824    1.106   .     S
C822   H823    1.113   .     S
C822   O951    1.404   1_455 S
C822   C955    1.521   1_455 S
C825   H827    1.109   .     S
C825   H828    1.110   .     S
C825   H826    1.111   .     S
C825   C887    1.521   .     S
O829   C960    1.411   1_455 S
C830   H832    1.114   .     S
C830   H831    1.111   .     S
C830   C833    1.519   .     S
C830   O894    1.411   .     S
C833   H835    1.106   .     S
C833   H834    1.111   .     S
C833   H836    1.107   .     S
O837   C838    1.426   .     S
C838   C841    1.523   .     S
C838   H840    1.107   .     S
C838   H839    1.102   .     S
C841   H844    1.107   .     S
C841   H842    1.105   .     S
C841   H843    1.111   .     S
C846   C856    1.433   .     S
C846   O878    1.305   .     A
C846   O877    1.300   .     A
C847   C848    1.408   .     A
C847   C264    1.405   1_556 S
C847   C280    1.413   1_556 S
C848   C852    1.421   .     A
C848   C855    1.423   .     A
C849   C853    1.404   .     A
C850   C851    1.396   .     A
C850   C264    1.407   1_556 S
C850   C276    1.397   1_556 S
C851   C852    1.398   .     A
C851   H870    1.084   .     S
C852   Cl910   1.757   .     S
C853   H872    1.084   .     S
C853   C862    1.393   .     A
C854   C861    1.399   .     A
C854   C862    1.399   .     A
C854   H868    1.077   .     S
C855   C863    1.420   .     A
C855   C857    1.493   .     S
C856   C1053   1.336   .     S
C856   H1069   1.085   .     S
C857   O880    1.314   .     A
C857   O879    1.317   .     A
C858   C859    1.434   .     S
C859   O881    1.304   .     A
C859   O882    1.301   .     A
C860   O883    1.308   .     A
C860   C862    1.465   .     S
C860   O884    1.312   .     A
C861   H871    1.083   .     S
C863   O894    1.385   .     S
C863   C864    1.410   .     A
C864   C280    1.395   1_556 S
C864   H223    1.081   1_556 S
C865   O902    1.393   .     S
Cu866  N876    2.050   .     S
Cu866  O881    1.953   .     S
Cu866  Cu867   2.728   .     S
Cu866  O877    1.952   .     S
Cu866  O879    1.916   .     S
Cu866  O883    1.901   .     S
Cu867  O880    1.901   .     S
Cu867  O884    1.916   .     S
Cu867  N875    2.050   .     S
Cu867  O882    1.952   .     S
Cu867  O878    1.953   .     S
H869   C1053   1.087   .     S
N875   N941    1.285   .     S
N875   Cl950   1.724   .     S
O886   N941    1.348   .     S
O886   C952    1.404   .     S
C887   H889    1.106   .     S
C887   H888    1.113   .     S
C890   H892    1.109   .     S
C890   H893    1.110   .     S
C890   H891    1.111   .     S
C890   C952    1.521   .     S
C895   H897    1.114   .     S
C895   H896    1.111   .     S
C895   C898    1.519   .     S
C895   O959    1.411   .     S
C898   H900    1.106   .     S
C898   H899    1.111   .     S
C898   H901    1.107   .     S
O902   C903    1.426   .     S
C903   C906    1.523   .     S
C903   H905    1.107   .     S
C903   H904    1.102   .     S
C906   H909    1.107   .     S
C906   H907    1.105   .     S
C906   H908    1.111   .     S
C911   C921    1.433   .     S
C911   O943    1.305   .     A
C911   O942    1.300   .     A
C912   C913    1.408   .     A
C912   C329    1.405   1_556 S
C912   C345    1.413   1_556 S
C913   C917    1.421   .     A
C913   C920    1.423   .     A
C914   C918    1.404   .     A
C915   C916    1.396   .     A
C915   C329    1.407   1_556 S
C915   C341    1.397   1_556 S
C916   C917    1.398   .     A
C916   H935    1.084   .     S
C917   Cl975   1.757   .     S
C918   H937    1.084   .     S
C918   C927    1.393   .     A
C919   C926    1.399   .     A
C919   C927    1.399   .     A
C919   H933    1.077   .     S
C920   C928    1.420   .     A
C920   C922    1.493   .     S
C921   C1118   1.336   .     S
C921   H1134   1.085   .     S
C922   O945    1.314   .     A
C922   O944    1.317   .     A
C923   C924    1.434   .     S
C924   O946    1.304   .     A
C924   O947    1.301   .     A
C925   O948    1.308   .     A
C925   C927    1.465   .     S
C925   O949    1.312   .     A
C926   H936    1.083   .     S
C928   O959    1.385   .     S
C928   C929    1.410   .     A
C929   C345    1.395   1_556 S
C929   H288    1.081   1_556 S
C930   O967    1.393   .     S
Cu931  N941    2.050   .     S
Cu931  O946    1.953   .     S
Cu931  Cu932   2.728   .     S
Cu931  O942    1.952   .     S
Cu931  O944    1.916   .     S
Cu931  O948    1.901   .     S
Cu932  O945    1.901   .     S
Cu932  O949    1.916   .     S
Cu932  N940    2.050   .     S
Cu932  O947    1.952   .     S
Cu932  O943    1.953   .     S
H934   C1118   1.087   .     S
H938   C214    1.081   1_655 S
N940   N811    1.285   1_655 S
N940   Cl820   1.724   1_655 S
O951   N811    1.348   1_655 S
O951   C822    1.404   1_655 S
C952   H954    1.106   .     S
C952   H953    1.113   .     S
C955   H957    1.109   .     S
C955   H958    1.110   .     S
C955   H956    1.111   .     S
C955   C822    1.521   1_655 S
C960   H962    1.114   .     S
C960   H961    1.111   .     S
C960   C963    1.519   .     S
C960   O829    1.411   1_655 S
C963   H965    1.106   .     S
C963   H964    1.111   .     S
C963   H966    1.107   .     S
O967   C968    1.426   .     S
C968   C971    1.523   .     S
C968   H970    1.107   .     S
C968   H969    1.102   .     S
C971   H974    1.107   .     S
C971   H972    1.105   .     S
C971   H973    1.111   .     S
C976   C986    1.433   .     S
C976   O1008   1.305   .     A
C976   O1007   1.300   .     A
C977   C978    1.408   .     A
C977   C394    1.405   1_556 S
C977   C410    1.413   1_556 S
C978   C982    1.421   .     A
C978   C985    1.423   .     A
C979   C983    1.404   .     A
C980   C981    1.396   .     A
C980   C394    1.407   1_556 S
C980   C406    1.397   1_556 S
C981   C982    1.398   .     A
C981   H1000   1.084   .     S
C982   Cl1040  1.757   .     S
C983   H1002   1.084   .     S
C983   C992    1.393   .     A
C984   C991    1.399   .     A
C984   C992    1.399   .     A
C984   H998    1.077   .     S
C985   C993    1.420   .     A
C985   C987    1.493   .     S
C986   C598    1.336   1_565 S
C986   H614    1.085   1_565 S
C987   O1010   1.314   .     A
C987   O1009   1.317   .     A
C988   C989    1.434   .     S
C989   O1011   1.304   .     A
C989   O1012   1.301   .     A
C990   O1013   1.308   .     A
C990   C992    1.465   .     S
C990   O1014   1.312   .     A
C991   H1001   1.083   .     S
C993   O1024   1.385   .     S
C993   C994    1.410   .     A
C994   C410    1.395   1_556 S
C994   H548    1.081   1_456 S
C995   O1032   1.393   .     S
Cu996  N1006   2.050   .     S
Cu996  O1011   1.953   .     S
Cu996  Cu997   2.728   .     S
Cu996  O1007   1.952   .     S
Cu996  O1009   1.916   .     S
Cu996  O1013   1.901   .     S
Cu997  O1010   1.901   .     S
Cu997  O1014   1.916   .     S
Cu997  N1005   2.050   .     S
Cu997  O1012   1.952   .     S
Cu997  O1008   1.953   .     S
H999   C598    1.087   1_565 S
N1005  N1071   1.285   .     S
N1005  Cl1080  1.724   .     S
N1006  N1135   1.285   1_455 S
N1006  O1146   1.348   1_455 S
Cl1015 N1135   1.724   1_455 S
O1016  N1071   1.348   .     S
O1016  C1082   1.404   .     S
C1017  H1019   1.106   .     S
C1017  H1018   1.113   .     S
C1017  O1146   1.404   1_455 S
C1017  C1150   1.521   1_455 S
C1020  H1022   1.109   .     S
C1020  H1023   1.110   .     S
C1020  H1021   1.111   .     S
C1020  C1082   1.521   .     S
O1024  C1155   1.411   1_455 S
C1025  H1027   1.114   .     S
C1025  H1026   1.111   .     S
C1025  C1028   1.519   .     S
C1025  O1089   1.411   .     S
C1028  H1030   1.106   .     S
C1028  H1029   1.111   .     S
C1028  H1031   1.107   .     S
O1032  C1033   1.426   .     S
C1033  C1036   1.523   .     S
C1033  H1035   1.107   .     S
C1033  H1034   1.102   .     S
C1036  H1039   1.107   .     S
C1036  H1037   1.105   .     S
C1036  H1038   1.111   .     S
C1041  C1051   1.433   .     S
C1041  O1073   1.305   .     A
C1041  O1072   1.300   .     A
C1042  C1043   1.408   .     A
C1042  C459    1.405   1_556 S
C1042  C475    1.413   1_556 S
C1043  C1047   1.421   .     A
C1043  C1050   1.423   .     A
C1044  C1048   1.404   .     A
C1045  C1046   1.396   .     A
C1045  C459    1.407   1_556 S
C1045  C471    1.397   1_556 S
C1046  C1047   1.398   .     A
C1046  H1065   1.084   .     S
C1047  Cl1105  1.757   .     S
C1048  H1067   1.084   .     S
C1048  C1057   1.393   .     A
C1049  C1056   1.399   .     A
C1049  C1057   1.399   .     A
C1049  H1063   1.077   .     S
C1050  C1058   1.420   .     A
C1050  C1052   1.493   .     S
C1051  C663    1.336   1_565 S
C1051  H679    1.085   1_565 S
C1052  O1075   1.314   .     A
C1052  O1074   1.317   .     A
C1053  C1054   1.434   .     S
C1054  O1076   1.304   .     A
C1054  O1077   1.301   .     A
C1055  O1078   1.308   .     A
C1055  C1057   1.465   .     S
C1055  O1079   1.312   .     A
C1056  H1066   1.083   .     S
C1058  O1089   1.385   .     S
C1058  C1059   1.410   .     A
C1059  C475    1.395   1_556 S
C1059  H418    1.081   1_556 S
C1060  O1097   1.393   .     S
Cu1061 N1071   2.050   .     S
Cu1061 O1076   1.953   .     S
Cu1061 Cu1062  2.728   .     S
Cu1061 O1072   1.952   .     S
Cu1061 O1074   1.916   .     S
Cu1061 O1078   1.901   .     S
Cu1062 O1075   1.901   .     S
Cu1062 O1079   1.916   .     S
Cu1062 N1070   2.050   .     S
Cu1062 O1077   1.952   .     S
Cu1062 O1073   1.953   .     S
H1064  C663    1.087   1_565 S
N1070  N1136   1.285   .     S
N1070  Cl1145  1.724   .     S
O1081  N1136   1.348   .     S
O1081  C1147   1.404   .     S
C1082  H1084   1.106   .     S
C1082  H1083   1.113   .     S
C1085  H1087   1.109   .     S
C1085  H1088   1.110   .     S
C1085  H1086   1.111   .     S
C1085  C1147   1.521   .     S
C1090  H1092   1.114   .     S
C1090  H1091   1.111   .     S
C1090  C1093   1.519   .     S
C1090  O1154   1.411   .     S
C1093  H1095   1.106   .     S
C1093  H1094   1.111   .     S
C1093  H1096   1.107   .     S
O1097  C1098   1.426   .     S
C1098  C1101   1.523   .     S
C1098  H1100   1.107   .     S
C1098  H1099   1.102   .     S
C1101  H1104   1.107   .     S
C1101  H1102   1.105   .     S
C1101  H1103   1.111   .     S
C1106  C1116   1.433   .     S
C1106  O1138   1.305   .     A
C1106  O1137   1.300   .     A
C1107  C1108   1.408   .     A
C1107  C524    1.405   1_556 S
C1107  C540    1.413   1_556 S
C1108  C1112   1.421   .     A
C1108  C1115   1.423   .     A
C1109  C1113   1.404   .     A
C1110  C1111   1.396   .     A
C1110  C524    1.407   1_556 S
C1110  C536    1.397   1_556 S
C1111  C1112   1.398   .     A
C1111  H1130   1.084   .     S
C1112  Cl1170  1.757   .     S
C1113  H1132   1.084   .     S
C1113  C1122   1.393   .     A
C1114  C1121   1.399   .     A
C1114  C1122   1.399   .     A
C1114  H1128   1.077   .     S
C1115  C1123   1.420   .     A
C1115  C1117   1.493   .     S
C1116  C728    1.336   1_565 S
C1116  H744    1.085   1_565 S
C1117  O1140   1.314   .     A
C1117  O1139   1.317   .     A
C1118  C1119   1.434   .     S
C1119  O1141   1.304   .     A
C1119  O1142   1.301   .     A
C1120  O1143   1.308   .     A
C1120  C1122   1.465   .     S
C1120  O1144   1.312   .     A
C1121  H1131   1.083   .     S
C1123  O1154   1.385   .     S
C1123  C1124   1.410   .     A
C1124  C540    1.395   1_556 S
C1124  H483    1.081   1_556 S
C1125  O1162   1.393   .     S
Cu1126 N1136   2.050   .     S
Cu1126 O1141   1.953   .     S
Cu1126 Cu1127  2.728   .     S
Cu1126 O1137   1.952   .     S
Cu1126 O1139   1.916   .     S
Cu1126 O1143   1.901   .     S
Cu1127 O1140   1.901   .     S
Cu1127 O1144   1.916   .     S
Cu1127 N1135   2.050   .     S
Cu1127 O1142   1.952   .     S
Cu1127 O1138   1.953   .     S
H1129  C728    1.087   1_565 S
H1133  C409    1.081   1_655 S
N1135  N1006   1.285   1_655 S
N1135  Cl1015  1.724   1_655 S
O1146  N1006   1.348   1_655 S
O1146  C1017   1.404   1_655 S
C1147  H1149   1.106   .     S
C1147  H1148   1.113   .     S
C1150  H1152   1.109   .     S
C1150  H1153   1.110   .     S
C1150  H1151   1.111   .     S
C1150  C1017   1.521   1_655 S
C1155  H1157   1.114   .     S
C1155  H1156   1.111   .     S
C1155  C1158   1.519   .     S
C1155  O1024   1.411   1_655 S
C1158  H1160   1.106   .     S
C1158  H1159   1.111   .     S
C1158  H1161   1.107   .     S
O1162  C1163   1.426   .     S
C1163  C1166   1.523   .     S
C1163  H1165   1.107   .     S
C1163  H1164   1.102   .     S
C1166  H1169   1.107   .     S
C1166  H1167   1.105   .     S
C1166  H1168   1.111   .     S
