data_str_m2_o2_o10_pcu_sym.197
_audit_creation_date              2020-01-03
_audit_creation_method            'Materials Studio'
_symmetry_space_group_name_H-M    'P1'
_symmetry_Int_Tables_number       1
_symmetry_cell_setting            triclinic
loop_
_symmetry_equiv_pos_as_xyz
  x,y,z
_cell_length_a                    26.1137
_cell_length_b                    30.1945
_cell_length_c                    27.9300
_cell_angle_alpha                 88.8910
_cell_angle_beta                  96.7271
_cell_angle_gamma                 91.9235
loop_
_atom_site_label
_atom_site_type_symbol
_atom_site_fract_x
_atom_site_fract_y
_atom_site_fract_z
_atom_site_U_iso_or_equiv
_atom_site_adp_type
_atom_site_occupancy
C1     C     0.16653   0.16522   0.25033   0.00000  Uiso   1.00
C2     C     0.16608   0.33502   0.24967   0.00000  Uiso   1.00
C3     C     0.20198   0.27498   0.05632   0.00000  Uiso   1.00
C4     C     0.14316   0.21584   0.44497   0.00000  Uiso   1.00
C5     C     0.20206   0.27545   0.10667   0.00000  Uiso   1.00
C6     C     0.14311   0.21583   0.39459   0.00000  Uiso   1.00
C7     C     0.13013   0.22539   0.10158   0.00000  Uiso   1.00
C8     C     0.18910   0.28466   0.39692   0.00000  Uiso   1.00
C9     C     0.12799   0.22570   0.05074   0.00000  Uiso   1.00
C10    C     0.18805   0.28626   0.44733   0.00000  Uiso   1.00
C11    C     0.16464   0.25067   0.02699   0.00000  Uiso   1.00
C12    C     0.16505   0.25123   0.47258   0.00000  Uiso   1.00
C13    C     0.06811   0.24826   0.23806   0.00000  Uiso   1.00
C14    C     0.26525   0.25070   0.26207   0.00000  Uiso   1.00
C15    C     0.01312   0.24332   0.23244   0.00000  Uiso   1.00
C16    C     0.32033   0.25399   0.26833   0.00000  Uiso   1.00
C17    C     0.20440   0.04860   0.27803   0.00000  Uiso   1.00
C18    C     0.14584   0.45295   0.20813   0.00000  Uiso   1.00
C19    C     0.20469   0.09463   0.27860   0.00000  Uiso   1.00
C20    C     0.14566   0.40688   0.20803   0.00000  Uiso   1.00
C21    C     0.16570   0.11732   0.25081   0.00000  Uiso   1.00
C22    C     0.16493   0.38336   0.24958   0.00000  Uiso   1.00
C23    C     0.12600   0.09416   0.22299   0.00000  Uiso   1.00
C24    C     0.18213   0.40630   0.29191   0.00000  Uiso   1.00
C25    C     0.12483   0.04811   0.22342   0.00000  Uiso   1.00
C26    C     0.18117   0.45223   0.29240   0.00000  Uiso   1.00
C27    C     0.16427   0.02486   0.25062   0.00000  Uiso   1.00
C28    C     0.16372   0.47607   0.25034   0.00000  Uiso   1.00
Cu29   Cu    0.16667   0.25000   0.29822   0.00000  Uiso   1.00
Cu30   Cu    0.16667   0.25001   0.20179   0.00000  Uiso   1.00
H31    H     0.32732   0.23012   0.19895   0.00000  Uiso   1.00
H32    H     0.00608   0.26659   0.30221   0.00000  Uiso   1.00
H33    H     0.23588   0.03170   0.29857   0.00000  Uiso   1.00
H34    H     0.13237   0.47037   0.17505   0.00000  Uiso   1.00
H35    H     0.23567   0.11256   0.29997   0.00000  Uiso   1.00
H36    H     0.12996   0.38973   0.17569   0.00000  Uiso   1.00
H37    H     0.09549   0.11173   0.20174   0.00000  Uiso   1.00
H38    H     0.19650   0.38875   0.32468   0.00000  Uiso   1.00
H39    H     0.09282   0.03080   0.20285   0.00000  Uiso   1.00
H40    H     0.19380   0.46899   0.32583   0.00000  Uiso   1.00
H41    H     0.23161   0.29415   0.04044   0.00000  Uiso   1.00
H42    H     0.12583   0.18765   0.46224   0.00000  Uiso   1.00
H43    H     0.10180   0.20575   0.11869   0.00000  Uiso   1.00
H44    H     0.20756   0.31174   0.37891   0.00000  Uiso   1.00
H45    H     0.09720   0.20675   0.03052   0.00000  Uiso   1.00
H46    H     0.20483   0.31528   0.46590   0.00000  Uiso   1.00
N47    N     0.16667   0.25001   0.12935   0.00000  Uiso   1.00
N48    N     0.16667   0.24999   0.37066   0.00000  Uiso   1.00
O49    O     0.16667   0.18573   0.29072   0.00000  Uiso   1.00
O50    O     0.16666   0.31428   0.20929   0.00000  Uiso   1.00
O51    O     0.16667   0.18573   0.20928   0.00000  Uiso   1.00
O52    O     0.16666   0.31427   0.29072   0.00000  Uiso   1.00
O53    O     0.09161   0.25000   0.28132   0.00000  Uiso   1.00
O54    O     0.24172   0.25001   0.21868   0.00000  Uiso   1.00
O55    O     0.09161   0.25000   0.19989   0.00000  Uiso   1.00
O56    O     0.24172   0.25000   0.30012   0.00000  Uiso   1.00
C57    C     0.24021   0.30637   0.13233   0.00000  Uiso   1.00
C58    C     0.22630   0.34976   0.14061   0.00000  Uiso   1.00
C59    C     0.26334   0.38116   0.15969   0.00000  Uiso   1.00
C60    C     0.31520   0.37018   0.16788   0.00000  Uiso   1.00
C61    C     0.33003   0.32817   0.15589   0.00000  Uiso   1.00
C62    C     0.29276   0.29659   0.13750   0.00000  Uiso   1.00
H63    H     0.18685   0.35934   0.13128   0.00000  Uiso   1.00
H64    H     0.25200   0.41427   0.16706   0.00000  Uiso   1.00
H65    H     0.01070   0.39458   0.18210   0.00000  Uiso   1.00
H66    H     0.03711   0.32035   0.16016   0.00000  Uiso   1.00
H67    H     0.30482   0.26486   0.12621   0.00000  Uiso   1.00
C68    C     0.11510   0.17816   0.36963   0.00000  Uiso   1.00
C69    C     0.13714   0.13621   0.37170   0.00000  Uiso   1.00
C70    C     0.10885   0.09957   0.35157   0.00000  Uiso   1.00
C71    C     0.05827   0.10442   0.32992   0.00000  Uiso   1.00
C72    C     0.03545   0.14565   0.32958   0.00000  Uiso   1.00
C73    C     0.06344   0.18214   0.35031   0.00000  Uiso   1.00
H74    H     0.17624   0.13205   0.38855   0.00000  Uiso   1.00
H75    H     0.12619   0.06746   0.35259   0.00000  Uiso   1.00
H76    H     0.03654   0.07612   0.31407   0.00000  Uiso   1.00
H77    H     0.32917   0.14920   0.31396   0.00000  Uiso   1.00
H78    H     0.04469   0.21327   0.35226   0.00000  Uiso   1.00
C79    C     0.49986   0.16522   0.25033   0.00000  Uiso   1.00
C80    C     0.49942   0.33502   0.24967   0.00000  Uiso   1.00
C81    C     0.53531   0.27498   0.05632   0.00000  Uiso   1.00
C82    C     0.47649   0.21584   0.44497   0.00000  Uiso   1.00
C83    C     0.53540   0.27545   0.10667   0.00000  Uiso   1.00
C84    C     0.47644   0.21583   0.39459   0.00000  Uiso   1.00
C85    C     0.46347   0.22539   0.10158   0.00000  Uiso   1.00
C86    C     0.52244   0.28466   0.39692   0.00000  Uiso   1.00
C87    C     0.46133   0.22570   0.05074   0.00000  Uiso   1.00
C88    C     0.52138   0.28626   0.44733   0.00000  Uiso   1.00
C89    C     0.49797   0.25067   0.02699   0.00000  Uiso   1.00
C90    C     0.49838   0.25123   0.47258   0.00000  Uiso   1.00
C91    C     0.40145   0.24826   0.23806   0.00000  Uiso   1.00
C92    C     0.59858   0.25070   0.26207   0.00000  Uiso   1.00
C93    C     0.34645   0.24332   0.23244   0.00000  Uiso   1.00
C94    C     0.65367   0.25399   0.26833   0.00000  Uiso   1.00
C95    C     0.53773   0.04860   0.27803   0.00000  Uiso   1.00
C96    C     0.47917   0.45295   0.20813   0.00000  Uiso   1.00
C97    C     0.53802   0.09463   0.27860   0.00000  Uiso   1.00
C98    C     0.47900   0.40688   0.20803   0.00000  Uiso   1.00
C99    C     0.49904   0.11732   0.25081   0.00000  Uiso   1.00
C100   C     0.49827   0.38336   0.24958   0.00000  Uiso   1.00
C101   C     0.45933   0.09416   0.22299   0.00000  Uiso   1.00
C102   C     0.51546   0.40630   0.29191   0.00000  Uiso   1.00
C103   C     0.45816   0.04811   0.22342   0.00000  Uiso   1.00
C104   C     0.51450   0.45223   0.29240   0.00000  Uiso   1.00
C105   C     0.49761   0.02486   0.25062   0.00000  Uiso   1.00
C106   C     0.49706   0.47607   0.25034   0.00000  Uiso   1.00
Cu107  Cu    0.50000   0.25000   0.29822   0.00000  Uiso   1.00
Cu108  Cu    0.50000   0.25001   0.20179   0.00000  Uiso   1.00
H109   H     0.66066   0.23012   0.19895   0.00000  Uiso   1.00
H110   H     0.33941   0.26659   0.30221   0.00000  Uiso   1.00
H111   H     0.56922   0.03170   0.29857   0.00000  Uiso   1.00
H112   H     0.46570   0.47037   0.17505   0.00000  Uiso   1.00
H113   H     0.56900   0.11256   0.29997   0.00000  Uiso   1.00
H114   H     0.46330   0.38973   0.17569   0.00000  Uiso   1.00
H115   H     0.42882   0.11173   0.20174   0.00000  Uiso   1.00
H116   H     0.52983   0.38875   0.32468   0.00000  Uiso   1.00
H117   H     0.42616   0.03080   0.20285   0.00000  Uiso   1.00
H118   H     0.52713   0.46899   0.32583   0.00000  Uiso   1.00
H119   H     0.56495   0.29415   0.04044   0.00000  Uiso   1.00
H120   H     0.45916   0.18765   0.46224   0.00000  Uiso   1.00
H121   H     0.43513   0.20575   0.11869   0.00000  Uiso   1.00
H122   H     0.54089   0.31174   0.37891   0.00000  Uiso   1.00
H123   H     0.43053   0.20675   0.03052   0.00000  Uiso   1.00
H124   H     0.53817   0.31528   0.46590   0.00000  Uiso   1.00
N125   N     0.50000   0.25001   0.12935   0.00000  Uiso   1.00
N126   N     0.50000   0.24999   0.37066   0.00000  Uiso   1.00
O127   O     0.50000   0.18573   0.29072   0.00000  Uiso   1.00
O128   O     0.50000   0.31428   0.20929   0.00000  Uiso   1.00
O129   O     0.50000   0.18573   0.20928   0.00000  Uiso   1.00
O130   O     0.50000   0.31427   0.29072   0.00000  Uiso   1.00
O131   O     0.42495   0.25000   0.28132   0.00000  Uiso   1.00
O132   O     0.57505   0.25001   0.21868   0.00000  Uiso   1.00
O133   O     0.42495   0.25000   0.19989   0.00000  Uiso   1.00
O134   O     0.57505   0.25000   0.30012   0.00000  Uiso   1.00
C135   C     0.57355   0.30637   0.13233   0.00000  Uiso   1.00
C136   C     0.55963   0.34976   0.14061   0.00000  Uiso   1.00
C137   C     0.59667   0.38116   0.15969   0.00000  Uiso   1.00
C138   C     0.64853   0.37018   0.16788   0.00000  Uiso   1.00
C139   C     0.66336   0.32817   0.15589   0.00000  Uiso   1.00
C140   C     0.62609   0.29659   0.13750   0.00000  Uiso   1.00
H141   H     0.52018   0.35934   0.13128   0.00000  Uiso   1.00
H142   H     0.58534   0.41427   0.16706   0.00000  Uiso   1.00
H143   H     0.34403   0.39458   0.18210   0.00000  Uiso   1.00
H144   H     0.37045   0.32035   0.16016   0.00000  Uiso   1.00
H145   H     0.63816   0.26486   0.12621   0.00000  Uiso   1.00
C146   C     0.44844   0.17816   0.36963   0.00000  Uiso   1.00
C147   C     0.47048   0.13621   0.37170   0.00000  Uiso   1.00
C148   C     0.44218   0.09957   0.35157   0.00000  Uiso   1.00
C149   C     0.39161   0.10442   0.32992   0.00000  Uiso   1.00
C150   C     0.36878   0.14565   0.32958   0.00000  Uiso   1.00
C151   C     0.39677   0.18214   0.35031   0.00000  Uiso   1.00
H152   H     0.50957   0.13205   0.38855   0.00000  Uiso   1.00
H153   H     0.45953   0.06746   0.35259   0.00000  Uiso   1.00
H154   H     0.36988   0.07612   0.31407   0.00000  Uiso   1.00
H155   H     0.66251   0.14920   0.31396   0.00000  Uiso   1.00
H156   H     0.37802   0.21327   0.35226   0.00000  Uiso   1.00
C157   C     0.83319   0.16522   0.25033   0.00000  Uiso   1.00
C158   C     0.83275   0.33502   0.24967   0.00000  Uiso   1.00
C159   C     0.86865   0.27498   0.05632   0.00000  Uiso   1.00
C160   C     0.80983   0.21584   0.44497   0.00000  Uiso   1.00
C161   C     0.86873   0.27545   0.10667   0.00000  Uiso   1.00
C162   C     0.80977   0.21583   0.39459   0.00000  Uiso   1.00
C163   C     0.79680   0.22539   0.10158   0.00000  Uiso   1.00
C164   C     0.85577   0.28466   0.39692   0.00000  Uiso   1.00
C165   C     0.79466   0.22570   0.05074   0.00000  Uiso   1.00
C166   C     0.85472   0.28626   0.44733   0.00000  Uiso   1.00
C167   C     0.83130   0.25067   0.02699   0.00000  Uiso   1.00
C168   C     0.83172   0.25123   0.47258   0.00000  Uiso   1.00
C169   C     0.73478   0.24826   0.23806   0.00000  Uiso   1.00
C170   C     0.93192   0.25070   0.26207   0.00000  Uiso   1.00
C171   C     0.67978   0.24332   0.23244   0.00000  Uiso   1.00
C172   C     0.98700   0.25399   0.26833   0.00000  Uiso   1.00
C173   C     0.87106   0.04860   0.27803   0.00000  Uiso   1.00
C174   C     0.81250   0.45295   0.20813   0.00000  Uiso   1.00
C175   C     0.87135   0.09463   0.27860   0.00000  Uiso   1.00
C176   C     0.81233   0.40688   0.20803   0.00000  Uiso   1.00
C177   C     0.83237   0.11732   0.25081   0.00000  Uiso   1.00
C178   C     0.83160   0.38336   0.24958   0.00000  Uiso   1.00
C179   C     0.79267   0.09416   0.22299   0.00000  Uiso   1.00
C180   C     0.84880   0.40630   0.29191   0.00000  Uiso   1.00
C181   C     0.79149   0.04811   0.22342   0.00000  Uiso   1.00
C182   C     0.84783   0.45223   0.29240   0.00000  Uiso   1.00
C183   C     0.83094   0.02486   0.25062   0.00000  Uiso   1.00
C184   C     0.83039   0.47607   0.25034   0.00000  Uiso   1.00
Cu185  Cu    0.83333   0.25000   0.29822   0.00000  Uiso   1.00
Cu186  Cu    0.83333   0.25001   0.20179   0.00000  Uiso   1.00
H187   H     0.99399   0.23012   0.19895   0.00000  Uiso   1.00
H188   H     0.67274   0.26659   0.30221   0.00000  Uiso   1.00
H189   H     0.90255   0.03170   0.29857   0.00000  Uiso   1.00
H190   H     0.79903   0.47037   0.17505   0.00000  Uiso   1.00
H191   H     0.90233   0.11256   0.29997   0.00000  Uiso   1.00
H192   H     0.79663   0.38973   0.17569   0.00000  Uiso   1.00
H193   H     0.76215   0.11173   0.20174   0.00000  Uiso   1.00
H194   H     0.86317   0.38875   0.32468   0.00000  Uiso   1.00
H195   H     0.75949   0.03080   0.20285   0.00000  Uiso   1.00
H196   H     0.86047   0.46899   0.32583   0.00000  Uiso   1.00
H197   H     0.89828   0.29415   0.04044   0.00000  Uiso   1.00
H198   H     0.79249   0.18765   0.46224   0.00000  Uiso   1.00
H199   H     0.76846   0.20575   0.11869   0.00000  Uiso   1.00
H200   H     0.87423   0.31174   0.37891   0.00000  Uiso   1.00
H201   H     0.76386   0.20675   0.03052   0.00000  Uiso   1.00
H202   H     0.87150   0.31528   0.46590   0.00000  Uiso   1.00
N203   N     0.83333   0.25001   0.12935   0.00000  Uiso   1.00
N204   N     0.83333   0.24999   0.37066   0.00000  Uiso   1.00
O205   O     0.83334   0.18573   0.29072   0.00000  Uiso   1.00
O206   O     0.83333   0.31428   0.20929   0.00000  Uiso   1.00
O207   O     0.83334   0.18573   0.20928   0.00000  Uiso   1.00
O208   O     0.83333   0.31427   0.29072   0.00000  Uiso   1.00
O209   O     0.75828   0.25000   0.28132   0.00000  Uiso   1.00
O210   O     0.90839   0.25001   0.21868   0.00000  Uiso   1.00
O211   O     0.75828   0.25000   0.19989   0.00000  Uiso   1.00
O212   O     0.90839   0.25000   0.30012   0.00000  Uiso   1.00
C213   C     0.90688   0.30637   0.13233   0.00000  Uiso   1.00
C214   C     0.89296   0.34976   0.14061   0.00000  Uiso   1.00
C215   C     0.93001   0.38116   0.15969   0.00000  Uiso   1.00
C216   C     0.98186   0.37018   0.16788   0.00000  Uiso   1.00
C217   C     0.99669   0.32817   0.15589   0.00000  Uiso   1.00
C218   C     0.95943   0.29659   0.13750   0.00000  Uiso   1.00
H219   H     0.85352   0.35934   0.13128   0.00000  Uiso   1.00
H220   H     0.91867   0.41427   0.16706   0.00000  Uiso   1.00
H221   H     0.67736   0.39458   0.18210   0.00000  Uiso   1.00
H222   H     0.70378   0.32035   0.16016   0.00000  Uiso   1.00
H223   H     0.97149   0.26486   0.12621   0.00000  Uiso   1.00
C224   C     0.78177   0.17816   0.36963   0.00000  Uiso   1.00
C225   C     0.80381   0.13621   0.37170   0.00000  Uiso   1.00
C226   C     0.77552   0.09957   0.35157   0.00000  Uiso   1.00
C227   C     0.72494   0.10442   0.32992   0.00000  Uiso   1.00
C228   C     0.70211   0.14565   0.32958   0.00000  Uiso   1.00
C229   C     0.73010   0.18214   0.35031   0.00000  Uiso   1.00
H230   H     0.84290   0.13205   0.38855   0.00000  Uiso   1.00
H231   H     0.79286   0.06746   0.35259   0.00000  Uiso   1.00
H232   H     0.70321   0.07612   0.31407   0.00000  Uiso   1.00
H233   H     0.99584   0.14920   0.31396   0.00000  Uiso   1.00
H234   H     0.71135   0.21327   0.35226   0.00000  Uiso   1.00
C235   C     0.16653   0.66522   0.25033   0.00000  Uiso   1.00
C236   C     0.16608   0.83502   0.24967   0.00000  Uiso   1.00
C237   C     0.20198   0.77498   0.05632   0.00000  Uiso   1.00
C238   C     0.14316   0.71584   0.44497   0.00000  Uiso   1.00
C239   C     0.20206   0.77545   0.10667   0.00000  Uiso   1.00
C240   C     0.14311   0.71583   0.39459   0.00000  Uiso   1.00
C241   C     0.13013   0.72539   0.10158   0.00000  Uiso   1.00
C242   C     0.18910   0.78466   0.39692   0.00000  Uiso   1.00
C243   C     0.12799   0.72570   0.05074   0.00000  Uiso   1.00
C244   C     0.18805   0.78626   0.44733   0.00000  Uiso   1.00
C245   C     0.16464   0.75067   0.02699   0.00000  Uiso   1.00
C246   C     0.16505   0.75123   0.47258   0.00000  Uiso   1.00
C247   C     0.06811   0.74826   0.23806   0.00000  Uiso   1.00
C248   C     0.26525   0.75070   0.26207   0.00000  Uiso   1.00
C249   C     0.01312   0.74332   0.23244   0.00000  Uiso   1.00
C250   C     0.32033   0.75399   0.26833   0.00000  Uiso   1.00
C251   C     0.20440   0.54860   0.27803   0.00000  Uiso   1.00
C252   C     0.14584   0.95295   0.20813   0.00000  Uiso   1.00
C253   C     0.20469   0.59463   0.27860   0.00000  Uiso   1.00
C254   C     0.14566   0.90688   0.20803   0.00000  Uiso   1.00
C255   C     0.16570   0.61732   0.25081   0.00000  Uiso   1.00
C256   C     0.16493   0.88336   0.24958   0.00000  Uiso   1.00
C257   C     0.12600   0.59416   0.22299   0.00000  Uiso   1.00
C258   C     0.18213   0.90630   0.29191   0.00000  Uiso   1.00
C259   C     0.12483   0.54811   0.22342   0.00000  Uiso   1.00
C260   C     0.18117   0.95223   0.29240   0.00000  Uiso   1.00
C261   C     0.16427   0.52486   0.25062   0.00000  Uiso   1.00
C262   C     0.16372   0.97607   0.25034   0.00000  Uiso   1.00
Cu263  Cu    0.16667   0.75000   0.29822   0.00000  Uiso   1.00
Cu264  Cu    0.16667   0.75001   0.20179   0.00000  Uiso   1.00
H265   H     0.32732   0.73012   0.19895   0.00000  Uiso   1.00
H266   H     0.00608   0.76659   0.30221   0.00000  Uiso   1.00
H267   H     0.23588   0.53170   0.29857   0.00000  Uiso   1.00
H268   H     0.13237   0.97037   0.17505   0.00000  Uiso   1.00
H269   H     0.23567   0.61256   0.29997   0.00000  Uiso   1.00
H270   H     0.12996   0.88973   0.17569   0.00000  Uiso   1.00
H271   H     0.09549   0.61173   0.20174   0.00000  Uiso   1.00
H272   H     0.19650   0.88875   0.32468   0.00000  Uiso   1.00
H273   H     0.09282   0.53080   0.20285   0.00000  Uiso   1.00
H274   H     0.19380   0.96899   0.32583   0.00000  Uiso   1.00
H275   H     0.23161   0.79415   0.04044   0.00000  Uiso   1.00
H276   H     0.12583   0.68765   0.46224   0.00000  Uiso   1.00
H277   H     0.10180   0.70575   0.11869   0.00000  Uiso   1.00
H278   H     0.20756   0.81174   0.37891   0.00000  Uiso   1.00
H279   H     0.09720   0.70675   0.03052   0.00000  Uiso   1.00
H280   H     0.20483   0.81528   0.46590   0.00000  Uiso   1.00
N281   N     0.16667   0.75001   0.12935   0.00000  Uiso   1.00
N282   N     0.16667   0.74999   0.37066   0.00000  Uiso   1.00
O283   O     0.16667   0.68573   0.29072   0.00000  Uiso   1.00
O284   O     0.16666   0.81428   0.20929   0.00000  Uiso   1.00
O285   O     0.16667   0.68573   0.20928   0.00000  Uiso   1.00
O286   O     0.16666   0.81427   0.29072   0.00000  Uiso   1.00
O287   O     0.09161   0.75000   0.28132   0.00000  Uiso   1.00
O288   O     0.24172   0.75001   0.21868   0.00000  Uiso   1.00
O289   O     0.09161   0.75000   0.19989   0.00000  Uiso   1.00
O290   O     0.24172   0.75000   0.30012   0.00000  Uiso   1.00
C291   C     0.24021   0.80637   0.13233   0.00000  Uiso   1.00
C292   C     0.22630   0.84976   0.14061   0.00000  Uiso   1.00
C293   C     0.26334   0.88116   0.15969   0.00000  Uiso   1.00
C294   C     0.31520   0.87018   0.16788   0.00000  Uiso   1.00
C295   C     0.33003   0.82817   0.15589   0.00000  Uiso   1.00
C296   C     0.29276   0.79659   0.13750   0.00000  Uiso   1.00
H297   H     0.18685   0.85934   0.13128   0.00000  Uiso   1.00
H298   H     0.25200   0.91427   0.16706   0.00000  Uiso   1.00
H299   H     0.01070   0.89458   0.18210   0.00000  Uiso   1.00
H300   H     0.03711   0.82035   0.16016   0.00000  Uiso   1.00
H301   H     0.30482   0.76486   0.12621   0.00000  Uiso   1.00
C302   C     0.11510   0.67816   0.36963   0.00000  Uiso   1.00
C303   C     0.13714   0.63621   0.37170   0.00000  Uiso   1.00
C304   C     0.10885   0.59957   0.35157   0.00000  Uiso   1.00
C305   C     0.05827   0.60442   0.32992   0.00000  Uiso   1.00
C306   C     0.03545   0.64565   0.32958   0.00000  Uiso   1.00
C307   C     0.06344   0.68214   0.35031   0.00000  Uiso   1.00
H308   H     0.17624   0.63205   0.38855   0.00000  Uiso   1.00
H309   H     0.12619   0.56746   0.35259   0.00000  Uiso   1.00
H310   H     0.03654   0.57612   0.31407   0.00000  Uiso   1.00
H311   H     0.32917   0.64920   0.31396   0.00000  Uiso   1.00
H312   H     0.04469   0.71327   0.35226   0.00000  Uiso   1.00
C313   C     0.49986   0.66522   0.25033   0.00000  Uiso   1.00
C314   C     0.49942   0.83502   0.24967   0.00000  Uiso   1.00
C315   C     0.53531   0.77498   0.05632   0.00000  Uiso   1.00
C316   C     0.47649   0.71584   0.44497   0.00000  Uiso   1.00
C317   C     0.53540   0.77545   0.10667   0.00000  Uiso   1.00
C318   C     0.47644   0.71583   0.39459   0.00000  Uiso   1.00
C319   C     0.46347   0.72539   0.10158   0.00000  Uiso   1.00
C320   C     0.52244   0.78466   0.39692   0.00000  Uiso   1.00
C321   C     0.46133   0.72570   0.05074   0.00000  Uiso   1.00
C322   C     0.52138   0.78626   0.44733   0.00000  Uiso   1.00
C323   C     0.49797   0.75067   0.02699   0.00000  Uiso   1.00
C324   C     0.49838   0.75123   0.47258   0.00000  Uiso   1.00
C325   C     0.40145   0.74826   0.23806   0.00000  Uiso   1.00
C326   C     0.59858   0.75070   0.26207   0.00000  Uiso   1.00
C327   C     0.34645   0.74332   0.23244   0.00000  Uiso   1.00
C328   C     0.65367   0.75399   0.26833   0.00000  Uiso   1.00
C329   C     0.53773   0.54860   0.27803   0.00000  Uiso   1.00
C330   C     0.47917   0.95295   0.20813   0.00000  Uiso   1.00
C331   C     0.53802   0.59463   0.27860   0.00000  Uiso   1.00
C332   C     0.47900   0.90688   0.20803   0.00000  Uiso   1.00
C333   C     0.49904   0.61732   0.25081   0.00000  Uiso   1.00
C334   C     0.49827   0.88336   0.24958   0.00000  Uiso   1.00
C335   C     0.45933   0.59416   0.22299   0.00000  Uiso   1.00
C336   C     0.51546   0.90630   0.29191   0.00000  Uiso   1.00
C337   C     0.45816   0.54811   0.22342   0.00000  Uiso   1.00
C338   C     0.51450   0.95223   0.29240   0.00000  Uiso   1.00
C339   C     0.49761   0.52486   0.25062   0.00000  Uiso   1.00
C340   C     0.49706   0.97607   0.25034   0.00000  Uiso   1.00
Cu341  Cu    0.50000   0.75000   0.29822   0.00000  Uiso   1.00
Cu342  Cu    0.50000   0.75001   0.20179   0.00000  Uiso   1.00
H343   H     0.66066   0.73012   0.19895   0.00000  Uiso   1.00
H344   H     0.33941   0.76659   0.30221   0.00000  Uiso   1.00
H345   H     0.56922   0.53170   0.29857   0.00000  Uiso   1.00
H346   H     0.46570   0.97037   0.17505   0.00000  Uiso   1.00
H347   H     0.56900   0.61256   0.29997   0.00000  Uiso   1.00
H348   H     0.46330   0.88973   0.17569   0.00000  Uiso   1.00
H349   H     0.42882   0.61173   0.20174   0.00000  Uiso   1.00
H350   H     0.52983   0.88875   0.32468   0.00000  Uiso   1.00
H351   H     0.42616   0.53080   0.20285   0.00000  Uiso   1.00
H352   H     0.52713   0.96899   0.32583   0.00000  Uiso   1.00
H353   H     0.56495   0.79415   0.04044   0.00000  Uiso   1.00
H354   H     0.45916   0.68765   0.46224   0.00000  Uiso   1.00
H355   H     0.43513   0.70575   0.11869   0.00000  Uiso   1.00
H356   H     0.54089   0.81174   0.37891   0.00000  Uiso   1.00
H357   H     0.43053   0.70675   0.03052   0.00000  Uiso   1.00
H358   H     0.53817   0.81528   0.46590   0.00000  Uiso   1.00
N359   N     0.50000   0.75001   0.12935   0.00000  Uiso   1.00
N360   N     0.50000   0.74999   0.37066   0.00000  Uiso   1.00
O361   O     0.50000   0.68573   0.29072   0.00000  Uiso   1.00
O362   O     0.50000   0.81428   0.20929   0.00000  Uiso   1.00
O363   O     0.50000   0.68573   0.20928   0.00000  Uiso   1.00
O364   O     0.50000   0.81427   0.29072   0.00000  Uiso   1.00
O365   O     0.42495   0.75000   0.28132   0.00000  Uiso   1.00
O366   O     0.57505   0.75001   0.21868   0.00000  Uiso   1.00
O367   O     0.42495   0.75000   0.19989   0.00000  Uiso   1.00
O368   O     0.57505   0.75000   0.30012   0.00000  Uiso   1.00
C369   C     0.57355   0.80637   0.13233   0.00000  Uiso   1.00
C370   C     0.55963   0.84976   0.14061   0.00000  Uiso   1.00
C371   C     0.59667   0.88116   0.15969   0.00000  Uiso   1.00
C372   C     0.64853   0.87018   0.16788   0.00000  Uiso   1.00
C373   C     0.66336   0.82817   0.15589   0.00000  Uiso   1.00
C374   C     0.62609   0.79659   0.13750   0.00000  Uiso   1.00
H375   H     0.52018   0.85934   0.13128   0.00000  Uiso   1.00
H376   H     0.58534   0.91427   0.16706   0.00000  Uiso   1.00
H377   H     0.34403   0.89458   0.18210   0.00000  Uiso   1.00
H378   H     0.37045   0.82035   0.16016   0.00000  Uiso   1.00
H379   H     0.63816   0.76486   0.12621   0.00000  Uiso   1.00
C380   C     0.44844   0.67816   0.36963   0.00000  Uiso   1.00
C381   C     0.47048   0.63621   0.37170   0.00000  Uiso   1.00
C382   C     0.44218   0.59957   0.35157   0.00000  Uiso   1.00
C383   C     0.39161   0.60442   0.32992   0.00000  Uiso   1.00
C384   C     0.36878   0.64565   0.32958   0.00000  Uiso   1.00
C385   C     0.39677   0.68214   0.35031   0.00000  Uiso   1.00
H386   H     0.50957   0.63205   0.38855   0.00000  Uiso   1.00
H387   H     0.45953   0.56746   0.35259   0.00000  Uiso   1.00
H388   H     0.36988   0.57612   0.31407   0.00000  Uiso   1.00
H389   H     0.66251   0.64920   0.31396   0.00000  Uiso   1.00
H390   H     0.37802   0.71327   0.35226   0.00000  Uiso   1.00
C391   C     0.83319   0.66522   0.25033   0.00000  Uiso   1.00
C392   C     0.83275   0.83502   0.24967   0.00000  Uiso   1.00
C393   C     0.86865   0.77498   0.05632   0.00000  Uiso   1.00
C394   C     0.80983   0.71584   0.44497   0.00000  Uiso   1.00
C395   C     0.86873   0.77545   0.10667   0.00000  Uiso   1.00
C396   C     0.80977   0.71583   0.39459   0.00000  Uiso   1.00
C397   C     0.79680   0.72539   0.10158   0.00000  Uiso   1.00
C398   C     0.85577   0.78466   0.39692   0.00000  Uiso   1.00
C399   C     0.79466   0.72570   0.05074   0.00000  Uiso   1.00
C400   C     0.85472   0.78626   0.44733   0.00000  Uiso   1.00
C401   C     0.83130   0.75067   0.02699   0.00000  Uiso   1.00
C402   C     0.83172   0.75123   0.47258   0.00000  Uiso   1.00
C403   C     0.73478   0.74826   0.23806   0.00000  Uiso   1.00
C404   C     0.93192   0.75070   0.26207   0.00000  Uiso   1.00
C405   C     0.67978   0.74332   0.23244   0.00000  Uiso   1.00
C406   C     0.98700   0.75399   0.26833   0.00000  Uiso   1.00
C407   C     0.87106   0.54860   0.27803   0.00000  Uiso   1.00
C408   C     0.81250   0.95295   0.20813   0.00000  Uiso   1.00
C409   C     0.87135   0.59463   0.27860   0.00000  Uiso   1.00
C410   C     0.81233   0.90688   0.20803   0.00000  Uiso   1.00
C411   C     0.83237   0.61732   0.25081   0.00000  Uiso   1.00
C412   C     0.83160   0.88336   0.24958   0.00000  Uiso   1.00
C413   C     0.79267   0.59416   0.22299   0.00000  Uiso   1.00
C414   C     0.84880   0.90630   0.29191   0.00000  Uiso   1.00
C415   C     0.79149   0.54811   0.22342   0.00000  Uiso   1.00
C416   C     0.84783   0.95223   0.29240   0.00000  Uiso   1.00
C417   C     0.83094   0.52486   0.25062   0.00000  Uiso   1.00
C418   C     0.83039   0.97607   0.25034   0.00000  Uiso   1.00
Cu419  Cu    0.83333   0.75000   0.29822   0.00000  Uiso   1.00
Cu420  Cu    0.83333   0.75001   0.20179   0.00000  Uiso   1.00
H421   H     0.99399   0.73012   0.19895   0.00000  Uiso   1.00
H422   H     0.67274   0.76659   0.30221   0.00000  Uiso   1.00
H423   H     0.90255   0.53170   0.29857   0.00000  Uiso   1.00
H424   H     0.79903   0.97037   0.17505   0.00000  Uiso   1.00
H425   H     0.90233   0.61256   0.29997   0.00000  Uiso   1.00
H426   H     0.79663   0.88973   0.17569   0.00000  Uiso   1.00
H427   H     0.76215   0.61173   0.20174   0.00000  Uiso   1.00
H428   H     0.86317   0.88875   0.32468   0.00000  Uiso   1.00
H429   H     0.75949   0.53080   0.20285   0.00000  Uiso   1.00
H430   H     0.86047   0.96899   0.32583   0.00000  Uiso   1.00
H431   H     0.89828   0.79415   0.04044   0.00000  Uiso   1.00
H432   H     0.79249   0.68765   0.46224   0.00000  Uiso   1.00
H433   H     0.76846   0.70575   0.11869   0.00000  Uiso   1.00
H434   H     0.87423   0.81174   0.37891   0.00000  Uiso   1.00
H435   H     0.76386   0.70675   0.03052   0.00000  Uiso   1.00
H436   H     0.87150   0.81528   0.46590   0.00000  Uiso   1.00
N437   N     0.83333   0.75001   0.12935   0.00000  Uiso   1.00
N438   N     0.83333   0.74999   0.37066   0.00000  Uiso   1.00
O439   O     0.83334   0.68573   0.29072   0.00000  Uiso   1.00
O440   O     0.83333   0.81428   0.20929   0.00000  Uiso   1.00
O441   O     0.83334   0.68573   0.20928   0.00000  Uiso   1.00
O442   O     0.83333   0.81427   0.29072   0.00000  Uiso   1.00
O443   O     0.75828   0.75000   0.28132   0.00000  Uiso   1.00
O444   O     0.90839   0.75001   0.21868   0.00000  Uiso   1.00
O445   O     0.75828   0.75000   0.19989   0.00000  Uiso   1.00
O446   O     0.90839   0.75000   0.30012   0.00000  Uiso   1.00
C447   C     0.90688   0.80637   0.13233   0.00000  Uiso   1.00
C448   C     0.89296   0.84976   0.14061   0.00000  Uiso   1.00
C449   C     0.93001   0.88116   0.15969   0.00000  Uiso   1.00
C450   C     0.98186   0.87018   0.16788   0.00000  Uiso   1.00
C451   C     0.99669   0.82817   0.15589   0.00000  Uiso   1.00
C452   C     0.95943   0.79659   0.13750   0.00000  Uiso   1.00
H453   H     0.85352   0.85934   0.13128   0.00000  Uiso   1.00
H454   H     0.91867   0.91427   0.16706   0.00000  Uiso   1.00
H455   H     0.67736   0.89458   0.18210   0.00000  Uiso   1.00
H456   H     0.70378   0.82035   0.16016   0.00000  Uiso   1.00
H457   H     0.97149   0.76486   0.12621   0.00000  Uiso   1.00
C458   C     0.78177   0.67816   0.36963   0.00000  Uiso   1.00
C459   C     0.80381   0.63621   0.37170   0.00000  Uiso   1.00
C460   C     0.77552   0.59957   0.35157   0.00000  Uiso   1.00
C461   C     0.72494   0.60442   0.32992   0.00000  Uiso   1.00
C462   C     0.70211   0.64565   0.32958   0.00000  Uiso   1.00
C463   C     0.73010   0.68214   0.35031   0.00000  Uiso   1.00
H464   H     0.84290   0.63205   0.38855   0.00000  Uiso   1.00
H465   H     0.79286   0.56746   0.35259   0.00000  Uiso   1.00
H466   H     0.70321   0.57612   0.31407   0.00000  Uiso   1.00
H467   H     0.99584   0.64920   0.31396   0.00000  Uiso   1.00
H468   H     0.71135   0.71327   0.35226   0.00000  Uiso   1.00
C469   C     0.16653   0.16522   0.75033   0.00000  Uiso   1.00
C470   C     0.16608   0.33502   0.74967   0.00000  Uiso   1.00
C471   C     0.20198   0.27498   0.55632   0.00000  Uiso   1.00
C472   C     0.14316   0.21584   0.94497   0.00000  Uiso   1.00
C473   C     0.20206   0.27545   0.60667   0.00000  Uiso   1.00
C474   C     0.14311   0.21583   0.89459   0.00000  Uiso   1.00
C475   C     0.13013   0.22539   0.60158   0.00000  Uiso   1.00
C476   C     0.18910   0.28466   0.89692   0.00000  Uiso   1.00
C477   C     0.12799   0.22570   0.55074   0.00000  Uiso   1.00
C478   C     0.18805   0.28626   0.94733   0.00000  Uiso   1.00
C479   C     0.16464   0.25067   0.52699   0.00000  Uiso   1.00
C480   C     0.16505   0.25123   0.97258   0.00000  Uiso   1.00
C481   C     0.06811   0.24826   0.73806   0.00000  Uiso   1.00
C482   C     0.26525   0.25070   0.76207   0.00000  Uiso   1.00
C483   C     0.01312   0.24332   0.73244   0.00000  Uiso   1.00
C484   C     0.32033   0.25399   0.76833   0.00000  Uiso   1.00
C485   C     0.20440   0.04860   0.77803   0.00000  Uiso   1.00
C486   C     0.14584   0.45295   0.70813   0.00000  Uiso   1.00
C487   C     0.20469   0.09463   0.77860   0.00000  Uiso   1.00
C488   C     0.14566   0.40688   0.70803   0.00000  Uiso   1.00
C489   C     0.16570   0.11732   0.75081   0.00000  Uiso   1.00
C490   C     0.16493   0.38336   0.74958   0.00000  Uiso   1.00
C491   C     0.12600   0.09416   0.72299   0.00000  Uiso   1.00
C492   C     0.18213   0.40630   0.79191   0.00000  Uiso   1.00
C493   C     0.12483   0.04811   0.72342   0.00000  Uiso   1.00
C494   C     0.18117   0.45223   0.79240   0.00000  Uiso   1.00
C495   C     0.16427   0.02486   0.75062   0.00000  Uiso   1.00
C496   C     0.16372   0.47607   0.75034   0.00000  Uiso   1.00
Cu497  Cu    0.16667   0.25000   0.79822   0.00000  Uiso   1.00
Cu498  Cu    0.16667   0.25001   0.70179   0.00000  Uiso   1.00
H499   H     0.32732   0.23012   0.69895   0.00000  Uiso   1.00
H500   H     0.00608   0.26659   0.80221   0.00000  Uiso   1.00
H501   H     0.23588   0.03170   0.79857   0.00000  Uiso   1.00
H502   H     0.13237   0.47037   0.67505   0.00000  Uiso   1.00
H503   H     0.23567   0.11256   0.79997   0.00000  Uiso   1.00
H504   H     0.12996   0.38973   0.67569   0.00000  Uiso   1.00
H505   H     0.09549   0.11173   0.70174   0.00000  Uiso   1.00
H506   H     0.19650   0.38875   0.82468   0.00000  Uiso   1.00
H507   H     0.09282   0.03080   0.70285   0.00000  Uiso   1.00
H508   H     0.19380   0.46899   0.82583   0.00000  Uiso   1.00
H509   H     0.23161   0.29415   0.54044   0.00000  Uiso   1.00
H510   H     0.12583   0.18765   0.96224   0.00000  Uiso   1.00
H511   H     0.10180   0.20575   0.61869   0.00000  Uiso   1.00
H512   H     0.20756   0.31174   0.87891   0.00000  Uiso   1.00
H513   H     0.09720   0.20675   0.53052   0.00000  Uiso   1.00
H514   H     0.20483   0.31528   0.96590   0.00000  Uiso   1.00
N515   N     0.16667   0.25001   0.62935   0.00000  Uiso   1.00
N516   N     0.16667   0.24999   0.87066   0.00000  Uiso   1.00
O517   O     0.16667   0.18573   0.79072   0.00000  Uiso   1.00
O518   O     0.16666   0.31428   0.70929   0.00000  Uiso   1.00
O519   O     0.16667   0.18573   0.70928   0.00000  Uiso   1.00
O520   O     0.16666   0.31427   0.79072   0.00000  Uiso   1.00
O521   O     0.09161   0.25000   0.78132   0.00000  Uiso   1.00
O522   O     0.24172   0.25001   0.71868   0.00000  Uiso   1.00
O523   O     0.09161   0.25000   0.69989   0.00000  Uiso   1.00
O524   O     0.24172   0.25000   0.80012   0.00000  Uiso   1.00
C525   C     0.24021   0.30637   0.63233   0.00000  Uiso   1.00
C526   C     0.22630   0.34976   0.64061   0.00000  Uiso   1.00
C527   C     0.26334   0.38116   0.65969   0.00000  Uiso   1.00
C528   C     0.31520   0.37018   0.66788   0.00000  Uiso   1.00
C529   C     0.33003   0.32817   0.65589   0.00000  Uiso   1.00
C530   C     0.29276   0.29659   0.63750   0.00000  Uiso   1.00
H531   H     0.18685   0.35934   0.63128   0.00000  Uiso   1.00
H532   H     0.25200   0.41427   0.66706   0.00000  Uiso   1.00
H533   H     0.01070   0.39458   0.68210   0.00000  Uiso   1.00
H534   H     0.03711   0.32035   0.66016   0.00000  Uiso   1.00
H535   H     0.30482   0.26486   0.62621   0.00000  Uiso   1.00
C536   C     0.11510   0.17816   0.86963   0.00000  Uiso   1.00
C537   C     0.13714   0.13621   0.87170   0.00000  Uiso   1.00
C538   C     0.10885   0.09957   0.85157   0.00000  Uiso   1.00
C539   C     0.05827   0.10442   0.82992   0.00000  Uiso   1.00
C540   C     0.03545   0.14565   0.82958   0.00000  Uiso   1.00
C541   C     0.06344   0.18214   0.85031   0.00000  Uiso   1.00
H542   H     0.17624   0.13205   0.88855   0.00000  Uiso   1.00
H543   H     0.12619   0.06746   0.85259   0.00000  Uiso   1.00
H544   H     0.03654   0.07612   0.81407   0.00000  Uiso   1.00
H545   H     0.32917   0.14920   0.81396   0.00000  Uiso   1.00
H546   H     0.04469   0.21327   0.85226   0.00000  Uiso   1.00
C547   C     0.49986   0.16522   0.75033   0.00000  Uiso   1.00
C548   C     0.49942   0.33502   0.74967   0.00000  Uiso   1.00
C549   C     0.53531   0.27498   0.55632   0.00000  Uiso   1.00
C550   C     0.47649   0.21584   0.94497   0.00000  Uiso   1.00
C551   C     0.53540   0.27545   0.60667   0.00000  Uiso   1.00
C552   C     0.47644   0.21583   0.89459   0.00000  Uiso   1.00
C553   C     0.46347   0.22539   0.60158   0.00000  Uiso   1.00
C554   C     0.52244   0.28466   0.89692   0.00000  Uiso   1.00
C555   C     0.46133   0.22570   0.55074   0.00000  Uiso   1.00
C556   C     0.52138   0.28626   0.94733   0.00000  Uiso   1.00
C557   C     0.49797   0.25067   0.52699   0.00000  Uiso   1.00
C558   C     0.49838   0.25123   0.97258   0.00000  Uiso   1.00
C559   C     0.40145   0.24826   0.73806   0.00000  Uiso   1.00
C560   C     0.59858   0.25070   0.76207   0.00000  Uiso   1.00
C561   C     0.34645   0.24332   0.73244   0.00000  Uiso   1.00
C562   C     0.65367   0.25399   0.76833   0.00000  Uiso   1.00
C563   C     0.53773   0.04860   0.77803   0.00000  Uiso   1.00
C564   C     0.47917   0.45295   0.70813   0.00000  Uiso   1.00
C565   C     0.53802   0.09463   0.77860   0.00000  Uiso   1.00
C566   C     0.47900   0.40688   0.70803   0.00000  Uiso   1.00
C567   C     0.49904   0.11732   0.75081   0.00000  Uiso   1.00
C568   C     0.49827   0.38336   0.74958   0.00000  Uiso   1.00
C569   C     0.45933   0.09416   0.72299   0.00000  Uiso   1.00
C570   C     0.51546   0.40630   0.79191   0.00000  Uiso   1.00
C571   C     0.45816   0.04811   0.72342   0.00000  Uiso   1.00
C572   C     0.51450   0.45223   0.79240   0.00000  Uiso   1.00
C573   C     0.49761   0.02486   0.75062   0.00000  Uiso   1.00
C574   C     0.49706   0.47607   0.75034   0.00000  Uiso   1.00
Cu575  Cu    0.50000   0.25000   0.79822   0.00000  Uiso   1.00
Cu576  Cu    0.50000   0.25001   0.70179   0.00000  Uiso   1.00
H577   H     0.66066   0.23012   0.69895   0.00000  Uiso   1.00
H578   H     0.33941   0.26659   0.80221   0.00000  Uiso   1.00
H579   H     0.56922   0.03170   0.79857   0.00000  Uiso   1.00
H580   H     0.46570   0.47037   0.67505   0.00000  Uiso   1.00
H581   H     0.56900   0.11256   0.79997   0.00000  Uiso   1.00
H582   H     0.46330   0.38973   0.67569   0.00000  Uiso   1.00
H583   H     0.42882   0.11173   0.70174   0.00000  Uiso   1.00
H584   H     0.52983   0.38875   0.82468   0.00000  Uiso   1.00
H585   H     0.42616   0.03080   0.70285   0.00000  Uiso   1.00
H586   H     0.52713   0.46899   0.82583   0.00000  Uiso   1.00
H587   H     0.56495   0.29415   0.54044   0.00000  Uiso   1.00
H588   H     0.45916   0.18765   0.96224   0.00000  Uiso   1.00
H589   H     0.43513   0.20575   0.61869   0.00000  Uiso   1.00
H590   H     0.54089   0.31174   0.87891   0.00000  Uiso   1.00
H591   H     0.43053   0.20675   0.53052   0.00000  Uiso   1.00
H592   H     0.53817   0.31528   0.96590   0.00000  Uiso   1.00
N593   N     0.50000   0.25001   0.62935   0.00000  Uiso   1.00
N594   N     0.50000   0.24999   0.87066   0.00000  Uiso   1.00
O595   O     0.50000   0.18573   0.79072   0.00000  Uiso   1.00
O596   O     0.50000   0.31428   0.70929   0.00000  Uiso   1.00
O597   O     0.50000   0.18573   0.70928   0.00000  Uiso   1.00
O598   O     0.50000   0.31427   0.79072   0.00000  Uiso   1.00
O599   O     0.42495   0.25000   0.78132   0.00000  Uiso   1.00
O600   O     0.57505   0.25001   0.71868   0.00000  Uiso   1.00
O601   O     0.42495   0.25000   0.69989   0.00000  Uiso   1.00
O602   O     0.57505   0.25000   0.80012   0.00000  Uiso   1.00
C603   C     0.57355   0.30637   0.63233   0.00000  Uiso   1.00
C604   C     0.55963   0.34976   0.64061   0.00000  Uiso   1.00
C605   C     0.59667   0.38116   0.65969   0.00000  Uiso   1.00
C606   C     0.64853   0.37018   0.66788   0.00000  Uiso   1.00
C607   C     0.66336   0.32817   0.65589   0.00000  Uiso   1.00
C608   C     0.62609   0.29659   0.63750   0.00000  Uiso   1.00
H609   H     0.52018   0.35934   0.63128   0.00000  Uiso   1.00
H610   H     0.58534   0.41427   0.66706   0.00000  Uiso   1.00
H611   H     0.34403   0.39458   0.68210   0.00000  Uiso   1.00
H612   H     0.37045   0.32035   0.66016   0.00000  Uiso   1.00
H613   H     0.63816   0.26486   0.62621   0.00000  Uiso   1.00
C614   C     0.44844   0.17816   0.86963   0.00000  Uiso   1.00
C615   C     0.47048   0.13621   0.87170   0.00000  Uiso   1.00
C616   C     0.44218   0.09957   0.85157   0.00000  Uiso   1.00
C617   C     0.39161   0.10442   0.82992   0.00000  Uiso   1.00
C618   C     0.36878   0.14565   0.82958   0.00000  Uiso   1.00
C619   C     0.39677   0.18214   0.85031   0.00000  Uiso   1.00
H620   H     0.50957   0.13205   0.88855   0.00000  Uiso   1.00
H621   H     0.45953   0.06746   0.85259   0.00000  Uiso   1.00
H622   H     0.36988   0.07612   0.81407   0.00000  Uiso   1.00
H623   H     0.66251   0.14920   0.81396   0.00000  Uiso   1.00
H624   H     0.37802   0.21327   0.85226   0.00000  Uiso   1.00
C625   C     0.83319   0.16522   0.75033   0.00000  Uiso   1.00
C626   C     0.83275   0.33502   0.74967   0.00000  Uiso   1.00
C627   C     0.86865   0.27498   0.55632   0.00000  Uiso   1.00
C628   C     0.80983   0.21584   0.94497   0.00000  Uiso   1.00
C629   C     0.86873   0.27545   0.60667   0.00000  Uiso   1.00
C630   C     0.80977   0.21583   0.89459   0.00000  Uiso   1.00
C631   C     0.79680   0.22539   0.60158   0.00000  Uiso   1.00
C632   C     0.85577   0.28466   0.89692   0.00000  Uiso   1.00
C633   C     0.79466   0.22570   0.55074   0.00000  Uiso   1.00
C634   C     0.85472   0.28626   0.94733   0.00000  Uiso   1.00
C635   C     0.83130   0.25067   0.52699   0.00000  Uiso   1.00
C636   C     0.83172   0.25123   0.97258   0.00000  Uiso   1.00
C637   C     0.73478   0.24826   0.73806   0.00000  Uiso   1.00
C638   C     0.93192   0.25070   0.76207   0.00000  Uiso   1.00
C639   C     0.67978   0.24332   0.73244   0.00000  Uiso   1.00
C640   C     0.98700   0.25399   0.76833   0.00000  Uiso   1.00
C641   C     0.87106   0.04860   0.77803   0.00000  Uiso   1.00
C642   C     0.81250   0.45295   0.70813   0.00000  Uiso   1.00
C643   C     0.87135   0.09463   0.77860   0.00000  Uiso   1.00
C644   C     0.81233   0.40688   0.70803   0.00000  Uiso   1.00
C645   C     0.83237   0.11732   0.75081   0.00000  Uiso   1.00
C646   C     0.83160   0.38336   0.74958   0.00000  Uiso   1.00
C647   C     0.79267   0.09416   0.72299   0.00000  Uiso   1.00
C648   C     0.84880   0.40630   0.79191   0.00000  Uiso   1.00
C649   C     0.79149   0.04811   0.72342   0.00000  Uiso   1.00
C650   C     0.84783   0.45223   0.79240   0.00000  Uiso   1.00
C651   C     0.83094   0.02486   0.75062   0.00000  Uiso   1.00
C652   C     0.83039   0.47607   0.75034   0.00000  Uiso   1.00
Cu653  Cu    0.83333   0.25000   0.79822   0.00000  Uiso   1.00
Cu654  Cu    0.83333   0.25001   0.70179   0.00000  Uiso   1.00
H655   H     0.99399   0.23012   0.69895   0.00000  Uiso   1.00
H656   H     0.67274   0.26659   0.80221   0.00000  Uiso   1.00
H657   H     0.90255   0.03170   0.79857   0.00000  Uiso   1.00
H658   H     0.79903   0.47037   0.67505   0.00000  Uiso   1.00
H659   H     0.90233   0.11256   0.79997   0.00000  Uiso   1.00
H660   H     0.79663   0.38973   0.67569   0.00000  Uiso   1.00
H661   H     0.76215   0.11173   0.70174   0.00000  Uiso   1.00
H662   H     0.86317   0.38875   0.82468   0.00000  Uiso   1.00
H663   H     0.75949   0.03080   0.70285   0.00000  Uiso   1.00
H664   H     0.86047   0.46899   0.82583   0.00000  Uiso   1.00
H665   H     0.89828   0.29415   0.54044   0.00000  Uiso   1.00
H666   H     0.79249   0.18765   0.96224   0.00000  Uiso   1.00
H667   H     0.76846   0.20575   0.61869   0.00000  Uiso   1.00
H668   H     0.87423   0.31174   0.87891   0.00000  Uiso   1.00
H669   H     0.76386   0.20675   0.53052   0.00000  Uiso   1.00
H670   H     0.87150   0.31528   0.96590   0.00000  Uiso   1.00
N671   N     0.83333   0.25001   0.62935   0.00000  Uiso   1.00
N672   N     0.83333   0.24999   0.87066   0.00000  Uiso   1.00
O673   O     0.83334   0.18573   0.79072   0.00000  Uiso   1.00
O674   O     0.83333   0.31428   0.70929   0.00000  Uiso   1.00
O675   O     0.83334   0.18573   0.70928   0.00000  Uiso   1.00
O676   O     0.83333   0.31427   0.79072   0.00000  Uiso   1.00
O677   O     0.75828   0.25000   0.78132   0.00000  Uiso   1.00
O678   O     0.90839   0.25001   0.71868   0.00000  Uiso   1.00
O679   O     0.75828   0.25000   0.69989   0.00000  Uiso   1.00
O680   O     0.90839   0.25000   0.80012   0.00000  Uiso   1.00
C681   C     0.90688   0.30637   0.63233   0.00000  Uiso   1.00
C682   C     0.89296   0.34976   0.64061   0.00000  Uiso   1.00
C683   C     0.93001   0.38116   0.65969   0.00000  Uiso   1.00
C684   C     0.98186   0.37018   0.66788   0.00000  Uiso   1.00
C685   C     0.99669   0.32817   0.65589   0.00000  Uiso   1.00
C686   C     0.95943   0.29659   0.63750   0.00000  Uiso   1.00
H687   H     0.85352   0.35934   0.63128   0.00000  Uiso   1.00
H688   H     0.91867   0.41427   0.66706   0.00000  Uiso   1.00
H689   H     0.67736   0.39458   0.68210   0.00000  Uiso   1.00
H690   H     0.70378   0.32035   0.66016   0.00000  Uiso   1.00
H691   H     0.97149   0.26486   0.62621   0.00000  Uiso   1.00
C692   C     0.78177   0.17816   0.86963   0.00000  Uiso   1.00
C693   C     0.80381   0.13621   0.87170   0.00000  Uiso   1.00
C694   C     0.77552   0.09957   0.85157   0.00000  Uiso   1.00
C695   C     0.72494   0.10442   0.82992   0.00000  Uiso   1.00
C696   C     0.70211   0.14565   0.82958   0.00000  Uiso   1.00
C697   C     0.73010   0.18214   0.85031   0.00000  Uiso   1.00
H698   H     0.84290   0.13205   0.88855   0.00000  Uiso   1.00
H699   H     0.79286   0.06746   0.85259   0.00000  Uiso   1.00
H700   H     0.70321   0.07612   0.81407   0.00000  Uiso   1.00
H701   H     0.99584   0.14920   0.81396   0.00000  Uiso   1.00
H702   H     0.71135   0.21327   0.85226   0.00000  Uiso   1.00
C703   C     0.16653   0.66522   0.75033   0.00000  Uiso   1.00
C704   C     0.16608   0.83502   0.74967   0.00000  Uiso   1.00
C705   C     0.20198   0.77498   0.55632   0.00000  Uiso   1.00
C706   C     0.14316   0.71584   0.94497   0.00000  Uiso   1.00
C707   C     0.20206   0.77545   0.60667   0.00000  Uiso   1.00
C708   C     0.14311   0.71583   0.89459   0.00000  Uiso   1.00
C709   C     0.13013   0.72539   0.60158   0.00000  Uiso   1.00
C710   C     0.18910   0.78466   0.89692   0.00000  Uiso   1.00
C711   C     0.12799   0.72570   0.55074   0.00000  Uiso   1.00
C712   C     0.18805   0.78626   0.94733   0.00000  Uiso   1.00
C713   C     0.16464   0.75067   0.52699   0.00000  Uiso   1.00
C714   C     0.16505   0.75123   0.97258   0.00000  Uiso   1.00
C715   C     0.06811   0.74826   0.73806   0.00000  Uiso   1.00
C716   C     0.26525   0.75070   0.76207   0.00000  Uiso   1.00
C717   C     0.01312   0.74332   0.73244   0.00000  Uiso   1.00
C718   C     0.32033   0.75399   0.76833   0.00000  Uiso   1.00
C719   C     0.20440   0.54860   0.77803   0.00000  Uiso   1.00
C720   C     0.14584   0.95295   0.70813   0.00000  Uiso   1.00
C721   C     0.20469   0.59463   0.77860   0.00000  Uiso   1.00
C722   C     0.14566   0.90688   0.70803   0.00000  Uiso   1.00
C723   C     0.16570   0.61732   0.75081   0.00000  Uiso   1.00
C724   C     0.16493   0.88336   0.74958   0.00000  Uiso   1.00
C725   C     0.12600   0.59416   0.72299   0.00000  Uiso   1.00
C726   C     0.18213   0.90630   0.79191   0.00000  Uiso   1.00
C727   C     0.12483   0.54811   0.72342   0.00000  Uiso   1.00
C728   C     0.18117   0.95223   0.79240   0.00000  Uiso   1.00
C729   C     0.16427   0.52486   0.75062   0.00000  Uiso   1.00
C730   C     0.16372   0.97607   0.75034   0.00000  Uiso   1.00
Cu731  Cu    0.16667   0.75000   0.79822   0.00000  Uiso   1.00
Cu732  Cu    0.16667   0.75001   0.70179   0.00000  Uiso   1.00
H733   H     0.32732   0.73012   0.69895   0.00000  Uiso   1.00
H734   H     0.00608   0.76659   0.80221   0.00000  Uiso   1.00
H735   H     0.23588   0.53170   0.79857   0.00000  Uiso   1.00
H736   H     0.13237   0.97037   0.67505   0.00000  Uiso   1.00
H737   H     0.23567   0.61256   0.79997   0.00000  Uiso   1.00
H738   H     0.12996   0.88973   0.67569   0.00000  Uiso   1.00
H739   H     0.09549   0.61173   0.70174   0.00000  Uiso   1.00
H740   H     0.19650   0.88875   0.82468   0.00000  Uiso   1.00
H741   H     0.09282   0.53080   0.70285   0.00000  Uiso   1.00
H742   H     0.19380   0.96899   0.82583   0.00000  Uiso   1.00
H743   H     0.23161   0.79415   0.54044   0.00000  Uiso   1.00
H744   H     0.12583   0.68765   0.96224   0.00000  Uiso   1.00
H745   H     0.10180   0.70575   0.61869   0.00000  Uiso   1.00
H746   H     0.20756   0.81174   0.87891   0.00000  Uiso   1.00
H747   H     0.09720   0.70675   0.53052   0.00000  Uiso   1.00
H748   H     0.20483   0.81528   0.96590   0.00000  Uiso   1.00
N749   N     0.16667   0.75001   0.62935   0.00000  Uiso   1.00
N750   N     0.16667   0.74999   0.87066   0.00000  Uiso   1.00
O751   O     0.16667   0.68573   0.79072   0.00000  Uiso   1.00
O752   O     0.16666   0.81428   0.70929   0.00000  Uiso   1.00
O753   O     0.16667   0.68573   0.70928   0.00000  Uiso   1.00
O754   O     0.16666   0.81427   0.79072   0.00000  Uiso   1.00
O755   O     0.09161   0.75000   0.78132   0.00000  Uiso   1.00
O756   O     0.24172   0.75001   0.71868   0.00000  Uiso   1.00
O757   O     0.09161   0.75000   0.69989   0.00000  Uiso   1.00
O758   O     0.24172   0.75000   0.80012   0.00000  Uiso   1.00
C759   C     0.24021   0.80637   0.63233   0.00000  Uiso   1.00
C760   C     0.22630   0.84976   0.64061   0.00000  Uiso   1.00
C761   C     0.26334   0.88116   0.65969   0.00000  Uiso   1.00
C762   C     0.31520   0.87018   0.66788   0.00000  Uiso   1.00
C763   C     0.33003   0.82817   0.65589   0.00000  Uiso   1.00
C764   C     0.29276   0.79659   0.63750   0.00000  Uiso   1.00
H765   H     0.18685   0.85934   0.63128   0.00000  Uiso   1.00
H766   H     0.25200   0.91427   0.66706   0.00000  Uiso   1.00
H767   H     0.01070   0.89458   0.68210   0.00000  Uiso   1.00
H768   H     0.03711   0.82035   0.66016   0.00000  Uiso   1.00
H769   H     0.30482   0.76486   0.62621   0.00000  Uiso   1.00
C770   C     0.11510   0.67816   0.86963   0.00000  Uiso   1.00
C771   C     0.13714   0.63621   0.87170   0.00000  Uiso   1.00
C772   C     0.10885   0.59957   0.85157   0.00000  Uiso   1.00
C773   C     0.05827   0.60442   0.82992   0.00000  Uiso   1.00
C774   C     0.03545   0.64565   0.82958   0.00000  Uiso   1.00
C775   C     0.06344   0.68214   0.85031   0.00000  Uiso   1.00
H776   H     0.17624   0.63205   0.88855   0.00000  Uiso   1.00
H777   H     0.12619   0.56746   0.85259   0.00000  Uiso   1.00
H778   H     0.03654   0.57612   0.81407   0.00000  Uiso   1.00
H779   H     0.32917   0.64920   0.81396   0.00000  Uiso   1.00
H780   H     0.04469   0.71327   0.85226   0.00000  Uiso   1.00
C781   C     0.49986   0.66522   0.75033   0.00000  Uiso   1.00
C782   C     0.49942   0.83502   0.74967   0.00000  Uiso   1.00
C783   C     0.53531   0.77498   0.55632   0.00000  Uiso   1.00
C784   C     0.47649   0.71584   0.94497   0.00000  Uiso   1.00
C785   C     0.53540   0.77545   0.60667   0.00000  Uiso   1.00
C786   C     0.47644   0.71583   0.89459   0.00000  Uiso   1.00
C787   C     0.46347   0.72539   0.60158   0.00000  Uiso   1.00
C788   C     0.52244   0.78466   0.89692   0.00000  Uiso   1.00
C789   C     0.46133   0.72570   0.55074   0.00000  Uiso   1.00
C790   C     0.52138   0.78626   0.94733   0.00000  Uiso   1.00
C791   C     0.49797   0.75067   0.52699   0.00000  Uiso   1.00
C792   C     0.49838   0.75123   0.97258   0.00000  Uiso   1.00
C793   C     0.40145   0.74826   0.73806   0.00000  Uiso   1.00
C794   C     0.59858   0.75070   0.76207   0.00000  Uiso   1.00
C795   C     0.34645   0.74332   0.73244   0.00000  Uiso   1.00
C796   C     0.65367   0.75399   0.76833   0.00000  Uiso   1.00
C797   C     0.53773   0.54860   0.77803   0.00000  Uiso   1.00
C798   C     0.47917   0.95295   0.70813   0.00000  Uiso   1.00
C799   C     0.53802   0.59463   0.77860   0.00000  Uiso   1.00
C800   C     0.47900   0.90688   0.70803   0.00000  Uiso   1.00
C801   C     0.49904   0.61732   0.75081   0.00000  Uiso   1.00
C802   C     0.49827   0.88336   0.74958   0.00000  Uiso   1.00
C803   C     0.45933   0.59416   0.72299   0.00000  Uiso   1.00
C804   C     0.51546   0.90630   0.79191   0.00000  Uiso   1.00
C805   C     0.45816   0.54811   0.72342   0.00000  Uiso   1.00
C806   C     0.51450   0.95223   0.79240   0.00000  Uiso   1.00
C807   C     0.49761   0.52486   0.75062   0.00000  Uiso   1.00
C808   C     0.49706   0.97607   0.75034   0.00000  Uiso   1.00
Cu809  Cu    0.50000   0.75000   0.79822   0.00000  Uiso   1.00
Cu810  Cu    0.50000   0.75001   0.70179   0.00000  Uiso   1.00
H811   H     0.66066   0.73012   0.69895   0.00000  Uiso   1.00
H812   H     0.33941   0.76659   0.80221   0.00000  Uiso   1.00
H813   H     0.56922   0.53170   0.79857   0.00000  Uiso   1.00
H814   H     0.46570   0.97037   0.67505   0.00000  Uiso   1.00
H815   H     0.56900   0.61256   0.79997   0.00000  Uiso   1.00
H816   H     0.46330   0.88973   0.67569   0.00000  Uiso   1.00
H817   H     0.42882   0.61173   0.70174   0.00000  Uiso   1.00
H818   H     0.52983   0.88875   0.82468   0.00000  Uiso   1.00
H819   H     0.42616   0.53080   0.70285   0.00000  Uiso   1.00
H820   H     0.52713   0.96899   0.82583   0.00000  Uiso   1.00
H821   H     0.56495   0.79415   0.54044   0.00000  Uiso   1.00
H822   H     0.45916   0.68765   0.96224   0.00000  Uiso   1.00
H823   H     0.43513   0.70575   0.61869   0.00000  Uiso   1.00
H824   H     0.54089   0.81174   0.87891   0.00000  Uiso   1.00
H825   H     0.43053   0.70675   0.53052   0.00000  Uiso   1.00
H826   H     0.53817   0.81528   0.96590   0.00000  Uiso   1.00
N827   N     0.50000   0.75001   0.62935   0.00000  Uiso   1.00
N828   N     0.50000   0.74999   0.87066   0.00000  Uiso   1.00
O829   O     0.50000   0.68573   0.79072   0.00000  Uiso   1.00
O830   O     0.50000   0.81428   0.70929   0.00000  Uiso   1.00
O831   O     0.50000   0.68573   0.70928   0.00000  Uiso   1.00
O832   O     0.50000   0.81427   0.79072   0.00000  Uiso   1.00
O833   O     0.42495   0.75000   0.78132   0.00000  Uiso   1.00
O834   O     0.57505   0.75001   0.71868   0.00000  Uiso   1.00
O835   O     0.42495   0.75000   0.69989   0.00000  Uiso   1.00
O836   O     0.57505   0.75000   0.80012   0.00000  Uiso   1.00
C837   C     0.57355   0.80637   0.63233   0.00000  Uiso   1.00
C838   C     0.55963   0.84976   0.64061   0.00000  Uiso   1.00
C839   C     0.59667   0.88116   0.65969   0.00000  Uiso   1.00
C840   C     0.64853   0.87018   0.66788   0.00000  Uiso   1.00
C841   C     0.66336   0.82817   0.65589   0.00000  Uiso   1.00
C842   C     0.62609   0.79659   0.63750   0.00000  Uiso   1.00
H843   H     0.52018   0.85934   0.63128   0.00000  Uiso   1.00
H844   H     0.58534   0.91427   0.66706   0.00000  Uiso   1.00
H845   H     0.34403   0.89458   0.68210   0.00000  Uiso   1.00
H846   H     0.37045   0.82035   0.66016   0.00000  Uiso   1.00
H847   H     0.63816   0.76486   0.62621   0.00000  Uiso   1.00
C848   C     0.44844   0.67816   0.86963   0.00000  Uiso   1.00
C849   C     0.47048   0.63621   0.87170   0.00000  Uiso   1.00
C850   C     0.44218   0.59957   0.85157   0.00000  Uiso   1.00
C851   C     0.39161   0.60442   0.82992   0.00000  Uiso   1.00
C852   C     0.36878   0.64565   0.82958   0.00000  Uiso   1.00
C853   C     0.39677   0.68214   0.85031   0.00000  Uiso   1.00
H854   H     0.50957   0.63205   0.88855   0.00000  Uiso   1.00
H855   H     0.45953   0.56746   0.85259   0.00000  Uiso   1.00
H856   H     0.36988   0.57612   0.81407   0.00000  Uiso   1.00
H857   H     0.66251   0.64920   0.81396   0.00000  Uiso   1.00
H858   H     0.37802   0.71327   0.85226   0.00000  Uiso   1.00
C859   C     0.83319   0.66522   0.75033   0.00000  Uiso   1.00
C860   C     0.83275   0.83502   0.74967   0.00000  Uiso   1.00
C861   C     0.86865   0.77498   0.55632   0.00000  Uiso   1.00
C862   C     0.80983   0.71584   0.94497   0.00000  Uiso   1.00
C863   C     0.86873   0.77545   0.60667   0.00000  Uiso   1.00
C864   C     0.80977   0.71583   0.89459   0.00000  Uiso   1.00
C865   C     0.79680   0.72539   0.60158   0.00000  Uiso   1.00
C866   C     0.85577   0.78466   0.89692   0.00000  Uiso   1.00
C867   C     0.79466   0.72570   0.55074   0.00000  Uiso   1.00
C868   C     0.85472   0.78626   0.94733   0.00000  Uiso   1.00
C869   C     0.83130   0.75067   0.52699   0.00000  Uiso   1.00
C870   C     0.83172   0.75123   0.97258   0.00000  Uiso   1.00
C871   C     0.73478   0.74826   0.73806   0.00000  Uiso   1.00
C872   C     0.93192   0.75070   0.76207   0.00000  Uiso   1.00
C873   C     0.67978   0.74332   0.73244   0.00000  Uiso   1.00
C874   C     0.98700   0.75399   0.76833   0.00000  Uiso   1.00
C875   C     0.87106   0.54860   0.77803   0.00000  Uiso   1.00
C876   C     0.81250   0.95295   0.70813   0.00000  Uiso   1.00
C877   C     0.87135   0.59463   0.77860   0.00000  Uiso   1.00
C878   C     0.81233   0.90688   0.70803   0.00000  Uiso   1.00
C879   C     0.83237   0.61732   0.75081   0.00000  Uiso   1.00
C880   C     0.83160   0.88336   0.74958   0.00000  Uiso   1.00
C881   C     0.79267   0.59416   0.72299   0.00000  Uiso   1.00
C882   C     0.84880   0.90630   0.79191   0.00000  Uiso   1.00
C883   C     0.79149   0.54811   0.72342   0.00000  Uiso   1.00
C884   C     0.84783   0.95223   0.79240   0.00000  Uiso   1.00
C885   C     0.83094   0.52486   0.75062   0.00000  Uiso   1.00
C886   C     0.83039   0.97607   0.75034   0.00000  Uiso   1.00
Cu887  Cu    0.83333   0.75000   0.79822   0.00000  Uiso   1.00
Cu888  Cu    0.83333   0.75001   0.70179   0.00000  Uiso   1.00
H889   H     0.99399   0.73012   0.69895   0.00000  Uiso   1.00
H890   H     0.67274   0.76659   0.80221   0.00000  Uiso   1.00
H891   H     0.90255   0.53170   0.79857   0.00000  Uiso   1.00
H892   H     0.79903   0.97037   0.67505   0.00000  Uiso   1.00
H893   H     0.90233   0.61256   0.79997   0.00000  Uiso   1.00
H894   H     0.79663   0.88973   0.67569   0.00000  Uiso   1.00
H895   H     0.76215   0.61173   0.70174   0.00000  Uiso   1.00
H896   H     0.86317   0.88875   0.82468   0.00000  Uiso   1.00
H897   H     0.75949   0.53080   0.70285   0.00000  Uiso   1.00
H898   H     0.86047   0.96899   0.82583   0.00000  Uiso   1.00
H899   H     0.89828   0.79415   0.54044   0.00000  Uiso   1.00
H900   H     0.79249   0.68765   0.96224   0.00000  Uiso   1.00
H901   H     0.76846   0.70575   0.61869   0.00000  Uiso   1.00
H902   H     0.87423   0.81174   0.87891   0.00000  Uiso   1.00
H903   H     0.76386   0.70675   0.53052   0.00000  Uiso   1.00
H904   H     0.87150   0.81528   0.96590   0.00000  Uiso   1.00
N905   N     0.83333   0.75001   0.62935   0.00000  Uiso   1.00
N906   N     0.83333   0.74999   0.87066   0.00000  Uiso   1.00
O907   O     0.83334   0.68573   0.79072   0.00000  Uiso   1.00
O908   O     0.83333   0.81428   0.70929   0.00000  Uiso   1.00
O909   O     0.83334   0.68573   0.70928   0.00000  Uiso   1.00
O910   O     0.83333   0.81427   0.79072   0.00000  Uiso   1.00
O911   O     0.75828   0.75000   0.78132   0.00000  Uiso   1.00
O912   O     0.90839   0.75001   0.71868   0.00000  Uiso   1.00
O913   O     0.75828   0.75000   0.69989   0.00000  Uiso   1.00
O914   O     0.90839   0.75000   0.80012   0.00000  Uiso   1.00
C915   C     0.90688   0.80637   0.63233   0.00000  Uiso   1.00
C916   C     0.89296   0.84976   0.64061   0.00000  Uiso   1.00
C917   C     0.93001   0.88116   0.65969   0.00000  Uiso   1.00
C918   C     0.98186   0.87018   0.66788   0.00000  Uiso   1.00
C919   C     0.99669   0.82817   0.65589   0.00000  Uiso   1.00
C920   C     0.95943   0.79659   0.63750   0.00000  Uiso   1.00
H921   H     0.85352   0.85934   0.63128   0.00000  Uiso   1.00
H922   H     0.91867   0.91427   0.66706   0.00000  Uiso   1.00
H923   H     0.67736   0.89458   0.68210   0.00000  Uiso   1.00
H924   H     0.70378   0.82035   0.66016   0.00000  Uiso   1.00
H925   H     0.97149   0.76486   0.62621   0.00000  Uiso   1.00
C926   C     0.78177   0.67816   0.86963   0.00000  Uiso   1.00
C927   C     0.80381   0.63621   0.87170   0.00000  Uiso   1.00
C928   C     0.77552   0.59957   0.85157   0.00000  Uiso   1.00
C929   C     0.72494   0.60442   0.82992   0.00000  Uiso   1.00
C930   C     0.70211   0.64565   0.82958   0.00000  Uiso   1.00
C931   C     0.73010   0.68214   0.85031   0.00000  Uiso   1.00
H932   H     0.84290   0.63205   0.88855   0.00000  Uiso   1.00
H933   H     0.79286   0.56746   0.85259   0.00000  Uiso   1.00
H934   H     0.70321   0.57612   0.81407   0.00000  Uiso   1.00
H935   H     0.99584   0.64920   0.81396   0.00000  Uiso   1.00
H936   H     0.71135   0.71327   0.85226   0.00000  Uiso   1.00
loop_
_geom_bond_atom_site_label_1
_geom_bond_atom_site_label_2
_geom_bond_distance
_geom_bond_site_symmetry_2
_ccdc_geom_bond_type
C1     C21     1.446   .     S
C1     O51     1.293   .     A
C1     O49     1.297   .     A
C2     O50     1.302   .     A
C2     C22     1.461   .     S
C2     O52     1.295   .     A
C3     H41     1.082   .     S
C3     C5      1.406   .     A
C3     C11     1.396   .     A
C4     H42     1.082   .     S
C4     C12     1.397   .     A
C4     C6      1.407   .     A
C5     C57     1.474   .     S
C5     N47     1.384   .     A
C6     C68     1.473   .     S
C6     N48     1.384   .     A
C7     H43     1.082   .     S
C7     N47     1.366   .     A
C7     C9      1.414   .     A
C8     N48     1.366   .     A
C8     H44     1.081   .     S
C8     C10     1.413   .     A
C9     H45     1.081   .     S
C9     C11     1.416   .     A
C10    C12     1.416   .     A
C10    H46     1.081   .     S
C11    C480    1.521   1_554 S
C12    C479    1.521   .     S
C13    O53     1.291   .     A
C13    C15     1.429   .     S
C13    O55     1.290   .     A
C14    O56     1.288   .     A
C14    O54     1.293   .     A
C14    C16     1.429   .     S
C15    C172    1.327   1_455 S
C15    H187    1.084   1_455 S
C16    C93     1.327   .     S
C16    H110    1.086   .     S
C17    C19     1.390   .     A
C17    H33     1.082   .     S
C17    C27     1.407   .     A
C18    C20     1.391   .     A
C18    C28     1.406   .     A
C18    H34     1.082   .     S
C19    C21     1.396   .     A
C19    H35     1.083   .     S
C20    C22     1.400   .     A
C20    H36     1.081   .     S
C21    C23     1.397   .     A
C22    C24     1.402   .     A
C23    H37     1.084   .     S
C23    C25     1.390   .     A
C24    C26     1.388   .     A
C24    H38     1.083   .     S
C25    C27     1.405   .     A
C25    H39     1.082   .     S
C26    C28     1.403   .     A
C26    H40     1.083   .     S
C27    C262    1.473   1_545 S
C28    C261    1.473   .     S
Cu29   O49     1.956   .     S
Cu29   N48     2.023   .     S
Cu29   Cu30    2.693   .     S
Cu29   O56     1.954   .     S
Cu29   O53     1.961   .     S
Cu29   O52     1.948   .     S
Cu30   O51     1.948   .     S
Cu30   O54     1.961   .     S
Cu30   O50     1.956   .     S
Cu30   N47     2.023   .     S
Cu30   O55     1.954   .     S
H31    C93     1.084   .     S
H32    C172    1.086   1_455 S
C57    C62     1.404   .     A
C57    C58     1.402   .     A
C58    C59     1.399   .     A
C58    H63     1.080   .     S
C59    H64     1.082   .     S
C59    C60     1.397   .     A
C60    C61     1.397   .     A
C60    H143    1.083   .     S
C61    C62     1.400   .     A
C61    H144    1.082   .     S
C62    H67     1.083   .     S
H65    C216    1.083   1_455 S
H66    C217    1.082   1_455 S
C68    C69     1.406   .     A
C68    C73     1.401   .     A
C69    C70     1.399   .     A
C69    H74     1.083   .     S
C70    C71     1.398   .     A
C70    H75     1.082   .     S
C71    H76     1.082   .     S
C71    C72     1.397   .     A
C72    C73     1.398   .     A
C72    H233    1.082   1_455 S
C73    H78     1.080   .     S
H77    C150    1.082   .     S
C79    C99     1.446   .     S
C79    O129    1.293   .     A
C79    O127    1.297   .     A
C80    O128    1.302   .     A
C80    C100    1.461   .     S
C80    O130    1.295   .     A
C81    H119    1.082   .     S
C81    C83     1.406   .     A
C81    C89     1.396   .     A
C82    H120    1.082   .     S
C82    C90     1.397   .     A
C82    C84     1.407   .     A
C83    C135    1.474   .     S
C83    N125    1.384   .     A
C84    C146    1.473   .     S
C84    N126    1.384   .     A
C85    H121    1.082   .     S
C85    N125    1.366   .     A
C85    C87     1.414   .     A
C86    N126    1.366   .     A
C86    H122    1.081   .     S
C86    C88     1.413   .     A
C87    H123    1.081   .     S
C87    C89     1.416   .     A
C88    C90     1.416   .     A
C88    H124    1.081   .     S
C89    C558    1.521   1_554 S
C90    C557    1.521   .     S
C91    O131    1.291   .     A
C91    C93     1.429   .     S
C91    O133    1.290   .     A
C92    O134    1.288   .     A
C92    O132    1.293   .     A
C92    C94     1.429   .     S
C94    C171    1.327   .     S
C94    H188    1.086   .     S
C95    C97     1.390   .     A
C95    H111    1.082   .     S
C95    C105    1.407   .     A
C96    C98     1.391   .     A
C96    C106    1.406   .     A
C96    H112    1.082   .     S
C97    C99     1.396   .     A
C97    H113    1.083   .     S
C98    C100    1.400   .     A
C98    H114    1.081   .     S
C99    C101    1.397   .     A
C100   C102    1.402   .     A
C101   H115    1.084   .     S
C101   C103    1.390   .     A
C102   C104    1.388   .     A
C102   H116    1.083   .     S
C103   C105    1.405   .     A
C103   H117    1.082   .     S
C104   C106    1.403   .     A
C104   H118    1.083   .     S
C105   C340    1.473   1_545 S
C106   C339    1.473   .     S
Cu107  O127    1.956   .     S
Cu107  N126    2.023   .     S
Cu107  Cu108   2.693   .     S
Cu107  O134    1.954   .     S
Cu107  O131    1.961   .     S
Cu107  O130    1.948   .     S
Cu108  O129    1.948   .     S
Cu108  O132    1.961   .     S
Cu108  O128    1.956   .     S
Cu108  N125    2.023   .     S
Cu108  O133    1.954   .     S
H109   C171    1.084   .     S
C135   C140    1.404   .     A
C135   C136    1.402   .     A
C136   C137    1.399   .     A
C136   H141    1.080   .     S
C137   H142    1.082   .     S
C137   C138    1.397   .     A
C138   C139    1.397   .     A
C138   H221    1.083   .     S
C139   C140    1.400   .     A
C139   H222    1.082   .     S
C140   H145    1.083   .     S
C146   C147    1.406   .     A
C146   C151    1.401   .     A
C147   C148    1.399   .     A
C147   H152    1.083   .     S
C148   C149    1.398   .     A
C148   H153    1.082   .     S
C149   H154    1.082   .     S
C149   C150    1.397   .     A
C150   C151    1.398   .     A
C151   H156    1.080   .     S
H155   C228    1.082   .     S
C157   C177    1.446   .     S
C157   O207    1.293   .     A
C157   O205    1.297   .     A
C158   O206    1.302   .     A
C158   C178    1.461   .     S
C158   O208    1.295   .     A
C159   H197    1.082   .     S
C159   C161    1.406   .     A
C159   C167    1.396   .     A
C160   H198    1.082   .     S
C160   C168    1.397   .     A
C160   C162    1.407   .     A
C161   C213    1.474   .     S
C161   N203    1.384   .     A
C162   C224    1.473   .     S
C162   N204    1.384   .     A
C163   H199    1.082   .     S
C163   N203    1.366   .     A
C163   C165    1.414   .     A
C164   N204    1.366   .     A
C164   H200    1.081   .     S
C164   C166    1.413   .     A
C165   H201    1.081   .     S
C165   C167    1.416   .     A
C166   C168    1.416   .     A
C166   H202    1.081   .     S
C167   C636    1.521   1_554 S
C168   C635    1.521   .     S
C169   O209    1.291   .     A
C169   C171    1.429   .     S
C169   O211    1.290   .     A
C170   O212    1.288   .     A
C170   O210    1.293   .     A
C170   C172    1.429   .     S
C172   C15     1.327   1_655 S
C172   H32     1.086   1_655 S
C173   C175    1.390   .     A
C173   H189    1.082   .     S
C173   C183    1.407   .     A
C174   C176    1.391   .     A
C174   C184    1.406   .     A
C174   H190    1.082   .     S
C175   C177    1.396   .     A
C175   H191    1.083   .     S
C176   C178    1.400   .     A
C176   H192    1.081   .     S
C177   C179    1.397   .     A
C178   C180    1.402   .     A
C179   H193    1.084   .     S
C179   C181    1.390   .     A
C180   C182    1.388   .     A
C180   H194    1.083   .     S
C181   C183    1.405   .     A
C181   H195    1.082   .     S
C182   C184    1.403   .     A
C182   H196    1.083   .     S
C183   C418    1.473   1_545 S
C184   C417    1.473   .     S
Cu185  O205    1.956   .     S
Cu185  N204    2.023   .     S
Cu185  Cu186   2.693   .     S
Cu185  O212    1.954   .     S
Cu185  O209    1.961   .     S
Cu185  O208    1.948   .     S
Cu186  O207    1.948   .     S
Cu186  O210    1.961   .     S
Cu186  O206    1.956   .     S
Cu186  N203    2.023   .     S
Cu186  O211    1.954   .     S
H187   C15     1.084   1_655 S
C213   C218    1.404   .     A
C213   C214    1.402   .     A
C214   C215    1.399   .     A
C214   H219    1.080   .     S
C215   H220    1.082   .     S
C215   C216    1.397   .     A
C216   C217    1.397   .     A
C216   H65     1.083   1_655 S
C217   C218    1.400   .     A
C217   H66     1.082   1_655 S
C218   H223    1.083   .     S
C224   C225    1.406   .     A
C224   C229    1.401   .     A
C225   C226    1.399   .     A
C225   H230    1.083   .     S
C226   C227    1.398   .     A
C226   H231    1.082   .     S
C227   H232    1.082   .     S
C227   C228    1.397   .     A
C228   C229    1.398   .     A
C229   H234    1.080   .     S
H233   C72     1.082   1_655 S
C235   C255    1.446   .     S
C235   O285    1.293   .     A
C235   O283    1.297   .     A
C236   O284    1.302   .     A
C236   C256    1.461   .     S
C236   O286    1.295   .     A
C237   H275    1.082   .     S
C237   C239    1.406   .     A
C237   C245    1.396   .     A
C238   H276    1.082   .     S
C238   C246    1.397   .     A
C238   C240    1.407   .     A
C239   C291    1.474   .     S
C239   N281    1.384   .     A
C240   C302    1.473   .     S
C240   N282    1.384   .     A
C241   H277    1.082   .     S
C241   N281    1.366   .     A
C241   C243    1.414   .     A
C242   N282    1.366   .     A
C242   H278    1.081   .     S
C242   C244    1.413   .     A
C243   H279    1.081   .     S
C243   C245    1.416   .     A
C244   C246    1.416   .     A
C244   H280    1.081   .     S
C245   C714    1.521   1_554 S
C246   C713    1.521   .     S
C247   O287    1.291   .     A
C247   C249    1.429   .     S
C247   O289    1.290   .     A
C248   O290    1.288   .     A
C248   O288    1.293   .     A
C248   C250    1.429   .     S
C249   C406    1.327   1_455 S
C249   H421    1.084   1_455 S
C250   C327    1.327   .     S
C250   H344    1.086   .     S
C251   C253    1.390   .     A
C251   H267    1.082   .     S
C251   C261    1.407   .     A
C252   C254    1.391   .     A
C252   C262    1.406   .     A
C252   H268    1.082   .     S
C253   C255    1.396   .     A
C253   H269    1.083   .     S
C254   C256    1.400   .     A
C254   H270    1.081   .     S
C255   C257    1.397   .     A
C256   C258    1.402   .     A
C257   H271    1.084   .     S
C257   C259    1.390   .     A
C258   C260    1.388   .     A
C258   H272    1.083   .     S
C259   C261    1.405   .     A
C259   H273    1.082   .     S
C260   C262    1.403   .     A
C260   H274    1.083   .     S
C262   C27     1.473   1_565 S
Cu263  O283    1.956   .     S
Cu263  N282    2.023   .     S
Cu263  Cu264   2.693   .     S
Cu263  O290    1.954   .     S
Cu263  O287    1.961   .     S
Cu263  O286    1.948   .     S
Cu264  O285    1.948   .     S
Cu264  O288    1.961   .     S
Cu264  O284    1.956   .     S
Cu264  N281    2.023   .     S
Cu264  O289    1.954   .     S
H265   C327    1.084   .     S
H266   C406    1.086   1_455 S
C291   C296    1.404   .     A
C291   C292    1.402   .     A
C292   C293    1.399   .     A
C292   H297    1.080   .     S
C293   H298    1.082   .     S
C293   C294    1.397   .     A
C294   C295    1.397   .     A
C294   H377    1.083   .     S
C295   C296    1.400   .     A
C295   H378    1.082   .     S
C296   H301    1.083   .     S
H299   C450    1.083   1_455 S
H300   C451    1.082   1_455 S
C302   C303    1.406   .     A
C302   C307    1.401   .     A
C303   C304    1.399   .     A
C303   H308    1.083   .     S
C304   C305    1.398   .     A
C304   H309    1.082   .     S
C305   H310    1.082   .     S
C305   C306    1.397   .     A
C306   C307    1.398   .     A
C306   H467    1.082   1_455 S
C307   H312    1.080   .     S
H311   C384    1.082   .     S
C313   C333    1.446   .     S
C313   O363    1.293   .     A
C313   O361    1.297   .     A
C314   O362    1.302   .     A
C314   C334    1.461   .     S
C314   O364    1.295   .     A
C315   H353    1.082   .     S
C315   C317    1.406   .     A
C315   C323    1.396   .     A
C316   H354    1.082   .     S
C316   C324    1.397   .     A
C316   C318    1.407   .     A
C317   C369    1.474   .     S
C317   N359    1.384   .     A
C318   C380    1.473   .     S
C318   N360    1.384   .     A
C319   H355    1.082   .     S
C319   N359    1.366   .     A
C319   C321    1.414   .     A
C320   N360    1.366   .     A
C320   H356    1.081   .     S
C320   C322    1.413   .     A
C321   H357    1.081   .     S
C321   C323    1.416   .     A
C322   C324    1.416   .     A
C322   H358    1.081   .     S
C323   C792    1.521   1_554 S
C324   C791    1.521   .     S
C325   O365    1.291   .     A
C325   C327    1.429   .     S
C325   O367    1.290   .     A
C326   O368    1.288   .     A
C326   O366    1.293   .     A
C326   C328    1.429   .     S
C328   C405    1.327   .     S
C328   H422    1.086   .     S
C329   C331    1.390   .     A
C329   H345    1.082   .     S
C329   C339    1.407   .     A
C330   C332    1.391   .     A
C330   C340    1.406   .     A
C330   H346    1.082   .     S
C331   C333    1.396   .     A
C331   H347    1.083   .     S
C332   C334    1.400   .     A
C332   H348    1.081   .     S
C333   C335    1.397   .     A
C334   C336    1.402   .     A
C335   H349    1.084   .     S
C335   C337    1.390   .     A
C336   C338    1.388   .     A
C336   H350    1.083   .     S
C337   C339    1.405   .     A
C337   H351    1.082   .     S
C338   C340    1.403   .     A
C338   H352    1.083   .     S
C340   C105    1.473   1_565 S
Cu341  O361    1.956   .     S
Cu341  N360    2.023   .     S
Cu341  Cu342   2.693   .     S
Cu341  O368    1.954   .     S
Cu341  O365    1.961   .     S
Cu341  O364    1.948   .     S
Cu342  O363    1.948   .     S
Cu342  O366    1.961   .     S
Cu342  O362    1.956   .     S
Cu342  N359    2.023   .     S
Cu342  O367    1.954   .     S
H343   C405    1.084   .     S
C369   C374    1.404   .     A
C369   C370    1.402   .     A
C370   C371    1.399   .     A
C370   H375    1.080   .     S
C371   H376    1.082   .     S
C371   C372    1.397   .     A
C372   C373    1.397   .     A
C372   H455    1.083   .     S
C373   C374    1.400   .     A
C373   H456    1.082   .     S
C374   H379    1.083   .     S
C380   C381    1.406   .     A
C380   C385    1.401   .     A
C381   C382    1.399   .     A
C381   H386    1.083   .     S
C382   C383    1.398   .     A
C382   H387    1.082   .     S
C383   H388    1.082   .     S
C383   C384    1.397   .     A
C384   C385    1.398   .     A
C385   H390    1.080   .     S
H389   C462    1.082   .     S
C391   C411    1.446   .     S
C391   O441    1.293   .     A
C391   O439    1.297   .     A
C392   O440    1.302   .     A
C392   C412    1.461   .     S
C392   O442    1.295   .     A
C393   H431    1.082   .     S
C393   C395    1.406   .     A
C393   C401    1.396   .     A
C394   H432    1.082   .     S
C394   C402    1.397   .     A
C394   C396    1.407   .     A
C395   C447    1.474   .     S
C395   N437    1.384   .     A
C396   C458    1.473   .     S
C396   N438    1.384   .     A
C397   H433    1.082   .     S
C397   N437    1.366   .     A
C397   C399    1.414   .     A
C398   N438    1.366   .     A
C398   H434    1.081   .     S
C398   C400    1.413   .     A
C399   H435    1.081   .     S
C399   C401    1.416   .     A
C400   C402    1.416   .     A
C400   H436    1.081   .     S
C401   C870    1.521   1_554 S
C402   C869    1.521   .     S
C403   O443    1.291   .     A
C403   C405    1.429   .     S
C403   O445    1.290   .     A
C404   O446    1.288   .     A
C404   O444    1.293   .     A
C404   C406    1.429   .     S
C406   C249    1.327   1_655 S
C406   H266    1.086   1_655 S
C407   C409    1.390   .     A
C407   H423    1.082   .     S
C407   C417    1.407   .     A
C408   C410    1.391   .     A
C408   C418    1.406   .     A
C408   H424    1.082   .     S
C409   C411    1.396   .     A
C409   H425    1.083   .     S
C410   C412    1.400   .     A
C410   H426    1.081   .     S
C411   C413    1.397   .     A
C412   C414    1.402   .     A
C413   H427    1.084   .     S
C413   C415    1.390   .     A
C414   C416    1.388   .     A
C414   H428    1.083   .     S
C415   C417    1.405   .     A
C415   H429    1.082   .     S
C416   C418    1.403   .     A
C416   H430    1.083   .     S
C418   C183    1.473   1_565 S
Cu419  O439    1.956   .     S
Cu419  N438    2.023   .     S
Cu419  Cu420   2.693   .     S
Cu419  O446    1.954   .     S
Cu419  O443    1.961   .     S
Cu419  O442    1.948   .     S
Cu420  O441    1.948   .     S
Cu420  O444    1.961   .     S
Cu420  O440    1.956   .     S
Cu420  N437    2.023   .     S
Cu420  O445    1.954   .     S
H421   C249    1.084   1_655 S
C447   C452    1.404   .     A
C447   C448    1.402   .     A
C448   C449    1.399   .     A
C448   H453    1.080   .     S
C449   H454    1.082   .     S
C449   C450    1.397   .     A
C450   C451    1.397   .     A
C450   H299    1.083   1_655 S
C451   C452    1.400   .     A
C451   H300    1.082   1_655 S
C452   H457    1.083   .     S
C458   C459    1.406   .     A
C458   C463    1.401   .     A
C459   C460    1.399   .     A
C459   H464    1.083   .     S
C460   C461    1.398   .     A
C460   H465    1.082   .     S
C461   H466    1.082   .     S
C461   C462    1.397   .     A
C462   C463    1.398   .     A
C463   H468    1.080   .     S
H467   C306    1.082   1_655 S
C469   C489    1.446   .     S
C469   O519    1.293   .     A
C469   O517    1.297   .     A
C470   O518    1.302   .     A
C470   C490    1.461   .     S
C470   O520    1.295   .     A
C471   H509    1.082   .     S
C471   C473    1.406   .     A
C471   C479    1.396   .     A
C472   H510    1.082   .     S
C472   C480    1.397   .     A
C472   C474    1.407   .     A
C473   C525    1.474   .     S
C473   N515    1.384   .     A
C474   C536    1.473   .     S
C474   N516    1.384   .     A
C475   H511    1.082   .     S
C475   N515    1.366   .     A
C475   C477    1.414   .     A
C476   N516    1.366   .     A
C476   H512    1.081   .     S
C476   C478    1.413   .     A
C477   H513    1.081   .     S
C477   C479    1.416   .     A
C478   C480    1.416   .     A
C478   H514    1.081   .     S
C480   C11     1.521   1_556 S
C481   O521    1.291   .     A
C481   C483    1.429   .     S
C481   O523    1.290   .     A
C482   O524    1.288   .     A
C482   O522    1.293   .     A
C482   C484    1.429   .     S
C483   C640    1.327   1_455 S
C483   H655    1.084   1_455 S
C484   C561    1.327   .     S
C484   H578    1.086   .     S
C485   C487    1.390   .     A
C485   H501    1.082   .     S
C485   C495    1.407   .     A
C486   C488    1.391   .     A
C486   C496    1.406   .     A
C486   H502    1.082   .     S
C487   C489    1.396   .     A
C487   H503    1.083   .     S
C488   C490    1.400   .     A
C488   H504    1.081   .     S
C489   C491    1.397   .     A
C490   C492    1.402   .     A
C491   H505    1.084   .     S
C491   C493    1.390   .     A
C492   C494    1.388   .     A
C492   H506    1.083   .     S
C493   C495    1.405   .     A
C493   H507    1.082   .     S
C494   C496    1.403   .     A
C494   H508    1.083   .     S
C495   C730    1.473   1_545 S
C496   C729    1.473   .     S
Cu497  O517    1.956   .     S
Cu497  N516    2.023   .     S
Cu497  Cu498   2.693   .     S
Cu497  O524    1.954   .     S
Cu497  O521    1.961   .     S
Cu497  O520    1.948   .     S
Cu498  O519    1.948   .     S
Cu498  O522    1.961   .     S
Cu498  O518    1.956   .     S
Cu498  N515    2.023   .     S
Cu498  O523    1.954   .     S
H499   C561    1.084   .     S
H500   C640    1.086   1_455 S
C525   C530    1.404   .     A
C525   C526    1.402   .     A
C526   C527    1.399   .     A
C526   H531    1.080   .     S
C527   H532    1.082   .     S
C527   C528    1.397   .     A
C528   C529    1.397   .     A
C528   H611    1.083   .     S
C529   C530    1.400   .     A
C529   H612    1.082   .     S
C530   H535    1.083   .     S
H533   C684    1.083   1_455 S
H534   C685    1.082   1_455 S
C536   C537    1.406   .     A
C536   C541    1.401   .     A
C537   C538    1.399   .     A
C537   H542    1.083   .     S
C538   C539    1.398   .     A
C538   H543    1.082   .     S
C539   H544    1.082   .     S
C539   C540    1.397   .     A
C540   C541    1.398   .     A
C540   H701    1.082   1_455 S
C541   H546    1.080   .     S
H545   C618    1.082   .     S
C547   C567    1.446   .     S
C547   O597    1.293   .     A
C547   O595    1.297   .     A
C548   O596    1.302   .     A
C548   C568    1.461   .     S
C548   O598    1.295   .     A
C549   H587    1.082   .     S
C549   C551    1.406   .     A
C549   C557    1.396   .     A
C550   H588    1.082   .     S
C550   C558    1.397   .     A
C550   C552    1.407   .     A
C551   C603    1.474   .     S
C551   N593    1.384   .     A
C552   C614    1.473   .     S
C552   N594    1.384   .     A
C553   H589    1.082   .     S
C553   N593    1.366   .     A
C553   C555    1.414   .     A
C554   N594    1.366   .     A
C554   H590    1.081   .     S
C554   C556    1.413   .     A
C555   H591    1.081   .     S
C555   C557    1.416   .     A
C556   C558    1.416   .     A
C556   H592    1.081   .     S
C558   C89     1.521   1_556 S
C559   O599    1.291   .     A
C559   C561    1.429   .     S
C559   O601    1.290   .     A
C560   O602    1.288   .     A
C560   O600    1.293   .     A
C560   C562    1.429   .     S
C562   C639    1.327   .     S
C562   H656    1.086   .     S
C563   C565    1.390   .     A
C563   H579    1.082   .     S
C563   C573    1.407   .     A
C564   C566    1.391   .     A
C564   C574    1.406   .     A
C564   H580    1.082   .     S
C565   C567    1.396   .     A
C565   H581    1.083   .     S
C566   C568    1.400   .     A
C566   H582    1.081   .     S
C567   C569    1.397   .     A
C568   C570    1.402   .     A
C569   H583    1.084   .     S
C569   C571    1.390   .     A
C570   C572    1.388   .     A
C570   H584    1.083   .     S
C571   C573    1.405   .     A
C571   H585    1.082   .     S
C572   C574    1.403   .     A
C572   H586    1.083   .     S
C573   C808    1.473   1_545 S
C574   C807    1.473   .     S
Cu575  O595    1.956   .     S
Cu575  N594    2.023   .     S
Cu575  Cu576   2.693   .     S
Cu575  O602    1.954   .     S
Cu575  O599    1.961   .     S
Cu575  O598    1.948   .     S
Cu576  O597    1.948   .     S
Cu576  O600    1.961   .     S
Cu576  O596    1.956   .     S
Cu576  N593    2.023   .     S
Cu576  O601    1.954   .     S
H577   C639    1.084   .     S
C603   C608    1.404   .     A
C603   C604    1.402   .     A
C604   C605    1.399   .     A
C604   H609    1.080   .     S
C605   H610    1.082   .     S
C605   C606    1.397   .     A
C606   C607    1.397   .     A
C606   H689    1.083   .     S
C607   C608    1.400   .     A
C607   H690    1.082   .     S
C608   H613    1.083   .     S
C614   C615    1.406   .     A
C614   C619    1.401   .     A
C615   C616    1.399   .     A
C615   H620    1.083   .     S
C616   C617    1.398   .     A
C616   H621    1.082   .     S
C617   H622    1.082   .     S
C617   C618    1.397   .     A
C618   C619    1.398   .     A
C619   H624    1.080   .     S
H623   C696    1.082   .     S
C625   C645    1.446   .     S
C625   O675    1.293   .     A
C625   O673    1.297   .     A
C626   O674    1.302   .     A
C626   C646    1.461   .     S
C626   O676    1.295   .     A
C627   H665    1.082   .     S
C627   C629    1.406   .     A
C627   C635    1.396   .     A
C628   H666    1.082   .     S
C628   C636    1.397   .     A
C628   C630    1.407   .     A
C629   C681    1.474   .     S
C629   N671    1.384   .     A
C630   C692    1.473   .     S
C630   N672    1.384   .     A
C631   H667    1.082   .     S
C631   N671    1.366   .     A
C631   C633    1.414   .     A
C632   N672    1.366   .     A
C632   H668    1.081   .     S
C632   C634    1.413   .     A
C633   H669    1.081   .     S
C633   C635    1.416   .     A
C634   C636    1.416   .     A
C634   H670    1.081   .     S
C636   C167    1.521   1_556 S
C637   O677    1.291   .     A
C637   C639    1.429   .     S
C637   O679    1.290   .     A
C638   O680    1.288   .     A
C638   O678    1.293   .     A
C638   C640    1.429   .     S
C640   C483    1.327   1_655 S
C640   H500    1.086   1_655 S
C641   C643    1.390   .     A
C641   H657    1.082   .     S
C641   C651    1.407   .     A
C642   C644    1.391   .     A
C642   C652    1.406   .     A
C642   H658    1.082   .     S
C643   C645    1.396   .     A
C643   H659    1.083   .     S
C644   C646    1.400   .     A
C644   H660    1.081   .     S
C645   C647    1.397   .     A
C646   C648    1.402   .     A
C647   H661    1.084   .     S
C647   C649    1.390   .     A
C648   C650    1.388   .     A
C648   H662    1.083   .     S
C649   C651    1.405   .     A
C649   H663    1.082   .     S
C650   C652    1.403   .     A
C650   H664    1.083   .     S
C651   C886    1.473   1_545 S
C652   C885    1.473   .     S
Cu653  O673    1.956   .     S
Cu653  N672    2.023   .     S
Cu653  Cu654   2.693   .     S
Cu653  O680    1.954   .     S
Cu653  O677    1.961   .     S
Cu653  O676    1.948   .     S
Cu654  O675    1.948   .     S
Cu654  O678    1.961   .     S
Cu654  O674    1.956   .     S
Cu654  N671    2.023   .     S
Cu654  O679    1.954   .     S
H655   C483    1.084   1_655 S
C681   C686    1.404   .     A
C681   C682    1.402   .     A
C682   C683    1.399   .     A
C682   H687    1.080   .     S
C683   H688    1.082   .     S
C683   C684    1.397   .     A
C684   C685    1.397   .     A
C684   H533    1.083   1_655 S
C685   C686    1.400   .     A
C685   H534    1.082   1_655 S
C686   H691    1.083   .     S
C692   C693    1.406   .     A
C692   C697    1.401   .     A
C693   C694    1.399   .     A
C693   H698    1.083   .     S
C694   C695    1.398   .     A
C694   H699    1.082   .     S
C695   H700    1.082   .     S
C695   C696    1.397   .     A
C696   C697    1.398   .     A
C697   H702    1.080   .     S
H701   C540    1.082   1_655 S
C703   C723    1.446   .     S
C703   O753    1.293   .     A
C703   O751    1.297   .     A
C704   O752    1.302   .     A
C704   C724    1.461   .     S
C704   O754    1.295   .     A
C705   H743    1.082   .     S
C705   C707    1.406   .     A
C705   C713    1.396   .     A
C706   H744    1.082   .     S
C706   C714    1.397   .     A
C706   C708    1.407   .     A
C707   C759    1.474   .     S
C707   N749    1.384   .     A
C708   C770    1.473   .     S
C708   N750    1.384   .     A
C709   H745    1.082   .     S
C709   N749    1.366   .     A
C709   C711    1.414   .     A
C710   N750    1.366   .     A
C710   H746    1.081   .     S
C710   C712    1.413   .     A
C711   H747    1.081   .     S
C711   C713    1.416   .     A
C712   C714    1.416   .     A
C712   H748    1.081   .     S
C714   C245    1.521   1_556 S
C715   O755    1.291   .     A
C715   C717    1.429   .     S
C715   O757    1.290   .     A
C716   O758    1.288   .     A
C716   O756    1.293   .     A
C716   C718    1.429   .     S
C717   C874    1.327   1_455 S
C717   H889    1.084   1_455 S
C718   C795    1.327   .     S
C718   H812    1.086   .     S
C719   C721    1.390   .     A
C719   H735    1.082   .     S
C719   C729    1.407   .     A
C720   C722    1.391   .     A
C720   C730    1.406   .     A
C720   H736    1.082   .     S
C721   C723    1.396   .     A
C721   H737    1.083   .     S
C722   C724    1.400   .     A
C722   H738    1.081   .     S
C723   C725    1.397   .     A
C724   C726    1.402   .     A
C725   H739    1.084   .     S
C725   C727    1.390   .     A
C726   C728    1.388   .     A
C726   H740    1.083   .     S
C727   C729    1.405   .     A
C727   H741    1.082   .     S
C728   C730    1.403   .     A
C728   H742    1.083   .     S
C730   C495    1.473   1_565 S
Cu731  O751    1.956   .     S
Cu731  N750    2.023   .     S
Cu731  Cu732   2.693   .     S
Cu731  O758    1.954   .     S
Cu731  O755    1.961   .     S
Cu731  O754    1.948   .     S
Cu732  O753    1.948   .     S
Cu732  O756    1.961   .     S
Cu732  O752    1.956   .     S
Cu732  N749    2.023   .     S
Cu732  O757    1.954   .     S
H733   C795    1.084   .     S
H734   C874    1.086   1_455 S
C759   C764    1.404   .     A
C759   C760    1.402   .     A
C760   C761    1.399   .     A
C760   H765    1.080   .     S
C761   H766    1.082   .     S
C761   C762    1.397   .     A
C762   C763    1.397   .     A
C762   H845    1.083   .     S
C763   C764    1.400   .     A
C763   H846    1.082   .     S
C764   H769    1.083   .     S
H767   C918    1.083   1_455 S
H768   C919    1.082   1_455 S
C770   C771    1.406   .     A
C770   C775    1.401   .     A
C771   C772    1.399   .     A
C771   H776    1.083   .     S
C772   C773    1.398   .     A
C772   H777    1.082   .     S
C773   H778    1.082   .     S
C773   C774    1.397   .     A
C774   C775    1.398   .     A
C774   H935    1.082   1_455 S
C775   H780    1.080   .     S
H779   C852    1.082   .     S
C781   C801    1.446   .     S
C781   O831    1.293   .     A
C781   O829    1.297   .     A
C782   O830    1.302   .     A
C782   C802    1.461   .     S
C782   O832    1.295   .     A
C783   H821    1.082   .     S
C783   C785    1.406   .     A
C783   C791    1.396   .     A
C784   H822    1.082   .     S
C784   C792    1.397   .     A
C784   C786    1.407   .     A
C785   C837    1.474   .     S
C785   N827    1.384   .     A
C786   C848    1.473   .     S
C786   N828    1.384   .     A
C787   H823    1.082   .     S
C787   N827    1.366   .     A
C787   C789    1.414   .     A
C788   N828    1.366   .     A
C788   H824    1.081   .     S
C788   C790    1.413   .     A
C789   H825    1.081   .     S
C789   C791    1.416   .     A
C790   C792    1.416   .     A
C790   H826    1.081   .     S
C792   C323    1.521   1_556 S
C793   O833    1.291   .     A
C793   C795    1.429   .     S
C793   O835    1.290   .     A
C794   O836    1.288   .     A
C794   O834    1.293   .     A
C794   C796    1.429   .     S
C796   C873    1.327   .     S
C796   H890    1.086   .     S
C797   C799    1.390   .     A
C797   H813    1.082   .     S
C797   C807    1.407   .     A
C798   C800    1.391   .     A
C798   C808    1.406   .     A
C798   H814    1.082   .     S
C799   C801    1.396   .     A
C799   H815    1.083   .     S
C800   C802    1.400   .     A
C800   H816    1.081   .     S
C801   C803    1.397   .     A
C802   C804    1.402   .     A
C803   H817    1.084   .     S
C803   C805    1.390   .     A
C804   C806    1.388   .     A
C804   H818    1.083   .     S
C805   C807    1.405   .     A
C805   H819    1.082   .     S
C806   C808    1.403   .     A
C806   H820    1.083   .     S
C808   C573    1.473   1_565 S
Cu809  O829    1.956   .     S
Cu809  N828    2.023   .     S
Cu809  Cu810   2.693   .     S
Cu809  O836    1.954   .     S
Cu809  O833    1.961   .     S
Cu809  O832    1.948   .     S
Cu810  O831    1.948   .     S
Cu810  O834    1.961   .     S
Cu810  O830    1.956   .     S
Cu810  N827    2.023   .     S
Cu810  O835    1.954   .     S
H811   C873    1.084   .     S
C837   C842    1.404   .     A
C837   C838    1.402   .     A
C838   C839    1.399   .     A
C838   H843    1.080   .     S
C839   H844    1.082   .     S
C839   C840    1.397   .     A
C840   C841    1.397   .     A
C840   H923    1.083   .     S
C841   C842    1.400   .     A
C841   H924    1.082   .     S
C842   H847    1.083   .     S
C848   C849    1.406   .     A
C848   C853    1.401   .     A
C849   C850    1.399   .     A
C849   H854    1.083   .     S
C850   C851    1.398   .     A
C850   H855    1.082   .     S
C851   H856    1.082   .     S
C851   C852    1.397   .     A
C852   C853    1.398   .     A
C853   H858    1.080   .     S
H857   C930    1.082   .     S
C859   C879    1.446   .     S
C859   O909    1.293   .     A
C859   O907    1.297   .     A
C860   O908    1.302   .     A
C860   C880    1.461   .     S
C860   O910    1.295   .     A
C861   H899    1.082   .     S
C861   C863    1.406   .     A
C861   C869    1.396   .     A
C862   H900    1.082   .     S
C862   C870    1.397   .     A
C862   C864    1.407   .     A
C863   C915    1.474   .     S
C863   N905    1.384   .     A
C864   C926    1.473   .     S
C864   N906    1.384   .     A
C865   H901    1.082   .     S
C865   N905    1.366   .     A
C865   C867    1.414   .     A
C866   N906    1.366   .     A
C866   H902    1.081   .     S
C866   C868    1.413   .     A
C867   H903    1.081   .     S
C867   C869    1.416   .     A
C868   C870    1.416   .     A
C868   H904    1.081   .     S
C870   C401    1.521   1_556 S
C871   O911    1.291   .     A
C871   C873    1.429   .     S
C871   O913    1.290   .     A
C872   O914    1.288   .     A
C872   O912    1.293   .     A
C872   C874    1.429   .     S
C874   C717    1.327   1_655 S
C874   H734    1.086   1_655 S
C875   C877    1.390   .     A
C875   H891    1.082   .     S
C875   C885    1.407   .     A
C876   C878    1.391   .     A
C876   C886    1.406   .     A
C876   H892    1.082   .     S
C877   C879    1.396   .     A
C877   H893    1.083   .     S
C878   C880    1.400   .     A
C878   H894    1.081   .     S
C879   C881    1.397   .     A
C880   C882    1.402   .     A
C881   H895    1.084   .     S
C881   C883    1.390   .     A
C882   C884    1.388   .     A
C882   H896    1.083   .     S
C883   C885    1.405   .     A
C883   H897    1.082   .     S
C884   C886    1.403   .     A
C884   H898    1.083   .     S
C886   C651    1.473   1_565 S
Cu887  O907    1.956   .     S
Cu887  N906    2.023   .     S
Cu887  Cu888   2.693   .     S
Cu887  O914    1.954   .     S
Cu887  O911    1.961   .     S
Cu887  O910    1.948   .     S
Cu888  O909    1.948   .     S
Cu888  O912    1.961   .     S
Cu888  O908    1.956   .     S
Cu888  N905    2.023   .     S
Cu888  O913    1.954   .     S
H889   C717    1.084   1_655 S
C915   C920    1.404   .     A
C915   C916    1.402   .     A
C916   C917    1.399   .     A
C916   H921    1.080   .     S
C917   H922    1.082   .     S
C917   C918    1.397   .     A
C918   C919    1.397   .     A
C918   H767    1.083   1_655 S
C919   C920    1.400   .     A
C919   H768    1.082   1_655 S
C920   H925    1.083   .     S
C926   C927    1.406   .     A
C926   C931    1.401   .     A
C927   C928    1.399   .     A
C927   H932    1.083   .     S
C928   C929    1.398   .     A
C928   H933    1.082   .     S
C929   H934    1.082   .     S
C929   C930    1.397   .     A
C930   C931    1.398   .     A
C931   H936    1.080   .     S
H935   C774    1.082   1_655 S
