data_str_m2_o10_o16_pcu_sym.112
_audit_creation_date              2020-01-03
_audit_creation_method            'Materials Studio'
_symmetry_space_group_name_H-M    'P1'
_symmetry_Int_Tables_number       1
_symmetry_cell_setting            triclinic
loop_
_symmetry_equiv_pos_as_xyz
  x,y,z
_cell_length_a                    22.2245
_cell_length_b                    26.1512
_cell_length_c                    26.7893
_cell_angle_alpha                 93.0318
_cell_angle_beta                  76.0952
_cell_angle_gamma                 102.3360
loop_
_atom_site_label
_atom_site_type_symbol
_atom_site_fract_x
_atom_site_fract_y
_atom_site_fract_z
_atom_site_U_iso_or_equiv
_atom_site_adp_type
_atom_site_occupancy
C1     C     0.18138   0.26650   0.25098   0.00000  Uiso   1.00
C2     C     0.14330   0.15168   0.48484   0.00000  Uiso   1.00
C3     C     0.15050   0.17496   0.43636   0.00000  Uiso   1.00
C4     C     0.18882   0.17161   0.01464   0.00000  Uiso   1.00
C5     C     0.24348   0.20954   0.49298   0.00000  Uiso   1.00
C6     C     0.24821   0.23288   0.44622   0.00000  Uiso   1.00
C7     C     0.20074   0.21800   0.42003   0.00000  Uiso   1.00
C8     C     0.17950   0.15838   0.06651   0.00000  Uiso   1.00
C9     C     0.28175   0.21252   0.07131   0.00000  Uiso   1.00
C10    C     0.10835   0.15448   0.40432   0.00000  Uiso   1.00
C11    C     0.18650   0.32171   0.25549   0.00000  Uiso   1.00
C12    C     0.13159   0.16269   0.34762   0.00000  Uiso   1.00
C13    C     0.15189   0.01306   0.23404   0.00000  Uiso   1.00
C14    C     0.15351   0.06715   0.24553   0.00000  Uiso   1.00
C15    C     0.20162   0.17169   0.15245   0.00000  Uiso   1.00
C16    C     0.29099   0.22685   0.01980   0.00000  Uiso   1.00
C17    C     0.22367   0.17947   0.09578   0.00000  Uiso   1.00
C18    C     0.05151   0.11792   0.42552   0.00000  Uiso   1.00
C19    C     0.04559   0.09440   0.47269   0.00000  Uiso   1.00
C20    C     0.09222   0.10854   0.00030   0.00000  Uiso   1.00
Cu21   Cu    0.10710   0.16105   0.24435   0.00000  Uiso   1.00
Cu22   Cu    0.22623   0.17228   0.25564   0.00000  Uiso   1.00
H23    H     0.00378   0.20608   0.28850   0.00000  Uiso   1.00
H24    H     0.32958   0.12729   0.21145   0.00000  Uiso   1.00
H25    H     0.28756   0.26446   0.43054   0.00000  Uiso   1.00
H26    H     0.13493   0.13560   0.08672   0.00000  Uiso   1.00
H27    H     0.20442   0.24035   0.38616   0.00000  Uiso   1.00
N28    N     0.31574   0.18074   0.26416   0.00000  Uiso   1.00
N29    N     0.01759   0.15259   0.23584   0.00000  Uiso   1.00
O30    O     0.12797   0.23807   0.24633   0.00000  Uiso   1.00
O31    O     0.22858   0.24755   0.25586   0.00000  Uiso   1.00
O32    O     0.09181   0.15960   0.31839   0.00000  Uiso   1.00
O33    O     0.19242   0.16908   0.32793   0.00000  Uiso   1.00
O34    O     0.10476   0.08578   0.24413   0.00000  Uiso   1.00
O35    O     0.20536   0.09526   0.25367   0.00000  Uiso   1.00
O36    O     0.14092   0.16425   0.17207   0.00000  Uiso   1.00
O37    O     0.24152   0.17373   0.18160   0.00000  Uiso   1.00
S38    S     0.00464   0.24401   0.10589   0.00000  Uiso   1.00
O39    O     0.02790   0.20372   0.12994   0.00000  Uiso   1.00
O40    O     0.06090   0.27889   0.07242   0.00000  Uiso   1.00
O41    O     0.30136   0.28058   0.15189   0.00000  Uiso   1.00
H42    H     0.28834   0.30639   0.13312   0.00000  Uiso   1.00
S43    S     0.10935   0.31842   0.18750   0.00000  Uiso   1.00
O44    O     0.14478   0.28261   0.15206   0.00000  Uiso   1.00
O45    O     0.04615   0.28771   0.21549   0.00000  Uiso   1.00
O46    O     0.09865   0.03216   0.15193   0.00000  Uiso   1.00
H47    H     0.05524   0.03756   0.16726   0.00000  Uiso   1.00
F48    F     0.01131   0.26063   0.49626   0.00000  Uiso   1.00
S49    S     0.32168   0.09858   0.39384   0.00000  Uiso   1.00
O50    O     0.30681   0.14635   0.37477   0.00000  Uiso   1.00
O51    O     0.00778   0.06367   0.34913   0.00000  Uiso   1.00
O52    O     0.25557   0.06608   0.43376   0.00000  Uiso   1.00
H53    H     0.22188   0.06269   0.41464   0.00000  Uiso   1.00
F54    F     0.08811   0.07675   0.03988   0.00000  Uiso   1.00
F55    F     0.32958   0.05442   0.49100   0.00000  Uiso   1.00
F56    F     0.22354   0.01385   0.28675   0.00000  Uiso   1.00
C57    C     0.51471   0.26650   0.25098   0.00000  Uiso   1.00
C58    C     0.47663   0.15168   0.48484   0.00000  Uiso   1.00
C59    C     0.48383   0.17496   0.43636   0.00000  Uiso   1.00
C60    C     0.52215   0.17161   0.01464   0.00000  Uiso   1.00
C61    C     0.57682   0.20954   0.49298   0.00000  Uiso   1.00
C62    C     0.58155   0.23288   0.44622   0.00000  Uiso   1.00
C63    C     0.53407   0.21800   0.42003   0.00000  Uiso   1.00
C64    C     0.51283   0.15838   0.06651   0.00000  Uiso   1.00
C65    C     0.61508   0.21252   0.07131   0.00000  Uiso   1.00
C66    C     0.44168   0.15448   0.40432   0.00000  Uiso   1.00
C67    C     0.51983   0.32171   0.25549   0.00000  Uiso   1.00
C68    C     0.46492   0.16269   0.34762   0.00000  Uiso   1.00
C69    C     0.48522   0.01306   0.23404   0.00000  Uiso   1.00
C70    C     0.48685   0.06715   0.24553   0.00000  Uiso   1.00
C71    C     0.53495   0.17169   0.15245   0.00000  Uiso   1.00
C72    C     0.62432   0.22685   0.01980   0.00000  Uiso   1.00
C73    C     0.55700   0.17947   0.09578   0.00000  Uiso   1.00
C74    C     0.38484   0.11792   0.42552   0.00000  Uiso   1.00
C75    C     0.37892   0.09440   0.47269   0.00000  Uiso   1.00
C76    C     0.42555   0.10854   0.00030   0.00000  Uiso   1.00
Cu77   Cu    0.44043   0.16105   0.24435   0.00000  Uiso   1.00
Cu78   Cu    0.55957   0.17228   0.25564   0.00000  Uiso   1.00
H79    H     0.33712   0.20608   0.28850   0.00000  Uiso   1.00
H80    H     0.66292   0.12729   0.21145   0.00000  Uiso   1.00
H81    H     0.62090   0.26446   0.43054   0.00000  Uiso   1.00
H82    H     0.46826   0.13560   0.08672   0.00000  Uiso   1.00
H83    H     0.53775   0.24035   0.38616   0.00000  Uiso   1.00
N84    N     0.64908   0.18074   0.26416   0.00000  Uiso   1.00
N85    N     0.35092   0.15259   0.23584   0.00000  Uiso   1.00
O86    O     0.46131   0.23807   0.24633   0.00000  Uiso   1.00
O87    O     0.56191   0.24755   0.25586   0.00000  Uiso   1.00
O88    O     0.42515   0.15960   0.31839   0.00000  Uiso   1.00
O89    O     0.52575   0.16908   0.32793   0.00000  Uiso   1.00
O90    O     0.43809   0.08578   0.24413   0.00000  Uiso   1.00
O91    O     0.53869   0.09526   0.25367   0.00000  Uiso   1.00
O92    O     0.47425   0.16425   0.17207   0.00000  Uiso   1.00
O93    O     0.57485   0.17373   0.18160   0.00000  Uiso   1.00
S94    S     0.33798   0.24401   0.10589   0.00000  Uiso   1.00
O95    O     0.36123   0.20372   0.12994   0.00000  Uiso   1.00
O96    O     0.39424   0.27889   0.07242   0.00000  Uiso   1.00
O97    O     0.63469   0.28058   0.15189   0.00000  Uiso   1.00
H98    H     0.62168   0.30639   0.13312   0.00000  Uiso   1.00
S99    S     0.44269   0.31842   0.18750   0.00000  Uiso   1.00
O100   O     0.47811   0.28261   0.15206   0.00000  Uiso   1.00
O101   O     0.37948   0.28771   0.21549   0.00000  Uiso   1.00
O102   O     0.43198   0.03216   0.15193   0.00000  Uiso   1.00
H103   H     0.38857   0.03756   0.16726   0.00000  Uiso   1.00
F104   F     0.34465   0.26063   0.49626   0.00000  Uiso   1.00
S105   S     0.65501   0.09858   0.39384   0.00000  Uiso   1.00
O106   O     0.64014   0.14635   0.37477   0.00000  Uiso   1.00
O107   O     0.34111   0.06367   0.34913   0.00000  Uiso   1.00
O108   O     0.58890   0.06608   0.43376   0.00000  Uiso   1.00
H109   H     0.55522   0.06269   0.41464   0.00000  Uiso   1.00
F110   F     0.42144   0.07675   0.03988   0.00000  Uiso   1.00
F111   F     0.66292   0.05442   0.49100   0.00000  Uiso   1.00
F112   F     0.55688   0.01385   0.28675   0.00000  Uiso   1.00
C113   C     0.84804   0.26650   0.25098   0.00000  Uiso   1.00
C114   C     0.80996   0.15168   0.48484   0.00000  Uiso   1.00
C115   C     0.81717   0.17496   0.43636   0.00000  Uiso   1.00
C116   C     0.85549   0.17161   0.01464   0.00000  Uiso   1.00
C117   C     0.91015   0.20954   0.49298   0.00000  Uiso   1.00
C118   C     0.91488   0.23288   0.44622   0.00000  Uiso   1.00
C119   C     0.86741   0.21800   0.42003   0.00000  Uiso   1.00
C120   C     0.84616   0.15838   0.06651   0.00000  Uiso   1.00
C121   C     0.94841   0.21252   0.07131   0.00000  Uiso   1.00
C122   C     0.77501   0.15448   0.40432   0.00000  Uiso   1.00
C123   C     0.85317   0.32171   0.25549   0.00000  Uiso   1.00
C124   C     0.79825   0.16269   0.34762   0.00000  Uiso   1.00
C125   C     0.81856   0.01306   0.23404   0.00000  Uiso   1.00
C126   C     0.82018   0.06715   0.24553   0.00000  Uiso   1.00
C127   C     0.86828   0.17169   0.15245   0.00000  Uiso   1.00
C128   C     0.95765   0.22685   0.01980   0.00000  Uiso   1.00
C129   C     0.89033   0.17947   0.09578   0.00000  Uiso   1.00
C130   C     0.71818   0.11792   0.42552   0.00000  Uiso   1.00
C131   C     0.71226   0.09440   0.47269   0.00000  Uiso   1.00
C132   C     0.75888   0.10854   0.00030   0.00000  Uiso   1.00
Cu133  Cu    0.77377   0.16105   0.24435   0.00000  Uiso   1.00
Cu134  Cu    0.89290   0.17228   0.25564   0.00000  Uiso   1.00
H135   H     0.67045   0.20608   0.28850   0.00000  Uiso   1.00
H136   H     0.99625   0.12729   0.21145   0.00000  Uiso   1.00
H137   H     0.95423   0.26446   0.43054   0.00000  Uiso   1.00
H138   H     0.80160   0.13560   0.08672   0.00000  Uiso   1.00
H139   H     0.87108   0.24035   0.38616   0.00000  Uiso   1.00
N140   N     0.98241   0.18074   0.26416   0.00000  Uiso   1.00
N141   N     0.68426   0.15259   0.23584   0.00000  Uiso   1.00
O142   O     0.79464   0.23807   0.24633   0.00000  Uiso   1.00
O143   O     0.89524   0.24755   0.25586   0.00000  Uiso   1.00
O144   O     0.75848   0.15960   0.31839   0.00000  Uiso   1.00
O145   O     0.85908   0.16908   0.32793   0.00000  Uiso   1.00
O146   O     0.77142   0.08578   0.24413   0.00000  Uiso   1.00
O147   O     0.87203   0.09526   0.25367   0.00000  Uiso   1.00
O148   O     0.80758   0.16425   0.17207   0.00000  Uiso   1.00
O149   O     0.90819   0.17373   0.18160   0.00000  Uiso   1.00
S150   S     0.67131   0.24401   0.10589   0.00000  Uiso   1.00
O151   O     0.69456   0.20372   0.12994   0.00000  Uiso   1.00
O152   O     0.72757   0.27889   0.07242   0.00000  Uiso   1.00
O153   O     0.96803   0.28058   0.15189   0.00000  Uiso   1.00
H154   H     0.95501   0.30639   0.13312   0.00000  Uiso   1.00
S155   S     0.77602   0.31842   0.18750   0.00000  Uiso   1.00
O156   O     0.81144   0.28261   0.15206   0.00000  Uiso   1.00
O157   O     0.71282   0.28771   0.21549   0.00000  Uiso   1.00
O158   O     0.76531   0.03216   0.15193   0.00000  Uiso   1.00
H159   H     0.72190   0.03756   0.16726   0.00000  Uiso   1.00
F160   F     0.67798   0.26063   0.49626   0.00000  Uiso   1.00
S161   S     0.98834   0.09858   0.39384   0.00000  Uiso   1.00
O162   O     0.97348   0.14635   0.37477   0.00000  Uiso   1.00
O163   O     0.67444   0.06367   0.34913   0.00000  Uiso   1.00
O164   O     0.92223   0.06608   0.43376   0.00000  Uiso   1.00
H165   H     0.88855   0.06269   0.41464   0.00000  Uiso   1.00
F166   F     0.75478   0.07675   0.03988   0.00000  Uiso   1.00
F167   F     0.99625   0.05442   0.49100   0.00000  Uiso   1.00
F168   F     0.89021   0.01385   0.28675   0.00000  Uiso   1.00
C169   C     0.18138   0.59983   0.25098   0.00000  Uiso   1.00
C170   C     0.14330   0.48501   0.48484   0.00000  Uiso   1.00
C171   C     0.15050   0.50829   0.43636   0.00000  Uiso   1.00
C172   C     0.18882   0.50495   0.01464   0.00000  Uiso   1.00
C173   C     0.24348   0.54287   0.49298   0.00000  Uiso   1.00
C174   C     0.24821   0.56621   0.44622   0.00000  Uiso   1.00
C175   C     0.20074   0.55134   0.42003   0.00000  Uiso   1.00
C176   C     0.17950   0.49172   0.06651   0.00000  Uiso   1.00
C177   C     0.28175   0.54585   0.07131   0.00000  Uiso   1.00
C178   C     0.10835   0.48781   0.40432   0.00000  Uiso   1.00
C179   C     0.18650   0.65504   0.25549   0.00000  Uiso   1.00
C180   C     0.13159   0.49603   0.34762   0.00000  Uiso   1.00
C181   C     0.15189   0.34639   0.23404   0.00000  Uiso   1.00
C182   C     0.15351   0.40049   0.24553   0.00000  Uiso   1.00
C183   C     0.20162   0.50503   0.15245   0.00000  Uiso   1.00
C184   C     0.29099   0.56018   0.01980   0.00000  Uiso   1.00
C185   C     0.22367   0.51280   0.09578   0.00000  Uiso   1.00
C186   C     0.05151   0.45126   0.42552   0.00000  Uiso   1.00
C187   C     0.04559   0.42774   0.47269   0.00000  Uiso   1.00
C188   C     0.09222   0.44187   0.00030   0.00000  Uiso   1.00
Cu189  Cu    0.10710   0.49439   0.24435   0.00000  Uiso   1.00
Cu190  Cu    0.22623   0.50561   0.25564   0.00000  Uiso   1.00
H191   H     0.00378   0.53942   0.28850   0.00000  Uiso   1.00
H192   H     0.32958   0.46062   0.21145   0.00000  Uiso   1.00
H193   H     0.28756   0.59779   0.43054   0.00000  Uiso   1.00
H194   H     0.13493   0.46893   0.08672   0.00000  Uiso   1.00
H195   H     0.20442   0.57368   0.38616   0.00000  Uiso   1.00
N196   N     0.31574   0.51407   0.26416   0.00000  Uiso   1.00
N197   N     0.01759   0.48593   0.23584   0.00000  Uiso   1.00
O198   O     0.12797   0.57141   0.24633   0.00000  Uiso   1.00
O199   O     0.22858   0.58089   0.25586   0.00000  Uiso   1.00
O200   O     0.09181   0.49293   0.31839   0.00000  Uiso   1.00
O201   O     0.19242   0.50241   0.32793   0.00000  Uiso   1.00
O202   O     0.10476   0.41911   0.24413   0.00000  Uiso   1.00
O203   O     0.20536   0.42859   0.25367   0.00000  Uiso   1.00
O204   O     0.14092   0.49759   0.17207   0.00000  Uiso   1.00
O205   O     0.24152   0.50707   0.18160   0.00000  Uiso   1.00
S206   S     0.00464   0.57734   0.10589   0.00000  Uiso   1.00
O207   O     0.02790   0.53706   0.12994   0.00000  Uiso   1.00
O208   O     0.06090   0.61223   0.07242   0.00000  Uiso   1.00
O209   O     0.30136   0.61392   0.15189   0.00000  Uiso   1.00
H210   H     0.28834   0.63973   0.13312   0.00000  Uiso   1.00
S211   S     0.10935   0.65175   0.18750   0.00000  Uiso   1.00
O212   O     0.14478   0.61595   0.15206   0.00000  Uiso   1.00
O213   O     0.04615   0.62104   0.21549   0.00000  Uiso   1.00
O214   O     0.09865   0.36550   0.15193   0.00000  Uiso   1.00
H215   H     0.05524   0.37089   0.16726   0.00000  Uiso   1.00
F216   F     0.01131   0.59396   0.49626   0.00000  Uiso   1.00
S217   S     0.32168   0.43191   0.39384   0.00000  Uiso   1.00
O218   O     0.30681   0.47968   0.37477   0.00000  Uiso   1.00
O219   O     0.00778   0.39700   0.34913   0.00000  Uiso   1.00
O220   O     0.25557   0.39941   0.43376   0.00000  Uiso   1.00
H221   H     0.22188   0.39602   0.41464   0.00000  Uiso   1.00
F222   F     0.08811   0.41009   0.03988   0.00000  Uiso   1.00
F223   F     0.32958   0.38775   0.49100   0.00000  Uiso   1.00
F224   F     0.22354   0.34718   0.28675   0.00000  Uiso   1.00
C225   C     0.51471   0.59983   0.25098   0.00000  Uiso   1.00
C226   C     0.47663   0.48501   0.48484   0.00000  Uiso   1.00
C227   C     0.48383   0.50829   0.43636   0.00000  Uiso   1.00
C228   C     0.52215   0.50495   0.01464   0.00000  Uiso   1.00
C229   C     0.57682   0.54287   0.49298   0.00000  Uiso   1.00
C230   C     0.58155   0.56621   0.44622   0.00000  Uiso   1.00
C231   C     0.53407   0.55134   0.42003   0.00000  Uiso   1.00
C232   C     0.51283   0.49172   0.06651   0.00000  Uiso   1.00
C233   C     0.61508   0.54585   0.07131   0.00000  Uiso   1.00
C234   C     0.44168   0.48781   0.40432   0.00000  Uiso   1.00
C235   C     0.51983   0.65504   0.25549   0.00000  Uiso   1.00
C236   C     0.46492   0.49603   0.34762   0.00000  Uiso   1.00
C237   C     0.48522   0.34639   0.23404   0.00000  Uiso   1.00
C238   C     0.48685   0.40049   0.24553   0.00000  Uiso   1.00
C239   C     0.53495   0.50503   0.15245   0.00000  Uiso   1.00
C240   C     0.62432   0.56018   0.01980   0.00000  Uiso   1.00
C241   C     0.55700   0.51280   0.09578   0.00000  Uiso   1.00
C242   C     0.38484   0.45126   0.42552   0.00000  Uiso   1.00
C243   C     0.37892   0.42774   0.47269   0.00000  Uiso   1.00
C244   C     0.42555   0.44187   0.00030   0.00000  Uiso   1.00
Cu245  Cu    0.44043   0.49439   0.24435   0.00000  Uiso   1.00
Cu246  Cu    0.55957   0.50561   0.25564   0.00000  Uiso   1.00
H247   H     0.33712   0.53942   0.28850   0.00000  Uiso   1.00
H248   H     0.66292   0.46062   0.21145   0.00000  Uiso   1.00
H249   H     0.62090   0.59779   0.43054   0.00000  Uiso   1.00
H250   H     0.46826   0.46893   0.08672   0.00000  Uiso   1.00
H251   H     0.53775   0.57368   0.38616   0.00000  Uiso   1.00
N252   N     0.64908   0.51407   0.26416   0.00000  Uiso   1.00
N253   N     0.35092   0.48593   0.23584   0.00000  Uiso   1.00
O254   O     0.46131   0.57141   0.24633   0.00000  Uiso   1.00
O255   O     0.56191   0.58089   0.25586   0.00000  Uiso   1.00
O256   O     0.42515   0.49293   0.31839   0.00000  Uiso   1.00
O257   O     0.52575   0.50241   0.32793   0.00000  Uiso   1.00
O258   O     0.43809   0.41911   0.24413   0.00000  Uiso   1.00
O259   O     0.53869   0.42859   0.25367   0.00000  Uiso   1.00
O260   O     0.47425   0.49759   0.17207   0.00000  Uiso   1.00
O261   O     0.57485   0.50707   0.18160   0.00000  Uiso   1.00
S262   S     0.33798   0.57734   0.10589   0.00000  Uiso   1.00
O263   O     0.36123   0.53706   0.12994   0.00000  Uiso   1.00
O264   O     0.39424   0.61223   0.07242   0.00000  Uiso   1.00
O265   O     0.63469   0.61392   0.15189   0.00000  Uiso   1.00
H266   H     0.62168   0.63973   0.13312   0.00000  Uiso   1.00
S267   S     0.44269   0.65175   0.18750   0.00000  Uiso   1.00
O268   O     0.47811   0.61595   0.15206   0.00000  Uiso   1.00
O269   O     0.37948   0.62104   0.21549   0.00000  Uiso   1.00
O270   O     0.43198   0.36550   0.15193   0.00000  Uiso   1.00
H271   H     0.38857   0.37089   0.16726   0.00000  Uiso   1.00
F272   F     0.34465   0.59396   0.49626   0.00000  Uiso   1.00
S273   S     0.65501   0.43191   0.39384   0.00000  Uiso   1.00
O274   O     0.64014   0.47968   0.37477   0.00000  Uiso   1.00
O275   O     0.34111   0.39700   0.34913   0.00000  Uiso   1.00
O276   O     0.58890   0.39941   0.43376   0.00000  Uiso   1.00
H277   H     0.55522   0.39602   0.41464   0.00000  Uiso   1.00
F278   F     0.42144   0.41009   0.03988   0.00000  Uiso   1.00
F279   F     0.66292   0.38775   0.49100   0.00000  Uiso   1.00
F280   F     0.55688   0.34718   0.28675   0.00000  Uiso   1.00
C281   C     0.84804   0.59983   0.25098   0.00000  Uiso   1.00
C282   C     0.80996   0.48501   0.48484   0.00000  Uiso   1.00
C283   C     0.81717   0.50829   0.43636   0.00000  Uiso   1.00
C284   C     0.85549   0.50495   0.01464   0.00000  Uiso   1.00
C285   C     0.91015   0.54287   0.49298   0.00000  Uiso   1.00
C286   C     0.91488   0.56621   0.44622   0.00000  Uiso   1.00
C287   C     0.86741   0.55134   0.42003   0.00000  Uiso   1.00
C288   C     0.84616   0.49172   0.06651   0.00000  Uiso   1.00
C289   C     0.94841   0.54585   0.07131   0.00000  Uiso   1.00
C290   C     0.77501   0.48781   0.40432   0.00000  Uiso   1.00
C291   C     0.85317   0.65504   0.25549   0.00000  Uiso   1.00
C292   C     0.79825   0.49603   0.34762   0.00000  Uiso   1.00
C293   C     0.81856   0.34639   0.23404   0.00000  Uiso   1.00
C294   C     0.82018   0.40049   0.24553   0.00000  Uiso   1.00
C295   C     0.86828   0.50503   0.15245   0.00000  Uiso   1.00
C296   C     0.95765   0.56018   0.01980   0.00000  Uiso   1.00
C297   C     0.89033   0.51280   0.09578   0.00000  Uiso   1.00
C298   C     0.71818   0.45126   0.42552   0.00000  Uiso   1.00
C299   C     0.71226   0.42774   0.47269   0.00000  Uiso   1.00
C300   C     0.75888   0.44187   0.00030   0.00000  Uiso   1.00
Cu301  Cu    0.77377   0.49439   0.24435   0.00000  Uiso   1.00
Cu302  Cu    0.89290   0.50561   0.25564   0.00000  Uiso   1.00
H303   H     0.67045   0.53942   0.28850   0.00000  Uiso   1.00
H304   H     0.99625   0.46062   0.21145   0.00000  Uiso   1.00
H305   H     0.95423   0.59779   0.43054   0.00000  Uiso   1.00
H306   H     0.80160   0.46893   0.08672   0.00000  Uiso   1.00
H307   H     0.87108   0.57368   0.38616   0.00000  Uiso   1.00
N308   N     0.98241   0.51407   0.26416   0.00000  Uiso   1.00
N309   N     0.68426   0.48593   0.23584   0.00000  Uiso   1.00
O310   O     0.79464   0.57141   0.24633   0.00000  Uiso   1.00
O311   O     0.89524   0.58089   0.25586   0.00000  Uiso   1.00
O312   O     0.75848   0.49293   0.31839   0.00000  Uiso   1.00
O313   O     0.85908   0.50241   0.32793   0.00000  Uiso   1.00
O314   O     0.77142   0.41911   0.24413   0.00000  Uiso   1.00
O315   O     0.87203   0.42859   0.25367   0.00000  Uiso   1.00
O316   O     0.80758   0.49759   0.17207   0.00000  Uiso   1.00
O317   O     0.90819   0.50707   0.18160   0.00000  Uiso   1.00
S318   S     0.67131   0.57734   0.10589   0.00000  Uiso   1.00
O319   O     0.69456   0.53706   0.12994   0.00000  Uiso   1.00
O320   O     0.72757   0.61223   0.07242   0.00000  Uiso   1.00
O321   O     0.96803   0.61392   0.15189   0.00000  Uiso   1.00
H322   H     0.95501   0.63973   0.13312   0.00000  Uiso   1.00
S323   S     0.77602   0.65175   0.18750   0.00000  Uiso   1.00
O324   O     0.81144   0.61595   0.15206   0.00000  Uiso   1.00
O325   O     0.71282   0.62104   0.21549   0.00000  Uiso   1.00
O326   O     0.76531   0.36550   0.15193   0.00000  Uiso   1.00
H327   H     0.72190   0.37089   0.16726   0.00000  Uiso   1.00
F328   F     0.67798   0.59396   0.49626   0.00000  Uiso   1.00
S329   S     0.98834   0.43191   0.39384   0.00000  Uiso   1.00
O330   O     0.97348   0.47968   0.37477   0.00000  Uiso   1.00
O331   O     0.67444   0.39700   0.34913   0.00000  Uiso   1.00
O332   O     0.92223   0.39941   0.43376   0.00000  Uiso   1.00
H333   H     0.88855   0.39602   0.41464   0.00000  Uiso   1.00
F334   F     0.75478   0.41009   0.03988   0.00000  Uiso   1.00
F335   F     0.99625   0.38775   0.49100   0.00000  Uiso   1.00
F336   F     0.89021   0.34718   0.28675   0.00000  Uiso   1.00
C337   C     0.18138   0.93316   0.25098   0.00000  Uiso   1.00
C338   C     0.14330   0.81835   0.48484   0.00000  Uiso   1.00
C339   C     0.15050   0.84162   0.43636   0.00000  Uiso   1.00
C340   C     0.18882   0.83828   0.01464   0.00000  Uiso   1.00
C341   C     0.24348   0.87620   0.49298   0.00000  Uiso   1.00
C342   C     0.24821   0.89955   0.44622   0.00000  Uiso   1.00
C343   C     0.20074   0.88467   0.42003   0.00000  Uiso   1.00
C344   C     0.17950   0.82505   0.06651   0.00000  Uiso   1.00
C345   C     0.28175   0.87919   0.07131   0.00000  Uiso   1.00
C346   C     0.10835   0.82115   0.40432   0.00000  Uiso   1.00
C347   C     0.18650   0.98838   0.25549   0.00000  Uiso   1.00
C348   C     0.13159   0.82936   0.34762   0.00000  Uiso   1.00
C349   C     0.15189   0.67973   0.23404   0.00000  Uiso   1.00
C350   C     0.15351   0.73382   0.24553   0.00000  Uiso   1.00
C351   C     0.20162   0.83836   0.15245   0.00000  Uiso   1.00
C352   C     0.29099   0.89352   0.01980   0.00000  Uiso   1.00
C353   C     0.22367   0.84613   0.09578   0.00000  Uiso   1.00
C354   C     0.05151   0.78459   0.42552   0.00000  Uiso   1.00
C355   C     0.04559   0.76107   0.47269   0.00000  Uiso   1.00
C356   C     0.09222   0.77521   0.00030   0.00000  Uiso   1.00
Cu357  Cu    0.10710   0.82772   0.24435   0.00000  Uiso   1.00
Cu358  Cu    0.22623   0.83895   0.25564   0.00000  Uiso   1.00
H359   H     0.00378   0.87275   0.28850   0.00000  Uiso   1.00
H360   H     0.32958   0.79396   0.21145   0.00000  Uiso   1.00
H361   H     0.28756   0.93112   0.43054   0.00000  Uiso   1.00
H362   H     0.13493   0.80226   0.08672   0.00000  Uiso   1.00
H363   H     0.20442   0.90701   0.38616   0.00000  Uiso   1.00
N364   N     0.31574   0.84741   0.26416   0.00000  Uiso   1.00
N365   N     0.01759   0.81926   0.23584   0.00000  Uiso   1.00
O366   O     0.12797   0.90474   0.24633   0.00000  Uiso   1.00
O367   O     0.22858   0.91422   0.25586   0.00000  Uiso   1.00
O368   O     0.09181   0.82627   0.31839   0.00000  Uiso   1.00
O369   O     0.19242   0.83575   0.32793   0.00000  Uiso   1.00
O370   O     0.10476   0.75245   0.24413   0.00000  Uiso   1.00
O371   O     0.20536   0.76193   0.25367   0.00000  Uiso   1.00
O372   O     0.14092   0.83092   0.17207   0.00000  Uiso   1.00
O373   O     0.24152   0.84040   0.18160   0.00000  Uiso   1.00
S374   S     0.00464   0.91068   0.10589   0.00000  Uiso   1.00
O375   O     0.02790   0.87039   0.12994   0.00000  Uiso   1.00
O376   O     0.06090   0.94556   0.07242   0.00000  Uiso   1.00
O377   O     0.30136   0.94725   0.15189   0.00000  Uiso   1.00
H378   H     0.28834   0.97306   0.13312   0.00000  Uiso   1.00
S379   S     0.10935   0.98508   0.18750   0.00000  Uiso   1.00
O380   O     0.14478   0.94928   0.15206   0.00000  Uiso   1.00
O381   O     0.04615   0.95437   0.21549   0.00000  Uiso   1.00
O382   O     0.09865   0.69883   0.15193   0.00000  Uiso   1.00
H383   H     0.05524   0.70423   0.16726   0.00000  Uiso   1.00
F384   F     0.01131   0.92730   0.49626   0.00000  Uiso   1.00
S385   S     0.32168   0.76525   0.39384   0.00000  Uiso   1.00
O386   O     0.30681   0.81302   0.37477   0.00000  Uiso   1.00
O387   O     0.00778   0.73034   0.34913   0.00000  Uiso   1.00
O388   O     0.25557   0.73274   0.43376   0.00000  Uiso   1.00
H389   H     0.22188   0.72936   0.41464   0.00000  Uiso   1.00
F390   F     0.08811   0.74342   0.03988   0.00000  Uiso   1.00
F391   F     0.32958   0.72109   0.49100   0.00000  Uiso   1.00
F392   F     0.22354   0.68052   0.28675   0.00000  Uiso   1.00
C393   C     0.51471   0.93316   0.25098   0.00000  Uiso   1.00
C394   C     0.47663   0.81835   0.48484   0.00000  Uiso   1.00
C395   C     0.48383   0.84162   0.43636   0.00000  Uiso   1.00
C396   C     0.52215   0.83828   0.01464   0.00000  Uiso   1.00
C397   C     0.57682   0.87620   0.49298   0.00000  Uiso   1.00
C398   C     0.58155   0.89955   0.44622   0.00000  Uiso   1.00
C399   C     0.53407   0.88467   0.42003   0.00000  Uiso   1.00
C400   C     0.51283   0.82505   0.06651   0.00000  Uiso   1.00
C401   C     0.61508   0.87919   0.07131   0.00000  Uiso   1.00
C402   C     0.44168   0.82115   0.40432   0.00000  Uiso   1.00
C403   C     0.51983   0.98838   0.25549   0.00000  Uiso   1.00
C404   C     0.46492   0.82936   0.34762   0.00000  Uiso   1.00
C405   C     0.48522   0.67973   0.23404   0.00000  Uiso   1.00
C406   C     0.48685   0.73382   0.24553   0.00000  Uiso   1.00
C407   C     0.53495   0.83836   0.15245   0.00000  Uiso   1.00
C408   C     0.62432   0.89352   0.01980   0.00000  Uiso   1.00
C409   C     0.55700   0.84613   0.09578   0.00000  Uiso   1.00
C410   C     0.38484   0.78459   0.42552   0.00000  Uiso   1.00
C411   C     0.37892   0.76107   0.47269   0.00000  Uiso   1.00
C412   C     0.42555   0.77521   0.00030   0.00000  Uiso   1.00
Cu413  Cu    0.44043   0.82772   0.24435   0.00000  Uiso   1.00
Cu414  Cu    0.55957   0.83895   0.25564   0.00000  Uiso   1.00
H415   H     0.33712   0.87275   0.28850   0.00000  Uiso   1.00
H416   H     0.66292   0.79396   0.21145   0.00000  Uiso   1.00
H417   H     0.62090   0.93112   0.43054   0.00000  Uiso   1.00
H418   H     0.46826   0.80226   0.08672   0.00000  Uiso   1.00
H419   H     0.53775   0.90701   0.38616   0.00000  Uiso   1.00
N420   N     0.64908   0.84741   0.26416   0.00000  Uiso   1.00
N421   N     0.35092   0.81926   0.23584   0.00000  Uiso   1.00
O422   O     0.46131   0.90474   0.24633   0.00000  Uiso   1.00
O423   O     0.56191   0.91422   0.25586   0.00000  Uiso   1.00
O424   O     0.42515   0.82627   0.31839   0.00000  Uiso   1.00
O425   O     0.52575   0.83575   0.32793   0.00000  Uiso   1.00
O426   O     0.43809   0.75245   0.24413   0.00000  Uiso   1.00
O427   O     0.53869   0.76193   0.25367   0.00000  Uiso   1.00
O428   O     0.47425   0.83092   0.17207   0.00000  Uiso   1.00
O429   O     0.57485   0.84040   0.18160   0.00000  Uiso   1.00
S430   S     0.33798   0.91068   0.10589   0.00000  Uiso   1.00
O431   O     0.36123   0.87039   0.12994   0.00000  Uiso   1.00
O432   O     0.39424   0.94556   0.07242   0.00000  Uiso   1.00
O433   O     0.63469   0.94725   0.15189   0.00000  Uiso   1.00
H434   H     0.62168   0.97306   0.13312   0.00000  Uiso   1.00
S435   S     0.44269   0.98508   0.18750   0.00000  Uiso   1.00
O436   O     0.47811   0.94928   0.15206   0.00000  Uiso   1.00
O437   O     0.37948   0.95437   0.21549   0.00000  Uiso   1.00
O438   O     0.43198   0.69883   0.15193   0.00000  Uiso   1.00
H439   H     0.38857   0.70423   0.16726   0.00000  Uiso   1.00
F440   F     0.34465   0.92730   0.49626   0.00000  Uiso   1.00
S441   S     0.65501   0.76525   0.39384   0.00000  Uiso   1.00
O442   O     0.64014   0.81302   0.37477   0.00000  Uiso   1.00
O443   O     0.34111   0.73034   0.34913   0.00000  Uiso   1.00
O444   O     0.58890   0.73274   0.43376   0.00000  Uiso   1.00
H445   H     0.55522   0.72936   0.41464   0.00000  Uiso   1.00
F446   F     0.42144   0.74342   0.03988   0.00000  Uiso   1.00
F447   F     0.66292   0.72109   0.49100   0.00000  Uiso   1.00
F448   F     0.55688   0.68052   0.28675   0.00000  Uiso   1.00
C449   C     0.84804   0.93316   0.25098   0.00000  Uiso   1.00
C450   C     0.80996   0.81835   0.48484   0.00000  Uiso   1.00
C451   C     0.81717   0.84162   0.43636   0.00000  Uiso   1.00
C452   C     0.85549   0.83828   0.01464   0.00000  Uiso   1.00
C453   C     0.91015   0.87620   0.49298   0.00000  Uiso   1.00
C454   C     0.91488   0.89955   0.44622   0.00000  Uiso   1.00
C455   C     0.86741   0.88467   0.42003   0.00000  Uiso   1.00
C456   C     0.84616   0.82505   0.06651   0.00000  Uiso   1.00
C457   C     0.94841   0.87919   0.07131   0.00000  Uiso   1.00
C458   C     0.77501   0.82115   0.40432   0.00000  Uiso   1.00
C459   C     0.85317   0.98838   0.25549   0.00000  Uiso   1.00
C460   C     0.79825   0.82936   0.34762   0.00000  Uiso   1.00
C461   C     0.81856   0.67973   0.23404   0.00000  Uiso   1.00
C462   C     0.82018   0.73382   0.24553   0.00000  Uiso   1.00
C463   C     0.86828   0.83836   0.15245   0.00000  Uiso   1.00
C464   C     0.95765   0.89352   0.01980   0.00000  Uiso   1.00
C465   C     0.89033   0.84613   0.09578   0.00000  Uiso   1.00
C466   C     0.71818   0.78459   0.42552   0.00000  Uiso   1.00
C467   C     0.71226   0.76107   0.47269   0.00000  Uiso   1.00
C468   C     0.75888   0.77521   0.00030   0.00000  Uiso   1.00
Cu469  Cu    0.77377   0.82772   0.24435   0.00000  Uiso   1.00
Cu470  Cu    0.89290   0.83895   0.25564   0.00000  Uiso   1.00
H471   H     0.67045   0.87275   0.28850   0.00000  Uiso   1.00
H472   H     0.99625   0.79396   0.21145   0.00000  Uiso   1.00
H473   H     0.95423   0.93112   0.43054   0.00000  Uiso   1.00
H474   H     0.80160   0.80226   0.08672   0.00000  Uiso   1.00
H475   H     0.87108   0.90701   0.38616   0.00000  Uiso   1.00
N476   N     0.98241   0.84741   0.26416   0.00000  Uiso   1.00
N477   N     0.68426   0.81926   0.23584   0.00000  Uiso   1.00
O478   O     0.79464   0.90474   0.24633   0.00000  Uiso   1.00
O479   O     0.89524   0.91422   0.25586   0.00000  Uiso   1.00
O480   O     0.75848   0.82627   0.31839   0.00000  Uiso   1.00
O481   O     0.85908   0.83575   0.32793   0.00000  Uiso   1.00
O482   O     0.77142   0.75245   0.24413   0.00000  Uiso   1.00
O483   O     0.87203   0.76193   0.25367   0.00000  Uiso   1.00
O484   O     0.80758   0.83092   0.17207   0.00000  Uiso   1.00
O485   O     0.90819   0.84040   0.18160   0.00000  Uiso   1.00
S486   S     0.67131   0.91068   0.10589   0.00000  Uiso   1.00
O487   O     0.69456   0.87039   0.12994   0.00000  Uiso   1.00
O488   O     0.72757   0.94556   0.07242   0.00000  Uiso   1.00
O489   O     0.96803   0.94725   0.15189   0.00000  Uiso   1.00
H490   H     0.95501   0.97306   0.13312   0.00000  Uiso   1.00
S491   S     0.77602   0.98508   0.18750   0.00000  Uiso   1.00
O492   O     0.81144   0.94928   0.15206   0.00000  Uiso   1.00
O493   O     0.71282   0.95437   0.21549   0.00000  Uiso   1.00
O494   O     0.76531   0.69883   0.15193   0.00000  Uiso   1.00
H495   H     0.72190   0.70423   0.16726   0.00000  Uiso   1.00
F496   F     0.67798   0.92730   0.49626   0.00000  Uiso   1.00
S497   S     0.98834   0.76525   0.39384   0.00000  Uiso   1.00
O498   O     0.97348   0.81302   0.37477   0.00000  Uiso   1.00
O499   O     0.67444   0.73034   0.34913   0.00000  Uiso   1.00
O500   O     0.92223   0.73274   0.43376   0.00000  Uiso   1.00
H501   H     0.88855   0.72936   0.41464   0.00000  Uiso   1.00
F502   F     0.75478   0.74342   0.03988   0.00000  Uiso   1.00
F503   F     0.99625   0.72109   0.49100   0.00000  Uiso   1.00
F504   F     0.89021   0.68052   0.28675   0.00000  Uiso   1.00
C505   C     0.18138   0.26650   0.75098   0.00000  Uiso   1.00
C506   C     0.14330   0.15168   0.98484   0.00000  Uiso   1.00
C507   C     0.15050   0.17496   0.93636   0.00000  Uiso   1.00
C508   C     0.18882   0.17161   0.51464   0.00000  Uiso   1.00
C509   C     0.24348   0.20954   0.99298   0.00000  Uiso   1.00
C510   C     0.24821   0.23288   0.94622   0.00000  Uiso   1.00
C511   C     0.20074   0.21800   0.92003   0.00000  Uiso   1.00
C512   C     0.17950   0.15838   0.56651   0.00000  Uiso   1.00
C513   C     0.28175   0.21252   0.57131   0.00000  Uiso   1.00
C514   C     0.10835   0.15448   0.90432   0.00000  Uiso   1.00
C515   C     0.18650   0.32171   0.75549   0.00000  Uiso   1.00
C516   C     0.13159   0.16269   0.84762   0.00000  Uiso   1.00
C517   C     0.15189   0.01306   0.73404   0.00000  Uiso   1.00
C518   C     0.15351   0.06715   0.74553   0.00000  Uiso   1.00
C519   C     0.20162   0.17169   0.65245   0.00000  Uiso   1.00
C520   C     0.29099   0.22685   0.51980   0.00000  Uiso   1.00
C521   C     0.22367   0.17947   0.59578   0.00000  Uiso   1.00
C522   C     0.05151   0.11792   0.92552   0.00000  Uiso   1.00
C523   C     0.04559   0.09440   0.97269   0.00000  Uiso   1.00
C524   C     0.09222   0.10854   0.50030   0.00000  Uiso   1.00
Cu525  Cu    0.10710   0.16105   0.74435   0.00000  Uiso   1.00
Cu526  Cu    0.22623   0.17228   0.75564   0.00000  Uiso   1.00
H527   H     0.00378   0.20608   0.78850   0.00000  Uiso   1.00
H528   H     0.32958   0.12729   0.71145   0.00000  Uiso   1.00
H529   H     0.28756   0.26446   0.93054   0.00000  Uiso   1.00
H530   H     0.13493   0.13560   0.58672   0.00000  Uiso   1.00
H531   H     0.20442   0.24035   0.88616   0.00000  Uiso   1.00
N532   N     0.31574   0.18074   0.76416   0.00000  Uiso   1.00
N533   N     0.01759   0.15259   0.73584   0.00000  Uiso   1.00
O534   O     0.12797   0.23807   0.74633   0.00000  Uiso   1.00
O535   O     0.22858   0.24755   0.75586   0.00000  Uiso   1.00
O536   O     0.09181   0.15960   0.81839   0.00000  Uiso   1.00
O537   O     0.19242   0.16908   0.82793   0.00000  Uiso   1.00
O538   O     0.10476   0.08578   0.74413   0.00000  Uiso   1.00
O539   O     0.20536   0.09526   0.75367   0.00000  Uiso   1.00
O540   O     0.14092   0.16425   0.67207   0.00000  Uiso   1.00
O541   O     0.24152   0.17373   0.68160   0.00000  Uiso   1.00
S542   S     0.00464   0.24401   0.60589   0.00000  Uiso   1.00
O543   O     0.02790   0.20372   0.62994   0.00000  Uiso   1.00
O544   O     0.06090   0.27889   0.57242   0.00000  Uiso   1.00
O545   O     0.30136   0.28058   0.65189   0.00000  Uiso   1.00
H546   H     0.28834   0.30639   0.63312   0.00000  Uiso   1.00
S547   S     0.10935   0.31842   0.68750   0.00000  Uiso   1.00
O548   O     0.14478   0.28261   0.65206   0.00000  Uiso   1.00
O549   O     0.04615   0.28771   0.71549   0.00000  Uiso   1.00
O550   O     0.09865   0.03216   0.65193   0.00000  Uiso   1.00
H551   H     0.05524   0.03756   0.66726   0.00000  Uiso   1.00
F552   F     0.01131   0.26063   0.99626   0.00000  Uiso   1.00
S553   S     0.32168   0.09858   0.89384   0.00000  Uiso   1.00
O554   O     0.30681   0.14635   0.87477   0.00000  Uiso   1.00
O555   O     0.00778   0.06367   0.84913   0.00000  Uiso   1.00
O556   O     0.25557   0.06608   0.93376   0.00000  Uiso   1.00
H557   H     0.22188   0.06269   0.91464   0.00000  Uiso   1.00
F558   F     0.08811   0.07675   0.53988   0.00000  Uiso   1.00
F559   F     0.32958   0.05442   0.99100   0.00000  Uiso   1.00
F560   F     0.22354   0.01385   0.78675   0.00000  Uiso   1.00
C561   C     0.51471   0.26650   0.75098   0.00000  Uiso   1.00
C562   C     0.47663   0.15168   0.98484   0.00000  Uiso   1.00
C563   C     0.48383   0.17496   0.93636   0.00000  Uiso   1.00
C564   C     0.52215   0.17161   0.51464   0.00000  Uiso   1.00
C565   C     0.57682   0.20954   0.99298   0.00000  Uiso   1.00
C566   C     0.58155   0.23288   0.94622   0.00000  Uiso   1.00
C567   C     0.53407   0.21800   0.92003   0.00000  Uiso   1.00
C568   C     0.51283   0.15838   0.56651   0.00000  Uiso   1.00
C569   C     0.61508   0.21252   0.57131   0.00000  Uiso   1.00
C570   C     0.44168   0.15448   0.90432   0.00000  Uiso   1.00
C571   C     0.51983   0.32171   0.75549   0.00000  Uiso   1.00
C572   C     0.46492   0.16269   0.84762   0.00000  Uiso   1.00
C573   C     0.48522   0.01306   0.73404   0.00000  Uiso   1.00
C574   C     0.48685   0.06715   0.74553   0.00000  Uiso   1.00
C575   C     0.53495   0.17169   0.65245   0.00000  Uiso   1.00
C576   C     0.62432   0.22685   0.51980   0.00000  Uiso   1.00
C577   C     0.55700   0.17947   0.59578   0.00000  Uiso   1.00
C578   C     0.38484   0.11792   0.92552   0.00000  Uiso   1.00
C579   C     0.37892   0.09440   0.97269   0.00000  Uiso   1.00
C580   C     0.42555   0.10854   0.50030   0.00000  Uiso   1.00
Cu581  Cu    0.44043   0.16105   0.74435   0.00000  Uiso   1.00
Cu582  Cu    0.55957   0.17228   0.75564   0.00000  Uiso   1.00
H583   H     0.33712   0.20608   0.78850   0.00000  Uiso   1.00
H584   H     0.66292   0.12729   0.71145   0.00000  Uiso   1.00
H585   H     0.62090   0.26446   0.93054   0.00000  Uiso   1.00
H586   H     0.46826   0.13560   0.58672   0.00000  Uiso   1.00
H587   H     0.53775   0.24035   0.88616   0.00000  Uiso   1.00
N588   N     0.64908   0.18074   0.76416   0.00000  Uiso   1.00
N589   N     0.35092   0.15259   0.73584   0.00000  Uiso   1.00
O590   O     0.46131   0.23807   0.74633   0.00000  Uiso   1.00
O591   O     0.56191   0.24755   0.75586   0.00000  Uiso   1.00
O592   O     0.42515   0.15960   0.81839   0.00000  Uiso   1.00
O593   O     0.52575   0.16908   0.82793   0.00000  Uiso   1.00
O594   O     0.43809   0.08578   0.74413   0.00000  Uiso   1.00
O595   O     0.53869   0.09526   0.75367   0.00000  Uiso   1.00
O596   O     0.47425   0.16425   0.67207   0.00000  Uiso   1.00
O597   O     0.57485   0.17373   0.68160   0.00000  Uiso   1.00
S598   S     0.33798   0.24401   0.60589   0.00000  Uiso   1.00
O599   O     0.36123   0.20372   0.62994   0.00000  Uiso   1.00
O600   O     0.39424   0.27889   0.57242   0.00000  Uiso   1.00
O601   O     0.63469   0.28058   0.65189   0.00000  Uiso   1.00
H602   H     0.62168   0.30639   0.63312   0.00000  Uiso   1.00
S603   S     0.44269   0.31842   0.68750   0.00000  Uiso   1.00
O604   O     0.47811   0.28261   0.65206   0.00000  Uiso   1.00
O605   O     0.37948   0.28771   0.71549   0.00000  Uiso   1.00
O606   O     0.43198   0.03216   0.65193   0.00000  Uiso   1.00
H607   H     0.38857   0.03756   0.66726   0.00000  Uiso   1.00
F608   F     0.34465   0.26063   0.99626   0.00000  Uiso   1.00
S609   S     0.65501   0.09858   0.89384   0.00000  Uiso   1.00
O610   O     0.64014   0.14635   0.87477   0.00000  Uiso   1.00
O611   O     0.34111   0.06367   0.84913   0.00000  Uiso   1.00
O612   O     0.58890   0.06608   0.93376   0.00000  Uiso   1.00
H613   H     0.55522   0.06269   0.91464   0.00000  Uiso   1.00
F614   F     0.42144   0.07675   0.53988   0.00000  Uiso   1.00
F615   F     0.66292   0.05442   0.99100   0.00000  Uiso   1.00
F616   F     0.55688   0.01385   0.78675   0.00000  Uiso   1.00
C617   C     0.84804   0.26650   0.75098   0.00000  Uiso   1.00
C618   C     0.80996   0.15168   0.98484   0.00000  Uiso   1.00
C619   C     0.81717   0.17496   0.93636   0.00000  Uiso   1.00
C620   C     0.85549   0.17161   0.51464   0.00000  Uiso   1.00
C621   C     0.91015   0.20954   0.99298   0.00000  Uiso   1.00
C622   C     0.91488   0.23288   0.94622   0.00000  Uiso   1.00
C623   C     0.86741   0.21800   0.92003   0.00000  Uiso   1.00
C624   C     0.84616   0.15838   0.56651   0.00000  Uiso   1.00
C625   C     0.94841   0.21252   0.57131   0.00000  Uiso   1.00
C626   C     0.77501   0.15448   0.90432   0.00000  Uiso   1.00
C627   C     0.85317   0.32171   0.75549   0.00000  Uiso   1.00
C628   C     0.79825   0.16269   0.84762   0.00000  Uiso   1.00
C629   C     0.81856   0.01306   0.73404   0.00000  Uiso   1.00
C630   C     0.82018   0.06715   0.74553   0.00000  Uiso   1.00
C631   C     0.86828   0.17169   0.65245   0.00000  Uiso   1.00
C632   C     0.95765   0.22685   0.51980   0.00000  Uiso   1.00
C633   C     0.89033   0.17947   0.59578   0.00000  Uiso   1.00
C634   C     0.71818   0.11792   0.92552   0.00000  Uiso   1.00
C635   C     0.71226   0.09440   0.97269   0.00000  Uiso   1.00
C636   C     0.75888   0.10854   0.50030   0.00000  Uiso   1.00
Cu637  Cu    0.77377   0.16105   0.74435   0.00000  Uiso   1.00
Cu638  Cu    0.89290   0.17228   0.75564   0.00000  Uiso   1.00
H639   H     0.67045   0.20608   0.78850   0.00000  Uiso   1.00
H640   H     0.99625   0.12729   0.71145   0.00000  Uiso   1.00
H641   H     0.95423   0.26446   0.93054   0.00000  Uiso   1.00
H642   H     0.80160   0.13560   0.58672   0.00000  Uiso   1.00
H643   H     0.87108   0.24035   0.88616   0.00000  Uiso   1.00
N644   N     0.98241   0.18074   0.76416   0.00000  Uiso   1.00
N645   N     0.68426   0.15259   0.73584   0.00000  Uiso   1.00
O646   O     0.79464   0.23807   0.74633   0.00000  Uiso   1.00
O647   O     0.89524   0.24755   0.75586   0.00000  Uiso   1.00
O648   O     0.75848   0.15960   0.81839   0.00000  Uiso   1.00
O649   O     0.85908   0.16908   0.82793   0.00000  Uiso   1.00
O650   O     0.77142   0.08578   0.74413   0.00000  Uiso   1.00
O651   O     0.87203   0.09526   0.75367   0.00000  Uiso   1.00
O652   O     0.80758   0.16425   0.67207   0.00000  Uiso   1.00
O653   O     0.90819   0.17373   0.68160   0.00000  Uiso   1.00
S654   S     0.67131   0.24401   0.60589   0.00000  Uiso   1.00
O655   O     0.69456   0.20372   0.62994   0.00000  Uiso   1.00
O656   O     0.72757   0.27889   0.57242   0.00000  Uiso   1.00
O657   O     0.96803   0.28058   0.65189   0.00000  Uiso   1.00
H658   H     0.95501   0.30639   0.63312   0.00000  Uiso   1.00
S659   S     0.77602   0.31842   0.68750   0.00000  Uiso   1.00
O660   O     0.81144   0.28261   0.65206   0.00000  Uiso   1.00
O661   O     0.71282   0.28771   0.71549   0.00000  Uiso   1.00
O662   O     0.76531   0.03216   0.65193   0.00000  Uiso   1.00
H663   H     0.72190   0.03756   0.66726   0.00000  Uiso   1.00
F664   F     0.67798   0.26063   0.99626   0.00000  Uiso   1.00
S665   S     0.98834   0.09858   0.89384   0.00000  Uiso   1.00
O666   O     0.97348   0.14635   0.87477   0.00000  Uiso   1.00
O667   O     0.67444   0.06367   0.84913   0.00000  Uiso   1.00
O668   O     0.92223   0.06608   0.93376   0.00000  Uiso   1.00
H669   H     0.88855   0.06269   0.91464   0.00000  Uiso   1.00
F670   F     0.75478   0.07675   0.53988   0.00000  Uiso   1.00
F671   F     0.99625   0.05442   0.99100   0.00000  Uiso   1.00
F672   F     0.89021   0.01385   0.78675   0.00000  Uiso   1.00
C673   C     0.18138   0.59983   0.75098   0.00000  Uiso   1.00
C674   C     0.14330   0.48501   0.98484   0.00000  Uiso   1.00
C675   C     0.15050   0.50829   0.93636   0.00000  Uiso   1.00
C676   C     0.18882   0.50495   0.51464   0.00000  Uiso   1.00
C677   C     0.24348   0.54287   0.99298   0.00000  Uiso   1.00
C678   C     0.24821   0.56621   0.94622   0.00000  Uiso   1.00
C679   C     0.20074   0.55134   0.92003   0.00000  Uiso   1.00
C680   C     0.17950   0.49172   0.56651   0.00000  Uiso   1.00
C681   C     0.28175   0.54585   0.57131   0.00000  Uiso   1.00
C682   C     0.10835   0.48781   0.90432   0.00000  Uiso   1.00
C683   C     0.18650   0.65504   0.75549   0.00000  Uiso   1.00
C684   C     0.13159   0.49603   0.84762   0.00000  Uiso   1.00
C685   C     0.15189   0.34639   0.73404   0.00000  Uiso   1.00
C686   C     0.15351   0.40049   0.74553   0.00000  Uiso   1.00
C687   C     0.20162   0.50503   0.65245   0.00000  Uiso   1.00
C688   C     0.29099   0.56018   0.51980   0.00000  Uiso   1.00
C689   C     0.22367   0.51280   0.59578   0.00000  Uiso   1.00
C690   C     0.05151   0.45126   0.92552   0.00000  Uiso   1.00
C691   C     0.04559   0.42774   0.97269   0.00000  Uiso   1.00
C692   C     0.09222   0.44187   0.50030   0.00000  Uiso   1.00
Cu693  Cu    0.10710   0.49439   0.74435   0.00000  Uiso   1.00
Cu694  Cu    0.22623   0.50561   0.75564   0.00000  Uiso   1.00
H695   H     0.00378   0.53942   0.78850   0.00000  Uiso   1.00
H696   H     0.32958   0.46062   0.71145   0.00000  Uiso   1.00
H697   H     0.28756   0.59779   0.93054   0.00000  Uiso   1.00
H698   H     0.13493   0.46893   0.58672   0.00000  Uiso   1.00
H699   H     0.20442   0.57368   0.88616   0.00000  Uiso   1.00
N700   N     0.31574   0.51407   0.76416   0.00000  Uiso   1.00
N701   N     0.01759   0.48593   0.73584   0.00000  Uiso   1.00
O702   O     0.12797   0.57141   0.74633   0.00000  Uiso   1.00
O703   O     0.22858   0.58089   0.75586   0.00000  Uiso   1.00
O704   O     0.09181   0.49293   0.81839   0.00000  Uiso   1.00
O705   O     0.19242   0.50241   0.82793   0.00000  Uiso   1.00
O706   O     0.10476   0.41911   0.74413   0.00000  Uiso   1.00
O707   O     0.20536   0.42859   0.75367   0.00000  Uiso   1.00
O708   O     0.14092   0.49759   0.67207   0.00000  Uiso   1.00
O709   O     0.24152   0.50707   0.68160   0.00000  Uiso   1.00
S710   S     0.00464   0.57734   0.60589   0.00000  Uiso   1.00
O711   O     0.02790   0.53706   0.62994   0.00000  Uiso   1.00
O712   O     0.06090   0.61223   0.57242   0.00000  Uiso   1.00
O713   O     0.30136   0.61392   0.65189   0.00000  Uiso   1.00
H714   H     0.28834   0.63973   0.63312   0.00000  Uiso   1.00
S715   S     0.10935   0.65175   0.68750   0.00000  Uiso   1.00
O716   O     0.14478   0.61595   0.65206   0.00000  Uiso   1.00
O717   O     0.04615   0.62104   0.71549   0.00000  Uiso   1.00
O718   O     0.09865   0.36550   0.65193   0.00000  Uiso   1.00
H719   H     0.05524   0.37089   0.66726   0.00000  Uiso   1.00
F720   F     0.01131   0.59396   0.99626   0.00000  Uiso   1.00
S721   S     0.32168   0.43191   0.89384   0.00000  Uiso   1.00
O722   O     0.30681   0.47968   0.87477   0.00000  Uiso   1.00
O723   O     0.00778   0.39700   0.84913   0.00000  Uiso   1.00
O724   O     0.25557   0.39941   0.93376   0.00000  Uiso   1.00
H725   H     0.22188   0.39602   0.91464   0.00000  Uiso   1.00
F726   F     0.08811   0.41009   0.53988   0.00000  Uiso   1.00
F727   F     0.32958   0.38775   0.99100   0.00000  Uiso   1.00
F728   F     0.22354   0.34718   0.78675   0.00000  Uiso   1.00
C729   C     0.51471   0.59983   0.75098   0.00000  Uiso   1.00
C730   C     0.47663   0.48501   0.98484   0.00000  Uiso   1.00
C731   C     0.48383   0.50829   0.93636   0.00000  Uiso   1.00
C732   C     0.52215   0.50495   0.51464   0.00000  Uiso   1.00
C733   C     0.57682   0.54287   0.99298   0.00000  Uiso   1.00
C734   C     0.58155   0.56621   0.94622   0.00000  Uiso   1.00
C735   C     0.53407   0.55134   0.92003   0.00000  Uiso   1.00
C736   C     0.51283   0.49172   0.56651   0.00000  Uiso   1.00
C737   C     0.61508   0.54585   0.57131   0.00000  Uiso   1.00
C738   C     0.44168   0.48781   0.90432   0.00000  Uiso   1.00
C739   C     0.51983   0.65504   0.75549   0.00000  Uiso   1.00
C740   C     0.46492   0.49603   0.84762   0.00000  Uiso   1.00
C741   C     0.48522   0.34639   0.73404   0.00000  Uiso   1.00
C742   C     0.48685   0.40049   0.74553   0.00000  Uiso   1.00
C743   C     0.53495   0.50503   0.65245   0.00000  Uiso   1.00
C744   C     0.62432   0.56018   0.51980   0.00000  Uiso   1.00
C745   C     0.55700   0.51280   0.59578   0.00000  Uiso   1.00
C746   C     0.38484   0.45126   0.92552   0.00000  Uiso   1.00
C747   C     0.37892   0.42774   0.97269   0.00000  Uiso   1.00
C748   C     0.42555   0.44187   0.50030   0.00000  Uiso   1.00
Cu749  Cu    0.44043   0.49439   0.74435   0.00000  Uiso   1.00
Cu750  Cu    0.55957   0.50561   0.75564   0.00000  Uiso   1.00
H751   H     0.33712   0.53942   0.78850   0.00000  Uiso   1.00
H752   H     0.66292   0.46062   0.71145   0.00000  Uiso   1.00
H753   H     0.62090   0.59779   0.93054   0.00000  Uiso   1.00
H754   H     0.46826   0.46893   0.58672   0.00000  Uiso   1.00
H755   H     0.53775   0.57368   0.88616   0.00000  Uiso   1.00
N756   N     0.64908   0.51407   0.76416   0.00000  Uiso   1.00
N757   N     0.35092   0.48593   0.73584   0.00000  Uiso   1.00
O758   O     0.46131   0.57141   0.74633   0.00000  Uiso   1.00
O759   O     0.56191   0.58089   0.75586   0.00000  Uiso   1.00
O760   O     0.42515   0.49293   0.81839   0.00000  Uiso   1.00
O761   O     0.52575   0.50241   0.82793   0.00000  Uiso   1.00
O762   O     0.43809   0.41911   0.74413   0.00000  Uiso   1.00
O763   O     0.53869   0.42859   0.75367   0.00000  Uiso   1.00
O764   O     0.47425   0.49759   0.67207   0.00000  Uiso   1.00
O765   O     0.57485   0.50707   0.68160   0.00000  Uiso   1.00
S766   S     0.33798   0.57734   0.60589   0.00000  Uiso   1.00
O767   O     0.36123   0.53706   0.62994   0.00000  Uiso   1.00
O768   O     0.39424   0.61223   0.57242   0.00000  Uiso   1.00
O769   O     0.63469   0.61392   0.65189   0.00000  Uiso   1.00
H770   H     0.62168   0.63973   0.63312   0.00000  Uiso   1.00
S771   S     0.44269   0.65175   0.68750   0.00000  Uiso   1.00
O772   O     0.47811   0.61595   0.65206   0.00000  Uiso   1.00
O773   O     0.37948   0.62104   0.71549   0.00000  Uiso   1.00
O774   O     0.43198   0.36550   0.65193   0.00000  Uiso   1.00
H775   H     0.38857   0.37089   0.66726   0.00000  Uiso   1.00
F776   F     0.34465   0.59396   0.99626   0.00000  Uiso   1.00
S777   S     0.65501   0.43191   0.89384   0.00000  Uiso   1.00
O778   O     0.64014   0.47968   0.87477   0.00000  Uiso   1.00
O779   O     0.34111   0.39700   0.84913   0.00000  Uiso   1.00
O780   O     0.58890   0.39941   0.93376   0.00000  Uiso   1.00
H781   H     0.55522   0.39602   0.91464   0.00000  Uiso   1.00
F782   F     0.42144   0.41009   0.53988   0.00000  Uiso   1.00
F783   F     0.66292   0.38775   0.99100   0.00000  Uiso   1.00
F784   F     0.55688   0.34718   0.78675   0.00000  Uiso   1.00
C785   C     0.84804   0.59983   0.75098   0.00000  Uiso   1.00
C786   C     0.80996   0.48501   0.98484   0.00000  Uiso   1.00
C787   C     0.81717   0.50829   0.93636   0.00000  Uiso   1.00
C788   C     0.85549   0.50495   0.51464   0.00000  Uiso   1.00
C789   C     0.91015   0.54287   0.99298   0.00000  Uiso   1.00
C790   C     0.91488   0.56621   0.94622   0.00000  Uiso   1.00
C791   C     0.86741   0.55134   0.92003   0.00000  Uiso   1.00
C792   C     0.84616   0.49172   0.56651   0.00000  Uiso   1.00
C793   C     0.94841   0.54585   0.57131   0.00000  Uiso   1.00
C794   C     0.77501   0.48781   0.90432   0.00000  Uiso   1.00
C795   C     0.85317   0.65504   0.75549   0.00000  Uiso   1.00
C796   C     0.79825   0.49603   0.84762   0.00000  Uiso   1.00
C797   C     0.81856   0.34639   0.73404   0.00000  Uiso   1.00
C798   C     0.82018   0.40049   0.74553   0.00000  Uiso   1.00
C799   C     0.86828   0.50503   0.65245   0.00000  Uiso   1.00
C800   C     0.95765   0.56018   0.51980   0.00000  Uiso   1.00
C801   C     0.89033   0.51280   0.59578   0.00000  Uiso   1.00
C802   C     0.71818   0.45126   0.92552   0.00000  Uiso   1.00
C803   C     0.71226   0.42774   0.97269   0.00000  Uiso   1.00
C804   C     0.75888   0.44187   0.50030   0.00000  Uiso   1.00
Cu805  Cu    0.77377   0.49439   0.74435   0.00000  Uiso   1.00
Cu806  Cu    0.89290   0.50561   0.75564   0.00000  Uiso   1.00
H807   H     0.67045   0.53942   0.78850   0.00000  Uiso   1.00
H808   H     0.99625   0.46062   0.71145   0.00000  Uiso   1.00
H809   H     0.95423   0.59779   0.93054   0.00000  Uiso   1.00
H810   H     0.80160   0.46893   0.58672   0.00000  Uiso   1.00
H811   H     0.87108   0.57368   0.88616   0.00000  Uiso   1.00
N812   N     0.98241   0.51407   0.76416   0.00000  Uiso   1.00
N813   N     0.68426   0.48593   0.73584   0.00000  Uiso   1.00
O814   O     0.79464   0.57141   0.74633   0.00000  Uiso   1.00
O815   O     0.89524   0.58089   0.75586   0.00000  Uiso   1.00
O816   O     0.75848   0.49293   0.81839   0.00000  Uiso   1.00
O817   O     0.85908   0.50241   0.82793   0.00000  Uiso   1.00
O818   O     0.77142   0.41911   0.74413   0.00000  Uiso   1.00
O819   O     0.87203   0.42859   0.75367   0.00000  Uiso   1.00
O820   O     0.80758   0.49759   0.67207   0.00000  Uiso   1.00
O821   O     0.90819   0.50707   0.68160   0.00000  Uiso   1.00
S822   S     0.67131   0.57734   0.60589   0.00000  Uiso   1.00
O823   O     0.69456   0.53706   0.62994   0.00000  Uiso   1.00
O824   O     0.72757   0.61223   0.57242   0.00000  Uiso   1.00
O825   O     0.96803   0.61392   0.65189   0.00000  Uiso   1.00
H826   H     0.95501   0.63973   0.63312   0.00000  Uiso   1.00
S827   S     0.77602   0.65175   0.68750   0.00000  Uiso   1.00
O828   O     0.81144   0.61595   0.65206   0.00000  Uiso   1.00
O829   O     0.71282   0.62104   0.71549   0.00000  Uiso   1.00
O830   O     0.76531   0.36550   0.65193   0.00000  Uiso   1.00
H831   H     0.72190   0.37089   0.66726   0.00000  Uiso   1.00
F832   F     0.67798   0.59396   0.99626   0.00000  Uiso   1.00
S833   S     0.98834   0.43191   0.89384   0.00000  Uiso   1.00
O834   O     0.97348   0.47968   0.87477   0.00000  Uiso   1.00
O835   O     0.67444   0.39700   0.84913   0.00000  Uiso   1.00
O836   O     0.92223   0.39941   0.93376   0.00000  Uiso   1.00
H837   H     0.88855   0.39602   0.91464   0.00000  Uiso   1.00
F838   F     0.75478   0.41009   0.53988   0.00000  Uiso   1.00
F839   F     0.99625   0.38775   0.99100   0.00000  Uiso   1.00
F840   F     0.89021   0.34718   0.78675   0.00000  Uiso   1.00
C841   C     0.18138   0.93316   0.75098   0.00000  Uiso   1.00
C842   C     0.14330   0.81835   0.98484   0.00000  Uiso   1.00
C843   C     0.15050   0.84162   0.93636   0.00000  Uiso   1.00
C844   C     0.18882   0.83828   0.51464   0.00000  Uiso   1.00
C845   C     0.24348   0.87620   0.99298   0.00000  Uiso   1.00
C846   C     0.24821   0.89955   0.94622   0.00000  Uiso   1.00
C847   C     0.20074   0.88467   0.92003   0.00000  Uiso   1.00
C848   C     0.17950   0.82505   0.56651   0.00000  Uiso   1.00
C849   C     0.28175   0.87919   0.57131   0.00000  Uiso   1.00
C850   C     0.10835   0.82115   0.90432   0.00000  Uiso   1.00
C851   C     0.18650   0.98838   0.75549   0.00000  Uiso   1.00
C852   C     0.13159   0.82936   0.84762   0.00000  Uiso   1.00
C853   C     0.15189   0.67973   0.73404   0.00000  Uiso   1.00
C854   C     0.15351   0.73382   0.74553   0.00000  Uiso   1.00
C855   C     0.20162   0.83836   0.65245   0.00000  Uiso   1.00
C856   C     0.29099   0.89352   0.51980   0.00000  Uiso   1.00
C857   C     0.22367   0.84613   0.59578   0.00000  Uiso   1.00
C858   C     0.05151   0.78459   0.92552   0.00000  Uiso   1.00
C859   C     0.04559   0.76107   0.97269   0.00000  Uiso   1.00
C860   C     0.09222   0.77521   0.50030   0.00000  Uiso   1.00
Cu861  Cu    0.10710   0.82772   0.74435   0.00000  Uiso   1.00
Cu862  Cu    0.22623   0.83895   0.75564   0.00000  Uiso   1.00
H863   H     0.00378   0.87275   0.78850   0.00000  Uiso   1.00
H864   H     0.32958   0.79396   0.71145   0.00000  Uiso   1.00
H865   H     0.28756   0.93112   0.93054   0.00000  Uiso   1.00
H866   H     0.13493   0.80226   0.58672   0.00000  Uiso   1.00
H867   H     0.20442   0.90701   0.88616   0.00000  Uiso   1.00
N868   N     0.31574   0.84741   0.76416   0.00000  Uiso   1.00
N869   N     0.01759   0.81926   0.73584   0.00000  Uiso   1.00
O870   O     0.12797   0.90474   0.74633   0.00000  Uiso   1.00
O871   O     0.22858   0.91422   0.75586   0.00000  Uiso   1.00
O872   O     0.09181   0.82627   0.81839   0.00000  Uiso   1.00
O873   O     0.19242   0.83575   0.82793   0.00000  Uiso   1.00
O874   O     0.10476   0.75245   0.74413   0.00000  Uiso   1.00
O875   O     0.20536   0.76193   0.75367   0.00000  Uiso   1.00
O876   O     0.14092   0.83092   0.67207   0.00000  Uiso   1.00
O877   O     0.24152   0.84040   0.68160   0.00000  Uiso   1.00
S878   S     0.00464   0.91068   0.60589   0.00000  Uiso   1.00
O879   O     0.02790   0.87039   0.62994   0.00000  Uiso   1.00
O880   O     0.06090   0.94556   0.57242   0.00000  Uiso   1.00
O881   O     0.30136   0.94725   0.65189   0.00000  Uiso   1.00
H882   H     0.28834   0.97306   0.63312   0.00000  Uiso   1.00
S883   S     0.10935   0.98508   0.68750   0.00000  Uiso   1.00
O884   O     0.14478   0.94928   0.65206   0.00000  Uiso   1.00
O885   O     0.04615   0.95437   0.71549   0.00000  Uiso   1.00
O886   O     0.09865   0.69883   0.65193   0.00000  Uiso   1.00
H887   H     0.05524   0.70423   0.66726   0.00000  Uiso   1.00
F888   F     0.01131   0.92730   0.99626   0.00000  Uiso   1.00
S889   S     0.32168   0.76525   0.89384   0.00000  Uiso   1.00
O890   O     0.30681   0.81302   0.87477   0.00000  Uiso   1.00
O891   O     0.00778   0.73034   0.84913   0.00000  Uiso   1.00
O892   O     0.25557   0.73274   0.93376   0.00000  Uiso   1.00
H893   H     0.22188   0.72936   0.91464   0.00000  Uiso   1.00
F894   F     0.08811   0.74342   0.53988   0.00000  Uiso   1.00
F895   F     0.32958   0.72109   0.99100   0.00000  Uiso   1.00
F896   F     0.22354   0.68052   0.78675   0.00000  Uiso   1.00
C897   C     0.51471   0.93316   0.75098   0.00000  Uiso   1.00
C898   C     0.47663   0.81835   0.98484   0.00000  Uiso   1.00
C899   C     0.48383   0.84162   0.93636   0.00000  Uiso   1.00
C900   C     0.52215   0.83828   0.51464   0.00000  Uiso   1.00
C901   C     0.57682   0.87620   0.99298   0.00000  Uiso   1.00
C902   C     0.58155   0.89955   0.94622   0.00000  Uiso   1.00
C903   C     0.53407   0.88467   0.92003   0.00000  Uiso   1.00
C904   C     0.51283   0.82505   0.56651   0.00000  Uiso   1.00
C905   C     0.61508   0.87919   0.57131   0.00000  Uiso   1.00
C906   C     0.44168   0.82115   0.90432   0.00000  Uiso   1.00
C907   C     0.51983   0.98838   0.75549   0.00000  Uiso   1.00
C908   C     0.46492   0.82936   0.84762   0.00000  Uiso   1.00
C909   C     0.48522   0.67973   0.73404   0.00000  Uiso   1.00
C910   C     0.48685   0.73382   0.74553   0.00000  Uiso   1.00
C911   C     0.53495   0.83836   0.65245   0.00000  Uiso   1.00
C912   C     0.62432   0.89352   0.51980   0.00000  Uiso   1.00
C913   C     0.55700   0.84613   0.59578   0.00000  Uiso   1.00
C914   C     0.38484   0.78459   0.92552   0.00000  Uiso   1.00
C915   C     0.37892   0.76107   0.97269   0.00000  Uiso   1.00
C916   C     0.42555   0.77521   0.50030   0.00000  Uiso   1.00
Cu917  Cu    0.44043   0.82772   0.74435   0.00000  Uiso   1.00
Cu918  Cu    0.55957   0.83895   0.75564   0.00000  Uiso   1.00
H919   H     0.33712   0.87275   0.78850   0.00000  Uiso   1.00
H920   H     0.66292   0.79396   0.71145   0.00000  Uiso   1.00
H921   H     0.62090   0.93112   0.93054   0.00000  Uiso   1.00
H922   H     0.46826   0.80226   0.58672   0.00000  Uiso   1.00
H923   H     0.53775   0.90701   0.88616   0.00000  Uiso   1.00
N924   N     0.64908   0.84741   0.76416   0.00000  Uiso   1.00
N925   N     0.35092   0.81926   0.73584   0.00000  Uiso   1.00
O926   O     0.46131   0.90474   0.74633   0.00000  Uiso   1.00
O927   O     0.56191   0.91422   0.75586   0.00000  Uiso   1.00
O928   O     0.42515   0.82627   0.81839   0.00000  Uiso   1.00
O929   O     0.52575   0.83575   0.82793   0.00000  Uiso   1.00
O930   O     0.43809   0.75245   0.74413   0.00000  Uiso   1.00
O931   O     0.53869   0.76193   0.75367   0.00000  Uiso   1.00
O932   O     0.47425   0.83092   0.67207   0.00000  Uiso   1.00
O933   O     0.57485   0.84040   0.68160   0.00000  Uiso   1.00
S934   S     0.33798   0.91068   0.60589   0.00000  Uiso   1.00
O935   O     0.36123   0.87039   0.62994   0.00000  Uiso   1.00
O936   O     0.39424   0.94556   0.57242   0.00000  Uiso   1.00
O937   O     0.63469   0.94725   0.65189   0.00000  Uiso   1.00
H938   H     0.62168   0.97306   0.63312   0.00000  Uiso   1.00
S939   S     0.44269   0.98508   0.68750   0.00000  Uiso   1.00
O940   O     0.47811   0.94928   0.65206   0.00000  Uiso   1.00
O941   O     0.37948   0.95437   0.71549   0.00000  Uiso   1.00
O942   O     0.43198   0.69883   0.65193   0.00000  Uiso   1.00
H943   H     0.38857   0.70423   0.66726   0.00000  Uiso   1.00
F944   F     0.34465   0.92730   0.99626   0.00000  Uiso   1.00
S945   S     0.65501   0.76525   0.89384   0.00000  Uiso   1.00
O946   O     0.64014   0.81302   0.87477   0.00000  Uiso   1.00
O947   O     0.34111   0.73034   0.84913   0.00000  Uiso   1.00
O948   O     0.58890   0.73274   0.93376   0.00000  Uiso   1.00
H949   H     0.55522   0.72936   0.91464   0.00000  Uiso   1.00
F950   F     0.42144   0.74342   0.53988   0.00000  Uiso   1.00
F951   F     0.66292   0.72109   0.99100   0.00000  Uiso   1.00
F952   F     0.55688   0.68052   0.78675   0.00000  Uiso   1.00
C953   C     0.84804   0.93316   0.75098   0.00000  Uiso   1.00
C954   C     0.80996   0.81835   0.98484   0.00000  Uiso   1.00
C955   C     0.81717   0.84162   0.93636   0.00000  Uiso   1.00
C956   C     0.85549   0.83828   0.51464   0.00000  Uiso   1.00
C957   C     0.91015   0.87620   0.99298   0.00000  Uiso   1.00
C958   C     0.91488   0.89955   0.94622   0.00000  Uiso   1.00
C959   C     0.86741   0.88467   0.92003   0.00000  Uiso   1.00
C960   C     0.84616   0.82505   0.56651   0.00000  Uiso   1.00
C961   C     0.94841   0.87919   0.57131   0.00000  Uiso   1.00
C962   C     0.77501   0.82115   0.90432   0.00000  Uiso   1.00
C963   C     0.85317   0.98838   0.75549   0.00000  Uiso   1.00
C964   C     0.79825   0.82936   0.84762   0.00000  Uiso   1.00
C965   C     0.81856   0.67973   0.73404   0.00000  Uiso   1.00
C966   C     0.82018   0.73382   0.74553   0.00000  Uiso   1.00
C967   C     0.86828   0.83836   0.65245   0.00000  Uiso   1.00
C968   C     0.95765   0.89352   0.51980   0.00000  Uiso   1.00
C969   C     0.89033   0.84613   0.59578   0.00000  Uiso   1.00
C970   C     0.71818   0.78459   0.92552   0.00000  Uiso   1.00
C971   C     0.71226   0.76107   0.97269   0.00000  Uiso   1.00
C972   C     0.75888   0.77521   0.50030   0.00000  Uiso   1.00
Cu973  Cu    0.77377   0.82772   0.74435   0.00000  Uiso   1.00
Cu974  Cu    0.89290   0.83895   0.75564   0.00000  Uiso   1.00
H975   H     0.67045   0.87275   0.78850   0.00000  Uiso   1.00
H976   H     0.99625   0.79396   0.71145   0.00000  Uiso   1.00
H977   H     0.95423   0.93112   0.93054   0.00000  Uiso   1.00
H978   H     0.80160   0.80226   0.58672   0.00000  Uiso   1.00
H979   H     0.87108   0.90701   0.88616   0.00000  Uiso   1.00
N980   N     0.98241   0.84741   0.76416   0.00000  Uiso   1.00
N981   N     0.68426   0.81926   0.73584   0.00000  Uiso   1.00
O982   O     0.79464   0.90474   0.74633   0.00000  Uiso   1.00
O983   O     0.89524   0.91422   0.75586   0.00000  Uiso   1.00
O984   O     0.75848   0.82627   0.81839   0.00000  Uiso   1.00
O985   O     0.85908   0.83575   0.82793   0.00000  Uiso   1.00
O986   O     0.77142   0.75245   0.74413   0.00000  Uiso   1.00
O987   O     0.87203   0.76193   0.75367   0.00000  Uiso   1.00
O988   O     0.80758   0.83092   0.67207   0.00000  Uiso   1.00
O989   O     0.90819   0.84040   0.68160   0.00000  Uiso   1.00
S990   S     0.67131   0.91068   0.60589   0.00000  Uiso   1.00
O991   O     0.69456   0.87039   0.62994   0.00000  Uiso   1.00
O992   O     0.72757   0.94556   0.57242   0.00000  Uiso   1.00
O993   O     0.96803   0.94725   0.65189   0.00000  Uiso   1.00
H994   H     0.95501   0.97306   0.63312   0.00000  Uiso   1.00
S995   S     0.77602   0.98508   0.68750   0.00000  Uiso   1.00
O996   O     0.81144   0.94928   0.65206   0.00000  Uiso   1.00
O997   O     0.71282   0.95437   0.71549   0.00000  Uiso   1.00
O998   O     0.76531   0.69883   0.65193   0.00000  Uiso   1.00
H999   H     0.72190   0.70423   0.66726   0.00000  Uiso   1.00
F1000  F     0.67798   0.92730   0.99626   0.00000  Uiso   1.00
S1001  S     0.98834   0.76525   0.89384   0.00000  Uiso   1.00
O1002  O     0.97348   0.81302   0.87477   0.00000  Uiso   1.00
O1003  O     0.67444   0.73034   0.84913   0.00000  Uiso   1.00
O1004  O     0.92223   0.73274   0.93376   0.00000  Uiso   1.00
H1005  H     0.88855   0.72936   0.91464   0.00000  Uiso   1.00
F1006  F     0.75478   0.74342   0.53988   0.00000  Uiso   1.00
F1007  F     0.99625   0.72109   0.99100   0.00000  Uiso   1.00
F1008  F     0.89021   0.68052   0.78675   0.00000  Uiso   1.00
loop_
_geom_bond_atom_site_label_1
_geom_bond_atom_site_label_2
_geom_bond_distance
_geom_bond_site_symmetry_2
_ccdc_geom_bond_type
C1     C11     1.425   .     S
C1     O31     1.288   .     A
C1     O30     1.289   .     A
C2     C3      1.423   .     A
C2     C508    1.432   .     S
C2     C524    1.417   .     S
C3     C10     1.423   .     A
C3     C7      1.409   .     A
C4     C8      1.405   .     A
C4     C506    1.432   1_554 S
C4     C509    1.415   1_554 S
C5     C6      1.394   .     A
C5     C508    1.415   .     S
C5     C520    1.401   .     S
C6     C7      1.381   .     A
C6     H25     1.084   .     S
C7     H27     1.082   .     S
C8     H26     1.074   .     S
C8     C17     1.406   .     A
C9     C17     1.421   .     A
C9     C16     1.404   .     A
C9     S94     1.770   .     S
C10    C12     1.493   .     S
C10    C18     1.424   .     A
C11    C181    1.343   .     S
C11    F224    1.364   .     S
C12    O32     1.302   .     A
C12    O33     1.305   .     A
C13    C14     1.426   .     S
C13    C347    1.343   1_545 S
C13    S379    1.777   1_545 S
C14    O34     1.288   .     A
C14    O35     1.287   .     A
C15    C17     1.490   .     S
C15    O36     1.301   .     A
C15    O37     1.307   .     A
C16    C509    1.401   1_554 S
C16    F608    1.359   1_554 S
C18    C19     1.400   .     A
C18    S161    1.781   1_455 S
C19    C524    1.390   .     S
C19    F167    1.357   1_455 S
C20    F54     1.356   .     S
C20    C506    1.417   1_554 S
C20    C523    1.390   1_554 S
Cu21   O30     1.969   .     S
Cu21   O32     1.931   .     S
Cu21   O36     1.901   .     S
Cu21   O34     1.958   .     S
Cu21   Cu22    2.689   .     S
Cu21   N29     2.021   .     S
Cu22   N28     2.021   .     S
Cu22   O35     1.969   .     S
Cu22   O31     1.958   .     S
Cu22   O33     1.901   .     S
Cu22   O37     1.931   .     S
H23    N140    1.029   1_455 S
H24    N85     1.029   .     S
N28    H79     1.029   .     S
N28    N85     1.277   .     S
N29    N140    1.277   1_455 S
N29    H136    1.029   1_455 S
S38    O40     1.503   .     D
S38    O39     1.502   .     D
S38    C121    1.770   1_455 S
S38    O153    1.680   1_455 S
O41    H42     0.991   .     S
O41    S94     1.680   .     S
S43    O44     1.503   .     D
S43    O45     1.502   .     D
S43    C181    1.777   .     S
S43    O214    1.685   .     S
O46    H47     0.990   .     S
O46    S379    1.685   1_545 S
F48    C632    1.359   1_455 S
S49    O52     1.683   .     S
S49    O50     1.502   .     D
S49    C74     1.781   .     S
S49    O107    1.503   .     S
O51    S161    1.503   1_455 S
O52    H53     0.991   .     S
F55    C75     1.357   .     S
F56    C347    1.364   1_545 S
C57    C67     1.425   .     S
C57    O87     1.288   .     A
C57    O86     1.289   .     A
C58    C59     1.423   .     A
C58    C564    1.432   .     S
C58    C580    1.417   .     S
C59    C66     1.423   .     A
C59    C63     1.409   .     A
C60    C64     1.405   .     A
C60    C562    1.432   1_554 S
C60    C565    1.415   1_554 S
C61    C62     1.394   .     A
C61    C564    1.415   .     S
C61    C576    1.401   .     S
C62    C63     1.381   .     A
C62    H81     1.084   .     S
C63    H83     1.082   .     S
C64    H82     1.074   .     S
C64    C73     1.406   .     A
C65    C73     1.421   .     A
C65    C72     1.404   .     A
C65    S150    1.770   .     S
C66    C68     1.493   .     S
C66    C74     1.424   .     A
C67    C237    1.343   .     S
C67    F280    1.364   .     S
C68    O88     1.302   .     A
C68    O89     1.305   .     A
C69    C70     1.426   .     S
C69    C403    1.343   1_545 S
C69    S435    1.777   1_545 S
C70    O90     1.288   .     A
C70    O91     1.287   .     A
C71    C73     1.490   .     S
C71    O92     1.301   .     A
C71    O93     1.307   .     A
C72    C565    1.401   1_554 S
C72    F664    1.359   1_554 S
C74    C75     1.400   .     A
C75    C580    1.390   .     S
C76    F110    1.356   .     S
C76    C562    1.417   1_554 S
C76    C579    1.390   1_554 S
Cu77   O86     1.969   .     S
Cu77   O88     1.931   .     S
Cu77   O92     1.901   .     S
Cu77   O90     1.958   .     S
Cu77   Cu78    2.689   .     S
Cu77   N85     2.021   .     S
Cu78   N84     2.021   .     S
Cu78   O91     1.969   .     S
Cu78   O87     1.958   .     S
Cu78   O89     1.901   .     S
Cu78   O93     1.931   .     S
H80    N141    1.029   .     S
N84    H135    1.029   .     S
N84    N141    1.277   .     S
S94    O96     1.503   .     D
S94    O95     1.502   .     D
O97    H98     0.991   .     S
O97    S150    1.680   .     S
S99    O100    1.503   .     D
S99    O101    1.502   .     D
S99    C237    1.777   .     S
S99    O270    1.685   .     S
O102   H103    0.990   .     S
O102   S435    1.685   1_545 S
F104   C520    1.359   .     S
S105   O108    1.683   .     S
S105   O106    1.502   .     D
S105   C130    1.781   .     S
S105   O163    1.503   .     S
O108   H109    0.991   .     S
F111   C131    1.357   .     S
F112   C403    1.364   1_545 S
C113   C123    1.425   .     S
C113   O143    1.288   .     A
C113   O142    1.289   .     A
C114   C115    1.423   .     A
C114   C620    1.432   .     S
C114   C636    1.417   .     S
C115   C122    1.423   .     A
C115   C119    1.409   .     A
C116   C120    1.405   .     A
C116   C618    1.432   1_554 S
C116   C621    1.415   1_554 S
C117   C118    1.394   .     A
C117   C620    1.415   .     S
C117   C632    1.401   .     S
C118   C119    1.381   .     A
C118   H137    1.084   .     S
C119   H139    1.082   .     S
C120   H138    1.074   .     S
C120   C129    1.406   .     A
C121   C129    1.421   .     A
C121   C128    1.404   .     A
C121   S38     1.770   1_655 S
C122   C124    1.493   .     S
C122   C130    1.424   .     A
C123   C293    1.343   .     S
C123   F336    1.364   .     S
C124   O144    1.302   .     A
C124   O145    1.305   .     A
C125   C126    1.426   .     S
C125   C459    1.343   1_545 S
C125   S491    1.777   1_545 S
C126   O146    1.288   .     A
C126   O147    1.287   .     A
C127   C129    1.490   .     S
C127   O148    1.301   .     A
C127   O149    1.307   .     A
C128   C621    1.401   1_554 S
C128   F552    1.359   1_654 S
C130   C131    1.400   .     A
C131   C636    1.390   .     S
C132   F166    1.356   .     S
C132   C618    1.417   1_554 S
C132   C635    1.390   1_554 S
Cu133  O142    1.969   .     S
Cu133  O144    1.931   .     S
Cu133  O148    1.901   .     S
Cu133  O146    1.958   .     S
Cu133  Cu134   2.689   .     S
Cu133  N141    2.021   .     S
Cu134  N140    2.021   .     S
Cu134  O147    1.969   .     S
Cu134  O143    1.958   .     S
Cu134  O145    1.901   .     S
Cu134  O149    1.931   .     S
H136   N29     1.029   1_655 S
N140   H23     1.029   1_655 S
N140   N29     1.277   1_655 S
S150   O152    1.503   .     D
S150   O151    1.502   .     D
O153   H154    0.991   .     S
O153   S38     1.680   1_655 S
S155   O156    1.503   .     D
S155   O157    1.502   .     D
S155   C293    1.777   .     S
S155   O326    1.685   .     S
O158   H159    0.990   .     S
O158   S491    1.685   1_545 S
F160   C576    1.359   .     S
S161   O164    1.683   .     S
S161   O162    1.502   .     D
S161   C18     1.781   1_655 S
S161   O51     1.503   1_655 S
O164   H165    0.991   .     S
F167   C19     1.357   1_655 S
F168   C459    1.364   1_545 S
C169   C179    1.425   .     S
C169   O199    1.288   .     A
C169   O198    1.289   .     A
C170   C171    1.423   .     A
C170   C676    1.432   .     S
C170   C692    1.417   .     S
C171   C178    1.423   .     A
C171   C175    1.409   .     A
C172   C176    1.405   .     A
C172   C674    1.432   1_554 S
C172   C677    1.415   1_554 S
C173   C174    1.394   .     A
C173   C676    1.415   .     S
C173   C688    1.401   .     S
C174   C175    1.381   .     A
C174   H193    1.084   .     S
C175   H195    1.082   .     S
C176   H194    1.074   .     S
C176   C185    1.406   .     A
C177   C185    1.421   .     A
C177   C184    1.404   .     A
C177   S262    1.770   .     S
C178   C180    1.493   .     S
C178   C186    1.424   .     A
C179   C349    1.343   .     S
C179   F392    1.364   .     S
C180   O200    1.302   .     A
C180   O201    1.305   .     A
C181   C182    1.426   .     S
C182   O202    1.288   .     A
C182   O203    1.287   .     A
C183   C185    1.490   .     S
C183   O204    1.301   .     A
C183   O205    1.307   .     A
C184   C677    1.401   1_554 S
C184   F776    1.359   1_554 S
C186   C187    1.400   .     A
C186   S329    1.781   1_455 S
C187   C692    1.390   .     S
C187   F335    1.357   1_455 S
C188   F222    1.356   .     S
C188   C674    1.417   1_554 S
C188   C691    1.390   1_554 S
Cu189  O198    1.969   .     S
Cu189  O200    1.931   .     S
Cu189  O204    1.901   .     S
Cu189  O202    1.958   .     S
Cu189  Cu190   2.689   .     S
Cu189  N197    2.021   .     S
Cu190  N196    2.021   .     S
Cu190  O203    1.969   .     S
Cu190  O199    1.958   .     S
Cu190  O201    1.901   .     S
Cu190  O205    1.931   .     S
H191   N308    1.029   1_455 S
H192   N253    1.029   .     S
N196   H247    1.029   .     S
N196   N253    1.277   .     S
N197   N308    1.277   1_455 S
N197   H304    1.029   1_455 S
S206   O208    1.503   .     D
S206   O207    1.502   .     D
S206   C289    1.770   1_455 S
S206   O321    1.680   1_455 S
O209   H210    0.991   .     S
O209   S262    1.680   .     S
S211   O212    1.503   .     D
S211   O213    1.502   .     D
S211   C349    1.777   .     S
S211   O382    1.685   .     S
O214   H215    0.990   .     S
F216   C800    1.359   1_455 S
S217   O220    1.683   .     S
S217   O218    1.502   .     D
S217   C242    1.781   .     S
S217   O275    1.503   .     S
O219   S329    1.503   1_455 S
O220   H221    0.991   .     S
F223   C243    1.357   .     S
C225   C235    1.425   .     S
C225   O255    1.288   .     A
C225   O254    1.289   .     A
C226   C227    1.423   .     A
C226   C732    1.432   .     S
C226   C748    1.417   .     S
C227   C234    1.423   .     A
C227   C231    1.409   .     A
C228   C232    1.405   .     A
C228   C730    1.432   1_554 S
C228   C733    1.415   1_554 S
C229   C230    1.394   .     A
C229   C732    1.415   .     S
C229   C744    1.401   .     S
C230   C231    1.381   .     A
C230   H249    1.084   .     S
C231   H251    1.082   .     S
C232   H250    1.074   .     S
C232   C241    1.406   .     A
C233   C241    1.421   .     A
C233   C240    1.404   .     A
C233   S318    1.770   .     S
C234   C236    1.493   .     S
C234   C242    1.424   .     A
C235   C405    1.343   .     S
C235   F448    1.364   .     S
C236   O256    1.302   .     A
C236   O257    1.305   .     A
C237   C238    1.426   .     S
C238   O258    1.288   .     A
C238   O259    1.287   .     A
C239   C241    1.490   .     S
C239   O260    1.301   .     A
C239   O261    1.307   .     A
C240   C733    1.401   1_554 S
C240   F832    1.359   1_554 S
C242   C243    1.400   .     A
C243   C748    1.390   .     S
C244   F278    1.356   .     S
C244   C730    1.417   1_554 S
C244   C747    1.390   1_554 S
Cu245  O254    1.969   .     S
Cu245  O256    1.931   .     S
Cu245  O260    1.901   .     S
Cu245  O258    1.958   .     S
Cu245  Cu246   2.689   .     S
Cu245  N253    2.021   .     S
Cu246  N252    2.021   .     S
Cu246  O259    1.969   .     S
Cu246  O255    1.958   .     S
Cu246  O257    1.901   .     S
Cu246  O261    1.931   .     S
H248   N309    1.029   .     S
N252   H303    1.029   .     S
N252   N309    1.277   .     S
S262   O264    1.503   .     D
S262   O263    1.502   .     D
O265   H266    0.991   .     S
O265   S318    1.680   .     S
S267   O268    1.503   .     D
S267   O269    1.502   .     D
S267   C405    1.777   .     S
S267   O438    1.685   .     S
O270   H271    0.990   .     S
F272   C688    1.359   .     S
S273   O276    1.683   .     S
S273   O274    1.502   .     D
S273   C298    1.781   .     S
S273   O331    1.503   .     S
O276   H277    0.991   .     S
F279   C299    1.357   .     S
C281   C291    1.425   .     S
C281   O311    1.288   .     A
C281   O310    1.289   .     A
C282   C283    1.423   .     A
C282   C788    1.432   .     S
C282   C804    1.417   .     S
C283   C290    1.423   .     A
C283   C287    1.409   .     A
C284   C288    1.405   .     A
C284   C786    1.432   1_554 S
C284   C789    1.415   1_554 S
C285   C286    1.394   .     A
C285   C788    1.415   .     S
C285   C800    1.401   .     S
C286   C287    1.381   .     A
C286   H305    1.084   .     S
C287   H307    1.082   .     S
C288   H306    1.074   .     S
C288   C297    1.406   .     A
C289   C297    1.421   .     A
C289   C296    1.404   .     A
C289   S206    1.770   1_655 S
C290   C292    1.493   .     S
C290   C298    1.424   .     A
C291   C461    1.343   .     S
C291   F504    1.364   .     S
C292   O312    1.302   .     A
C292   O313    1.305   .     A
C293   C294    1.426   .     S
C294   O314    1.288   .     A
C294   O315    1.287   .     A
C295   C297    1.490   .     S
C295   O316    1.301   .     A
C295   O317    1.307   .     A
C296   C789    1.401   1_554 S
C296   F720    1.359   1_654 S
C298   C299    1.400   .     A
C299   C804    1.390   .     S
C300   F334    1.356   .     S
C300   C786    1.417   1_554 S
C300   C803    1.390   1_554 S
Cu301  O310    1.969   .     S
Cu301  O312    1.931   .     S
Cu301  O316    1.901   .     S
Cu301  O314    1.958   .     S
Cu301  Cu302   2.689   .     S
Cu301  N309    2.021   .     S
Cu302  N308    2.021   .     S
Cu302  O315    1.969   .     S
Cu302  O311    1.958   .     S
Cu302  O313    1.901   .     S
Cu302  O317    1.931   .     S
H304   N197    1.029   1_655 S
N308   H191    1.029   1_655 S
N308   N197    1.277   1_655 S
S318   O320    1.503   .     D
S318   O319    1.502   .     D
O321   H322    0.991   .     S
O321   S206    1.680   1_655 S
S323   O324    1.503   .     D
S323   O325    1.502   .     D
S323   C461    1.777   .     S
S323   O494    1.685   .     S
O326   H327    0.990   .     S
F328   C744    1.359   .     S
S329   O332    1.683   .     S
S329   O330    1.502   .     D
S329   C186    1.781   1_655 S
S329   O219    1.503   1_655 S
O332   H333    0.991   .     S
F335   C187    1.357   1_655 S
C337   C347    1.425   .     S
C337   O367    1.288   .     A
C337   O366    1.289   .     A
C338   C339    1.423   .     A
C338   C844    1.432   .     S
C338   C860    1.417   .     S
C339   C346    1.423   .     A
C339   C343    1.409   .     A
C340   C344    1.405   .     A
C340   C842    1.432   1_554 S
C340   C845    1.415   1_554 S
C341   C342    1.394   .     A
C341   C844    1.415   .     S
C341   C856    1.401   .     S
C342   C343    1.381   .     A
C342   H361    1.084   .     S
C343   H363    1.082   .     S
C344   H362    1.074   .     S
C344   C353    1.406   .     A
C345   C353    1.421   .     A
C345   C352    1.404   .     A
C345   S430    1.770   .     S
C346   C348    1.493   .     S
C346   C354    1.424   .     A
C347   C13     1.343   1_565 S
C347   F56     1.364   1_565 S
C348   O368    1.302   .     A
C348   O369    1.305   .     A
C349   C350    1.426   .     S
C350   O370    1.288   .     A
C350   O371    1.287   .     A
C351   C353    1.490   .     S
C351   O372    1.301   .     A
C351   O373    1.307   .     A
C352   C845    1.401   1_554 S
C352   F944    1.359   1_554 S
C354   C355    1.400   .     A
C354   S497    1.781   1_455 S
C355   C860    1.390   .     S
C355   F503    1.357   1_455 S
C356   F390    1.356   .     S
C356   C842    1.417   1_554 S
C356   C859    1.390   1_554 S
Cu357  O366    1.969   .     S
Cu357  O368    1.931   .     S
Cu357  O372    1.901   .     S
Cu357  O370    1.958   .     S
Cu357  Cu358   2.689   .     S
Cu357  N365    2.021   .     S
Cu358  N364    2.021   .     S
Cu358  O371    1.969   .     S
Cu358  O367    1.958   .     S
Cu358  O369    1.901   .     S
Cu358  O373    1.931   .     S
H359   N476    1.029   1_455 S
H360   N421    1.029   .     S
N364   H415    1.029   .     S
N364   N421    1.277   .     S
N365   N476    1.277   1_455 S
N365   H472    1.029   1_455 S
S374   O376    1.503   .     D
S374   O375    1.502   .     D
S374   C457    1.770   1_455 S
S374   O489    1.680   1_455 S
O377   H378    0.991   .     S
O377   S430    1.680   .     S
S379   O380    1.503   .     D
S379   O381    1.502   .     D
S379   C13     1.777   1_565 S
S379   O46     1.685   1_565 S
O382   H383    0.990   .     S
F384   C968    1.359   1_455 S
S385   O388    1.683   .     S
S385   O386    1.502   .     D
S385   C410    1.781   .     S
S385   O443    1.503   .     S
O387   S497    1.503   1_455 S
O388   H389    0.991   .     S
F391   C411    1.357   .     S
C393   C403    1.425   .     S
C393   O423    1.288   .     A
C393   O422    1.289   .     A
C394   C395    1.423   .     A
C394   C900    1.432   .     S
C394   C916    1.417   .     S
C395   C402    1.423   .     A
C395   C399    1.409   .     A
C396   C400    1.405   .     A
C396   C898    1.432   1_554 S
C396   C901    1.415   1_554 S
C397   C398    1.394   .     A
C397   C900    1.415   .     S
C397   C912    1.401   .     S
C398   C399    1.381   .     A
C398   H417    1.084   .     S
C399   H419    1.082   .     S
C400   H418    1.074   .     S
C400   C409    1.406   .     A
C401   C409    1.421   .     A
C401   C408    1.404   .     A
C401   S486    1.770   .     S
C402   C404    1.493   .     S
C402   C410    1.424   .     A
C403   C69     1.343   1_565 S
C403   F112    1.364   1_565 S
C404   O424    1.302   .     A
C404   O425    1.305   .     A
C405   C406    1.426   .     S
C406   O426    1.288   .     A
C406   O427    1.287   .     A
C407   C409    1.490   .     S
C407   O428    1.301   .     A
C407   O429    1.307   .     A
C408   C901    1.401   1_554 S
C408   F1000   1.359   1_554 S
C410   C411    1.400   .     A
C411   C916    1.390   .     S
C412   F446    1.356   .     S
C412   C898    1.417   1_554 S
C412   C915    1.390   1_554 S
Cu413  O422    1.969   .     S
Cu413  O424    1.931   .     S
Cu413  O428    1.901   .     S
Cu413  O426    1.958   .     S
Cu413  Cu414   2.689   .     S
Cu413  N421    2.021   .     S
Cu414  N420    2.021   .     S
Cu414  O427    1.969   .     S
Cu414  O423    1.958   .     S
Cu414  O425    1.901   .     S
Cu414  O429    1.931   .     S
H416   N477    1.029   .     S
N420   H471    1.029   .     S
N420   N477    1.277   .     S
S430   O432    1.503   .     D
S430   O431    1.502   .     D
O433   H434    0.991   .     S
O433   S486    1.680   .     S
S435   O436    1.503   .     D
S435   O437    1.502   .     D
S435   C69     1.777   1_565 S
S435   O102    1.685   1_565 S
O438   H439    0.990   .     S
F440   C856    1.359   .     S
S441   O444    1.683   .     S
S441   O442    1.502   .     D
S441   C466    1.781   .     S
S441   O499    1.503   .     S
O444   H445    0.991   .     S
F447   C467    1.357   .     S
C449   C459    1.425   .     S
C449   O479    1.288   .     A
C449   O478    1.289   .     A
C450   C451    1.423   .     A
C450   C956    1.432   .     S
C450   C972    1.417   .     S
C451   C458    1.423   .     A
C451   C455    1.409   .     A
C452   C456    1.405   .     A
C452   C954    1.432   1_554 S
C452   C957    1.415   1_554 S
C453   C454    1.394   .     A
C453   C956    1.415   .     S
C453   C968    1.401   .     S
C454   C455    1.381   .     A
C454   H473    1.084   .     S
C455   H475    1.082   .     S
C456   H474    1.074   .     S
C456   C465    1.406   .     A
C457   C465    1.421   .     A
C457   C464    1.404   .     A
C457   S374    1.770   1_655 S
C458   C460    1.493   .     S
C458   C466    1.424   .     A
C459   C125    1.343   1_565 S
C459   F168    1.364   1_565 S
C460   O480    1.302   .     A
C460   O481    1.305   .     A
C461   C462    1.426   .     S
C462   O482    1.288   .     A
C462   O483    1.287   .     A
C463   C465    1.490   .     S
C463   O484    1.301   .     A
C463   O485    1.307   .     A
C464   C957    1.401   1_554 S
C464   F888    1.359   1_654 S
C466   C467    1.400   .     A
C467   C972    1.390   .     S
C468   F502    1.356   .     S
C468   C954    1.417   1_554 S
C468   C971    1.390   1_554 S
Cu469  O478    1.969   .     S
Cu469  O480    1.931   .     S
Cu469  O484    1.901   .     S
Cu469  O482    1.958   .     S
Cu469  Cu470   2.689   .     S
Cu469  N477    2.021   .     S
Cu470  N476    2.021   .     S
Cu470  O483    1.969   .     S
Cu470  O479    1.958   .     S
Cu470  O481    1.901   .     S
Cu470  O485    1.931   .     S
H472   N365    1.029   1_655 S
N476   H359    1.029   1_655 S
N476   N365    1.277   1_655 S
S486   O488    1.503   .     D
S486   O487    1.502   .     D
O489   H490    0.991   .     S
O489   S374    1.680   1_655 S
S491   O492    1.503   .     D
S491   O493    1.502   .     D
S491   C125    1.777   1_565 S
S491   O158    1.685   1_565 S
O494   H495    0.990   .     S
F496   C912    1.359   .     S
S497   O500    1.683   .     S
S497   O498    1.502   .     D
S497   C354    1.781   1_655 S
S497   O387    1.503   1_655 S
O500   H501    0.991   .     S
F503   C355    1.357   1_655 S
C505   C515    1.425   .     S
C505   O535    1.288   .     A
C505   O534    1.289   .     A
C506   C507    1.423   .     A
C506   C4      1.432   1_556 S
C506   C20     1.417   1_556 S
C507   C514    1.423   .     A
C507   C511    1.409   .     A
C508   C512    1.405   .     A
C509   C510    1.394   .     A
C509   C4      1.415   1_556 S
C509   C16     1.401   1_556 S
C510   C511    1.381   .     A
C510   H529    1.084   .     S
C511   H531    1.082   .     S
C512   H530    1.074   .     S
C512   C521    1.406   .     A
C513   C521    1.421   .     A
C513   C520    1.404   .     A
C513   S598    1.770   .     S
C514   C516    1.493   .     S
C514   C522    1.424   .     A
C515   C685    1.343   .     S
C515   F728    1.364   .     S
C516   O536    1.302   .     A
C516   O537    1.305   .     A
C517   C518    1.426   .     S
C517   C851    1.343   1_545 S
C517   S883    1.777   1_545 S
C518   O538    1.288   .     A
C518   O539    1.287   .     A
C519   C521    1.490   .     S
C519   O540    1.301   .     A
C519   O541    1.307   .     A
C522   C523    1.400   .     A
C522   S665    1.781   1_455 S
C523   C20     1.390   1_556 S
C523   F671    1.357   1_455 S
C524   F558    1.356   .     S
Cu525  O534    1.969   .     S
Cu525  O536    1.931   .     S
Cu525  O540    1.901   .     S
Cu525  O538    1.958   .     S
Cu525  Cu526   2.689   .     S
Cu525  N533    2.021   .     S
Cu526  N532    2.021   .     S
Cu526  O539    1.969   .     S
Cu526  O535    1.958   .     S
Cu526  O537    1.901   .     S
Cu526  O541    1.931   .     S
H527   N644    1.029   1_455 S
H528   N589    1.029   .     S
N532   H583    1.029   .     S
N532   N589    1.277   .     S
N533   N644    1.277   1_455 S
N533   H640    1.029   1_455 S
S542   O544    1.503   .     D
S542   O543    1.502   .     D
S542   C625    1.770   1_455 S
S542   O657    1.680   1_455 S
O545   H546    0.991   .     S
O545   S598    1.680   .     S
S547   O548    1.503   .     D
S547   O549    1.502   .     D
S547   C685    1.777   .     S
S547   O718    1.685   .     S
O550   H551    0.990   .     S
O550   S883    1.685   1_545 S
F552   C128    1.359   1_456 S
S553   O556    1.683   .     S
S553   O554    1.502   .     D
S553   C578    1.781   .     S
S553   O611    1.503   .     S
O555   S665    1.503   1_455 S
O556   H557    0.991   .     S
F559   C579    1.357   .     S
F560   C851    1.364   1_545 S
C561   C571    1.425   .     S
C561   O591    1.288   .     A
C561   O590    1.289   .     A
C562   C563    1.423   .     A
C562   C60     1.432   1_556 S
C562   C76     1.417   1_556 S
C563   C570    1.423   .     A
C563   C567    1.409   .     A
C564   C568    1.405   .     A
C565   C566    1.394   .     A
C565   C60     1.415   1_556 S
C565   C72     1.401   1_556 S
C566   C567    1.381   .     A
C566   H585    1.084   .     S
C567   H587    1.082   .     S
C568   H586    1.074   .     S
C568   C577    1.406   .     A
C569   C577    1.421   .     A
C569   C576    1.404   .     A
C569   S654    1.770   .     S
C570   C572    1.493   .     S
C570   C578    1.424   .     A
C571   C741    1.343   .     S
C571   F784    1.364   .     S
C572   O592    1.302   .     A
C572   O593    1.305   .     A
C573   C574    1.426   .     S
C573   C907    1.343   1_545 S
C573   S939    1.777   1_545 S
C574   O594    1.288   .     A
C574   O595    1.287   .     A
C575   C577    1.490   .     S
C575   O596    1.301   .     A
C575   O597    1.307   .     A
C578   C579    1.400   .     A
C579   C76     1.390   1_556 S
C580   F614    1.356   .     S
Cu581  O590    1.969   .     S
Cu581  O592    1.931   .     S
Cu581  O596    1.901   .     S
Cu581  O594    1.958   .     S
Cu581  Cu582   2.689   .     S
Cu581  N589    2.021   .     S
Cu582  N588    2.021   .     S
Cu582  O595    1.969   .     S
Cu582  O591    1.958   .     S
Cu582  O593    1.901   .     S
Cu582  O597    1.931   .     S
H584   N645    1.029   .     S
N588   H639    1.029   .     S
N588   N645    1.277   .     S
S598   O600    1.503   .     D
S598   O599    1.502   .     D
O601   H602    0.991   .     S
O601   S654    1.680   .     S
S603   O604    1.503   .     D
S603   O605    1.502   .     D
S603   C741    1.777   .     S
S603   O774    1.685   .     S
O606   H607    0.990   .     S
O606   S939    1.685   1_545 S
F608   C16     1.359   1_556 S
S609   O612    1.683   .     S
S609   O610    1.502   .     D
S609   C634    1.781   .     S
S609   O667    1.503   .     S
O612   H613    0.991   .     S
F615   C635    1.357   .     S
F616   C907    1.364   1_545 S
C617   C627    1.425   .     S
C617   O647    1.288   .     A
C617   O646    1.289   .     A
C618   C619    1.423   .     A
C618   C116    1.432   1_556 S
C618   C132    1.417   1_556 S
C619   C626    1.423   .     A
C619   C623    1.409   .     A
C620   C624    1.405   .     A
C621   C622    1.394   .     A
C621   C116    1.415   1_556 S
C621   C128    1.401   1_556 S
C622   C623    1.381   .     A
C622   H641    1.084   .     S
C623   H643    1.082   .     S
C624   H642    1.074   .     S
C624   C633    1.406   .     A
C625   C633    1.421   .     A
C625   C632    1.404   .     A
C625   S542    1.770   1_655 S
C626   C628    1.493   .     S
C626   C634    1.424   .     A
C627   C797    1.343   .     S
C627   F840    1.364   .     S
C628   O648    1.302   .     A
C628   O649    1.305   .     A
C629   C630    1.426   .     S
C629   C963    1.343   1_545 S
C629   S995    1.777   1_545 S
C630   O650    1.288   .     A
C630   O651    1.287   .     A
C631   C633    1.490   .     S
C631   O652    1.301   .     A
C631   O653    1.307   .     A
C632   F48     1.359   1_655 S
C634   C635    1.400   .     A
C635   C132    1.390   1_556 S
C636   F670    1.356   .     S
Cu637  O646    1.969   .     S
Cu637  O648    1.931   .     S
Cu637  O652    1.901   .     S
Cu637  O650    1.958   .     S
Cu637  Cu638   2.689   .     S
Cu637  N645    2.021   .     S
Cu638  N644    2.021   .     S
Cu638  O651    1.969   .     S
Cu638  O647    1.958   .     S
Cu638  O649    1.901   .     S
Cu638  O653    1.931   .     S
H640   N533    1.029   1_655 S
N644   H527    1.029   1_655 S
N644   N533    1.277   1_655 S
S654   O656    1.503   .     D
S654   O655    1.502   .     D
O657   H658    0.991   .     S
O657   S542    1.680   1_655 S
S659   O660    1.503   .     D
S659   O661    1.502   .     D
S659   C797    1.777   .     S
S659   O830    1.685   .     S
O662   H663    0.990   .     S
O662   S995    1.685   1_545 S
F664   C72     1.359   1_556 S
S665   O668    1.683   .     S
S665   O666    1.502   .     D
S665   C522    1.781   1_655 S
S665   O555    1.503   1_655 S
O668   H669    0.991   .     S
F671   C523    1.357   1_655 S
F672   C963    1.364   1_545 S
C673   C683    1.425   .     S
C673   O703    1.288   .     A
C673   O702    1.289   .     A
C674   C675    1.423   .     A
C674   C172    1.432   1_556 S
C674   C188    1.417   1_556 S
C675   C682    1.423   .     A
C675   C679    1.409   .     A
C676   C680    1.405   .     A
C677   C678    1.394   .     A
C677   C172    1.415   1_556 S
C677   C184    1.401   1_556 S
C678   C679    1.381   .     A
C678   H697    1.084   .     S
C679   H699    1.082   .     S
C680   H698    1.074   .     S
C680   C689    1.406   .     A
C681   C689    1.421   .     A
C681   C688    1.404   .     A
C681   S766    1.770   .     S
C682   C684    1.493   .     S
C682   C690    1.424   .     A
C683   C853    1.343   .     S
C683   F896    1.364   .     S
C684   O704    1.302   .     A
C684   O705    1.305   .     A
C685   C686    1.426   .     S
C686   O706    1.288   .     A
C686   O707    1.287   .     A
C687   C689    1.490   .     S
C687   O708    1.301   .     A
C687   O709    1.307   .     A
C690   C691    1.400   .     A
C690   S833    1.781   1_455 S
C691   C188    1.390   1_556 S
C691   F839    1.357   1_455 S
C692   F726    1.356   .     S
Cu693  O702    1.969   .     S
Cu693  O704    1.931   .     S
Cu693  O708    1.901   .     S
Cu693  O706    1.958   .     S
Cu693  Cu694   2.689   .     S
Cu693  N701    2.021   .     S
Cu694  N700    2.021   .     S
Cu694  O707    1.969   .     S
Cu694  O703    1.958   .     S
Cu694  O705    1.901   .     S
Cu694  O709    1.931   .     S
H695   N812    1.029   1_455 S
H696   N757    1.029   .     S
N700   H751    1.029   .     S
N700   N757    1.277   .     S
N701   N812    1.277   1_455 S
N701   H808    1.029   1_455 S
S710   O712    1.503   .     D
S710   O711    1.502   .     D
S710   C793    1.770   1_455 S
S710   O825    1.680   1_455 S
O713   H714    0.991   .     S
O713   S766    1.680   .     S
S715   O716    1.503   .     D
S715   O717    1.502   .     D
S715   C853    1.777   .     S
S715   O886    1.685   .     S
O718   H719    0.990   .     S
F720   C296    1.359   1_456 S
S721   O724    1.683   .     S
S721   O722    1.502   .     D
S721   C746    1.781   .     S
S721   O779    1.503   .     S
O723   S833    1.503   1_455 S
O724   H725    0.991   .     S
F727   C747    1.357   .     S
C729   C739    1.425   .     S
C729   O759    1.288   .     A
C729   O758    1.289   .     A
C730   C731    1.423   .     A
C730   C228    1.432   1_556 S
C730   C244    1.417   1_556 S
C731   C738    1.423   .     A
C731   C735    1.409   .     A
C732   C736    1.405   .     A
C733   C734    1.394   .     A
C733   C228    1.415   1_556 S
C733   C240    1.401   1_556 S
C734   C735    1.381   .     A
C734   H753    1.084   .     S
C735   H755    1.082   .     S
C736   H754    1.074   .     S
C736   C745    1.406   .     A
C737   C745    1.421   .     A
C737   C744    1.404   .     A
C737   S822    1.770   .     S
C738   C740    1.493   .     S
C738   C746    1.424   .     A
C739   C909    1.343   .     S
C739   F952    1.364   .     S
C740   O760    1.302   .     A
C740   O761    1.305   .     A
C741   C742    1.426   .     S
C742   O762    1.288   .     A
C742   O763    1.287   .     A
C743   C745    1.490   .     S
C743   O764    1.301   .     A
C743   O765    1.307   .     A
C746   C747    1.400   .     A
C747   C244    1.390   1_556 S
C748   F782    1.356   .     S
Cu749  O758    1.969   .     S
Cu749  O760    1.931   .     S
Cu749  O764    1.901   .     S
Cu749  O762    1.958   .     S
Cu749  Cu750   2.689   .     S
Cu749  N757    2.021   .     S
Cu750  N756    2.021   .     S
Cu750  O763    1.969   .     S
Cu750  O759    1.958   .     S
Cu750  O761    1.901   .     S
Cu750  O765    1.931   .     S
H752   N813    1.029   .     S
N756   H807    1.029   .     S
N756   N813    1.277   .     S
S766   O768    1.503   .     D
S766   O767    1.502   .     D
O769   H770    0.991   .     S
O769   S822    1.680   .     S
S771   O772    1.503   .     D
S771   O773    1.502   .     D
S771   C909    1.777   .     S
S771   O942    1.685   .     S
O774   H775    0.990   .     S
F776   C184    1.359   1_556 S
S777   O780    1.683   .     S
S777   O778    1.502   .     D
S777   C802    1.781   .     S
S777   O835    1.503   .     S
O780   H781    0.991   .     S
F783   C803    1.357   .     S
C785   C795    1.425   .     S
C785   O815    1.288   .     A
C785   O814    1.289   .     A
C786   C787    1.423   .     A
C786   C284    1.432   1_556 S
C786   C300    1.417   1_556 S
C787   C794    1.423   .     A
C787   C791    1.409   .     A
C788   C792    1.405   .     A
C789   C790    1.394   .     A
C789   C284    1.415   1_556 S
C789   C296    1.401   1_556 S
C790   C791    1.381   .     A
C790   H809    1.084   .     S
C791   H811    1.082   .     S
C792   H810    1.074   .     S
C792   C801    1.406   .     A
C793   C801    1.421   .     A
C793   C800    1.404   .     A
C793   S710    1.770   1_655 S
C794   C796    1.493   .     S
C794   C802    1.424   .     A
C795   C965    1.343   .     S
C795   F1008   1.364   .     S
C796   O816    1.302   .     A
C796   O817    1.305   .     A
C797   C798    1.426   .     S
C798   O818    1.288   .     A
C798   O819    1.287   .     A
C799   C801    1.490   .     S
C799   O820    1.301   .     A
C799   O821    1.307   .     A
C800   F216    1.359   1_655 S
C802   C803    1.400   .     A
C803   C300    1.390   1_556 S
C804   F838    1.356   .     S
Cu805  O814    1.969   .     S
Cu805  O816    1.931   .     S
Cu805  O820    1.901   .     S
Cu805  O818    1.958   .     S
Cu805  Cu806   2.689   .     S
Cu805  N813    2.021   .     S
Cu806  N812    2.021   .     S
Cu806  O819    1.969   .     S
Cu806  O815    1.958   .     S
Cu806  O817    1.901   .     S
Cu806  O821    1.931   .     S
H808   N701    1.029   1_655 S
N812   H695    1.029   1_655 S
N812   N701    1.277   1_655 S
S822   O824    1.503   .     D
S822   O823    1.502   .     D
O825   H826    0.991   .     S
O825   S710    1.680   1_655 S
S827   O828    1.503   .     D
S827   O829    1.502   .     D
S827   C965    1.777   .     S
S827   O998    1.685   .     S
O830   H831    0.990   .     S
F832   C240    1.359   1_556 S
S833   O836    1.683   .     S
S833   O834    1.502   .     D
S833   C690    1.781   1_655 S
S833   O723    1.503   1_655 S
O836   H837    0.991   .     S
F839   C691    1.357   1_655 S
C841   C851    1.425   .     S
C841   O871    1.288   .     A
C841   O870    1.289   .     A
C842   C843    1.423   .     A
C842   C340    1.432   1_556 S
C842   C356    1.417   1_556 S
C843   C850    1.423   .     A
C843   C847    1.409   .     A
C844   C848    1.405   .     A
C845   C846    1.394   .     A
C845   C340    1.415   1_556 S
C845   C352    1.401   1_556 S
C846   C847    1.381   .     A
C846   H865    1.084   .     S
C847   H867    1.082   .     S
C848   H866    1.074   .     S
C848   C857    1.406   .     A
C849   C857    1.421   .     A
C849   C856    1.404   .     A
C849   S934    1.770   .     S
C850   C852    1.493   .     S
C850   C858    1.424   .     A
C851   C517    1.343   1_565 S
C851   F560    1.364   1_565 S
C852   O872    1.302   .     A
C852   O873    1.305   .     A
C853   C854    1.426   .     S
C854   O874    1.288   .     A
C854   O875    1.287   .     A
C855   C857    1.490   .     S
C855   O876    1.301   .     A
C855   O877    1.307   .     A
C858   C859    1.400   .     A
C858   S1001   1.781   1_455 S
C859   C356    1.390   1_556 S
C859   F1007   1.357   1_455 S
C860   F894    1.356   .     S
Cu861  O870    1.969   .     S
Cu861  O872    1.931   .     S
Cu861  O876    1.901   .     S
Cu861  O874    1.958   .     S
Cu861  Cu862   2.689   .     S
Cu861  N869    2.021   .     S
Cu862  N868    2.021   .     S
Cu862  O875    1.969   .     S
Cu862  O871    1.958   .     S
Cu862  O873    1.901   .     S
Cu862  O877    1.931   .     S
H863   N980    1.029   1_455 S
H864   N925    1.029   .     S
N868   H919    1.029   .     S
N868   N925    1.277   .     S
N869   N980    1.277   1_455 S
N869   H976    1.029   1_455 S
S878   O880    1.503   .     D
S878   O879    1.502   .     D
S878   C961    1.770   1_455 S
S878   O993    1.680   1_455 S
O881   H882    0.991   .     S
O881   S934    1.680   .     S
S883   O884    1.503   .     D
S883   O885    1.502   .     D
S883   C517    1.777   1_565 S
S883   O550    1.685   1_565 S
O886   H887    0.990   .     S
F888   C464    1.359   1_456 S
S889   O892    1.683   .     S
S889   O890    1.502   .     D
S889   C914    1.781   .     S
S889   O947    1.503   .     S
O891   S1001   1.503   1_455 S
O892   H893    0.991   .     S
F895   C915    1.357   .     S
C897   C907    1.425   .     S
C897   O927    1.288   .     A
C897   O926    1.289   .     A
C898   C899    1.423   .     A
C898   C396    1.432   1_556 S
C898   C412    1.417   1_556 S
C899   C906    1.423   .     A
C899   C903    1.409   .     A
C900   C904    1.405   .     A
C901   C902    1.394   .     A
C901   C396    1.415   1_556 S
C901   C408    1.401   1_556 S
C902   C903    1.381   .     A
C902   H921    1.084   .     S
C903   H923    1.082   .     S
C904   H922    1.074   .     S
C904   C913    1.406   .     A
C905   C913    1.421   .     A
C905   C912    1.404   .     A
C905   S990    1.770   .     S
C906   C908    1.493   .     S
C906   C914    1.424   .     A
C907   C573    1.343   1_565 S
C907   F616    1.364   1_565 S
C908   O928    1.302   .     A
C908   O929    1.305   .     A
C909   C910    1.426   .     S
C910   O930    1.288   .     A
C910   O931    1.287   .     A
C911   C913    1.490   .     S
C911   O932    1.301   .     A
C911   O933    1.307   .     A
C914   C915    1.400   .     A
C915   C412    1.390   1_556 S
C916   F950    1.356   .     S
Cu917  O926    1.969   .     S
Cu917  O928    1.931   .     S
Cu917  O932    1.901   .     S
Cu917  O930    1.958   .     S
Cu917  Cu918   2.689   .     S
Cu917  N925    2.021   .     S
Cu918  N924    2.021   .     S
Cu918  O931    1.969   .     S
Cu918  O927    1.958   .     S
Cu918  O929    1.901   .     S
Cu918  O933    1.931   .     S
H920   N981    1.029   .     S
N924   H975    1.029   .     S
N924   N981    1.277   .     S
S934   O936    1.503   .     D
S934   O935    1.502   .     D
O937   H938    0.991   .     S
O937   S990    1.680   .     S
S939   O940    1.503   .     D
S939   O941    1.502   .     D
S939   C573    1.777   1_565 S
S939   O606    1.685   1_565 S
O942   H943    0.990   .     S
F944   C352    1.359   1_556 S
S945   O948    1.683   .     S
S945   O946    1.502   .     D
S945   C970    1.781   .     S
S945   O1003   1.503   .     S
O948   H949    0.991   .     S
F951   C971    1.357   .     S
C953   C963    1.425   .     S
C953   O983    1.288   .     A
C953   O982    1.289   .     A
C954   C955    1.423   .     A
C954   C452    1.432   1_556 S
C954   C468    1.417   1_556 S
C955   C962    1.423   .     A
C955   C959    1.409   .     A
C956   C960    1.405   .     A
C957   C958    1.394   .     A
C957   C452    1.415   1_556 S
C957   C464    1.401   1_556 S
C958   C959    1.381   .     A
C958   H977    1.084   .     S
C959   H979    1.082   .     S
C960   H978    1.074   .     S
C960   C969    1.406   .     A
C961   C969    1.421   .     A
C961   C968    1.404   .     A
C961   S878    1.770   1_655 S
C962   C964    1.493   .     S
C962   C970    1.424   .     A
C963   C629    1.343   1_565 S
C963   F672    1.364   1_565 S
C964   O984    1.302   .     A
C964   O985    1.305   .     A
C965   C966    1.426   .     S
C966   O986    1.288   .     A
C966   O987    1.287   .     A
C967   C969    1.490   .     S
C967   O988    1.301   .     A
C967   O989    1.307   .     A
C968   F384    1.359   1_655 S
C970   C971    1.400   .     A
C971   C468    1.390   1_556 S
C972   F1006   1.356   .     S
Cu973  O982    1.969   .     S
Cu973  O984    1.931   .     S
Cu973  O988    1.901   .     S
Cu973  O986    1.958   .     S
Cu973  Cu974   2.689   .     S
Cu973  N981    2.021   .     S
Cu974  N980    2.021   .     S
Cu974  O987    1.969   .     S
Cu974  O983    1.958   .     S
Cu974  O985    1.901   .     S
Cu974  O989    1.931   .     S
H976   N869    1.029   1_655 S
N980   H863    1.029   1_655 S
N980   N869    1.277   1_655 S
S990   O992    1.503   .     D
S990   O991    1.502   .     D
O993   H994    0.991   .     S
O993   S878    1.680   1_655 S
S995   O996    1.503   .     D
S995   O997    1.502   .     D
S995   C629    1.777   1_565 S
S995   O662    1.685   1_565 S
O998   H999    0.990   .     S
F1000  C408    1.359   1_556 S
S1001  O1004   1.683   .     S
S1001  O1002   1.502   .     D
S1001  C858    1.781   1_655 S
S1001  O891    1.503   1_655 S
O1004  H1005   0.991   .     S
F1007  C859    1.357   1_655 S
