data_str_m1_o10_o16_pcu_sym.66
_audit_creation_date              2020-01-03
_audit_creation_method            'Materials Studio'
_symmetry_space_group_name_H-M    'P1'
_symmetry_Int_Tables_number       1
_symmetry_cell_setting            triclinic
loop_
_symmetry_equiv_pos_as_xyz
  x,y,z
_cell_length_a                    32.5105
_cell_length_b                    32.5117
_cell_length_c                    31.2382
_cell_angle_alpha                 96.6046
_cell_angle_beta                  75.1070
_cell_angle_gamma                 98.6083
loop_
_atom_site_label
_atom_site_type_symbol
_atom_site_fract_x
_atom_site_fract_y
_atom_site_fract_z
_atom_site_U_iso_or_equiv
_atom_site_adp_type
_atom_site_occupancy
C1     C     0.05275   0.15950   0.25990   0.00000  Uiso   1.00
C2     C     0.17140   0.16784   0.06022   0.00000  Uiso   1.00
C3     C     0.20372   0.10459   0.06063   0.00000  Uiso   1.00
C4     C     0.28065   0.17413   0.24042   0.00000  Uiso   1.00
C5     C     0.14766   0.19725   0.41751   0.00000  Uiso   1.00
C6     C     0.32626   0.17859   0.23827   0.00000  Uiso   1.00
C7     C     0.00746   0.15642   0.26336   0.00000  Uiso   1.00
C8     C     0.18030   0.32242   0.23652   0.00000  Uiso   1.00
C9     C     0.15182   0.01169   0.26366   0.00000  Uiso   1.00
C10    C     0.15613   0.05584   0.26011   0.00000  Uiso   1.00
C11    C     0.17652   0.27784   0.24018   0.00000  Uiso   1.00
C12    C     0.16264   0.25603   0.46866   0.00000  Uiso   1.00
C13    C     0.18494   0.14813   0.12961   0.00000  Uiso   1.00
C14    C     0.14853   0.18445   0.37072   0.00000  Uiso   1.00
C15    C     0.19793   0.09119   0.01863   0.00000  Uiso   1.00
C16    C     0.18925   0.14178   0.08204   0.00000  Uiso   1.00
C17    C     0.14881   0.24004   0.43087   0.00000  Uiso   1.00
C18    C     0.13881   0.19580   0.08858   0.00000  Uiso   1.00
C19    C     0.09378   0.17120   0.09938   0.00000  Uiso   1.00
C20    C     0.06014   0.19960   0.12309   0.00000  Uiso   1.00
C21    C     0.17338   0.22933   0.49463   0.00000  Uiso   1.00
C22    C     0.16592   0.18566   0.48612   0.00000  Uiso   1.00
C23    C     0.15524   0.16950   0.44565   0.00000  Uiso   1.00
C24    C     0.17356   0.15777   0.01421   0.00000  Uiso   1.00
C25    C     0.18144   0.11680   0.49597   0.00000  Uiso   1.00
C26    C     0.17068   0.10113   0.45632   0.00000  Uiso   1.00
C27    C     0.15455   0.12634   0.43332   0.00000  Uiso   1.00
H28    H     0.21591   0.08408   0.07814   0.00000  Uiso   1.00
H29    H     0.14332   0.11183   0.40481   0.00000  Uiso   1.00
H30    H     0.01475   0.20020   0.21641   0.00000  Uiso   1.00
H31    H     0.06889   0.21636   0.15315   0.00000  Uiso   1.00
H32    H     0.05786   0.22283   0.10061   0.00000  Uiso   1.00
H33    H     0.02835   0.18064   0.13305   0.00000  Uiso   1.00
H34    H     0.08548   0.15659   0.06821   0.00000  Uiso   1.00
H35    H     0.09287   0.14601   0.12093   0.00000  Uiso   1.00
H36    H     0.14769   0.20847   0.11997   0.00000  Uiso   1.00
H37    H     0.13670   0.22377   0.07302   0.00000  Uiso   1.00
H38    H     0.31968   0.13396   0.28482   0.00000  Uiso   1.00
H39    H     0.20656   0.00365   0.21154   0.00000  Uiso   1.00
H40    H     0.12522   0.33126   0.28878   0.00000  Uiso   1.00
H41    H     0.17331   0.06886   0.44387   0.00000  Uiso   1.00
H42    H     0.20558   0.06047   0.00421   0.00000  Uiso   1.00
H43    H     0.14339   0.26175   0.40964   0.00000  Uiso   1.00
H44    H     0.18903   0.24319   0.02044   0.00000  Uiso   1.00
H45    H     0.16723   0.28945   0.47654   0.00000  Uiso   1.00
O46    O     0.16667   0.16667   0.25000   0.00000  Uiso   1.00
O47    O     0.15451   0.12637   0.15458   0.00000  Uiso   1.00
O48    O     0.12940   0.20391   0.34968   0.00000  Uiso   1.00
O49    O     0.20824   0.17759   0.14606   0.00000  Uiso   1.00
O50    O     0.17451   0.15880   0.34968   0.00000  Uiso   1.00
O51    O     0.17930   0.08019   0.28213   0.00000  Uiso   1.00
O52    O     0.14632   0.26085   0.27013   0.00000  Uiso   1.00
O53    O     0.07412   0.13291   0.23413   0.00000  Uiso   1.00
O54    O     0.26693   0.19272   0.21360   0.00000  Uiso   1.00
O55    O     0.07071   0.18878   0.28213   0.00000  Uiso   1.00
O56    O     0.25491   0.15226   0.27013   0.00000  Uiso   1.00
O57    O     0.13760   0.06944   0.23413   0.00000  Uiso   1.00
O58    O     0.20345   0.25620   0.21360   0.00000  Uiso   1.00
Zn59   Zn    0.19338   0.13994   0.28734   0.00000  Uiso   1.00
Zn60   Zn    0.13379   0.12458   0.21875   0.00000  Uiso   1.00
Zn61   Zn    0.21056   0.19775   0.20657   0.00000  Uiso   1.00
Zn62   Zn    0.12893   0.20439   0.28733   0.00000  Uiso   1.00
C63    C     0.38608   0.15950   0.25990   0.00000  Uiso   1.00
C64    C     0.50473   0.16784   0.06022   0.00000  Uiso   1.00
C65    C     0.53706   0.10459   0.06063   0.00000  Uiso   1.00
C66    C     0.61398   0.17413   0.24042   0.00000  Uiso   1.00
C67    C     0.48099   0.19725   0.41751   0.00000  Uiso   1.00
C68    C     0.65960   0.17859   0.23827   0.00000  Uiso   1.00
C69    C     0.34080   0.15642   0.26336   0.00000  Uiso   1.00
C70    C     0.51364   0.32242   0.23652   0.00000  Uiso   1.00
C71    C     0.48516   0.01169   0.26366   0.00000  Uiso   1.00
C72    C     0.48947   0.05584   0.26011   0.00000  Uiso   1.00
C73    C     0.50985   0.27784   0.24018   0.00000  Uiso   1.00
C74    C     0.49598   0.25603   0.46866   0.00000  Uiso   1.00
C75    C     0.51827   0.14813   0.12961   0.00000  Uiso   1.00
C76    C     0.48186   0.18445   0.37072   0.00000  Uiso   1.00
C77    C     0.53127   0.09119   0.01863   0.00000  Uiso   1.00
C78    C     0.52258   0.14178   0.08204   0.00000  Uiso   1.00
C79    C     0.48214   0.24004   0.43087   0.00000  Uiso   1.00
C80    C     0.47214   0.19580   0.08858   0.00000  Uiso   1.00
C81    C     0.42711   0.17120   0.09938   0.00000  Uiso   1.00
C82    C     0.39347   0.19960   0.12309   0.00000  Uiso   1.00
C83    C     0.50671   0.22933   0.49463   0.00000  Uiso   1.00
C84    C     0.49925   0.18566   0.48612   0.00000  Uiso   1.00
C85    C     0.48857   0.16950   0.44565   0.00000  Uiso   1.00
C86    C     0.50689   0.15777   0.01421   0.00000  Uiso   1.00
C87    C     0.51477   0.11680   0.49597   0.00000  Uiso   1.00
C88    C     0.50401   0.10113   0.45632   0.00000  Uiso   1.00
C89    C     0.48788   0.12634   0.43332   0.00000  Uiso   1.00
H90    H     0.54924   0.08408   0.07814   0.00000  Uiso   1.00
H91    H     0.47665   0.11183   0.40481   0.00000  Uiso   1.00
H92    H     0.34808   0.20020   0.21641   0.00000  Uiso   1.00
H93    H     0.40222   0.21636   0.15315   0.00000  Uiso   1.00
H94    H     0.39119   0.22283   0.10061   0.00000  Uiso   1.00
H95    H     0.36168   0.18064   0.13305   0.00000  Uiso   1.00
H96    H     0.41881   0.15659   0.06821   0.00000  Uiso   1.00
H97    H     0.42620   0.14601   0.12093   0.00000  Uiso   1.00
H98    H     0.48103   0.20847   0.11997   0.00000  Uiso   1.00
H99    H     0.47003   0.22377   0.07302   0.00000  Uiso   1.00
H100   H     0.65301   0.13396   0.28482   0.00000  Uiso   1.00
H101   H     0.53990   0.00365   0.21154   0.00000  Uiso   1.00
H102   H     0.45856   0.33126   0.28878   0.00000  Uiso   1.00
H103   H     0.50664   0.06886   0.44387   0.00000  Uiso   1.00
H104   H     0.53892   0.06047   0.00421   0.00000  Uiso   1.00
H105   H     0.47672   0.26175   0.40964   0.00000  Uiso   1.00
H106   H     0.52236   0.24319   0.02044   0.00000  Uiso   1.00
H107   H     0.50057   0.28945   0.47654   0.00000  Uiso   1.00
O108   O     0.50000   0.16667   0.25000   0.00000  Uiso   1.00
O109   O     0.48784   0.12637   0.15458   0.00000  Uiso   1.00
O110   O     0.46274   0.20391   0.34968   0.00000  Uiso   1.00
O111   O     0.54157   0.17759   0.14606   0.00000  Uiso   1.00
O112   O     0.50785   0.15880   0.34968   0.00000  Uiso   1.00
O113   O     0.51264   0.08019   0.28213   0.00000  Uiso   1.00
O114   O     0.47965   0.26085   0.27013   0.00000  Uiso   1.00
O115   O     0.40745   0.13291   0.23413   0.00000  Uiso   1.00
O116   O     0.60026   0.19272   0.21360   0.00000  Uiso   1.00
O117   O     0.40405   0.18878   0.28213   0.00000  Uiso   1.00
O118   O     0.58824   0.15226   0.27013   0.00000  Uiso   1.00
O119   O     0.47093   0.06944   0.23413   0.00000  Uiso   1.00
O120   O     0.53678   0.25620   0.21360   0.00000  Uiso   1.00
Zn121  Zn    0.52672   0.13994   0.28734   0.00000  Uiso   1.00
Zn122  Zn    0.46713   0.12458   0.21875   0.00000  Uiso   1.00
Zn123  Zn    0.54389   0.19775   0.20657   0.00000  Uiso   1.00
Zn124  Zn    0.46226   0.20439   0.28733   0.00000  Uiso   1.00
C125   C     0.71941   0.15950   0.25990   0.00000  Uiso   1.00
C126   C     0.83806   0.16784   0.06022   0.00000  Uiso   1.00
C127   C     0.87039   0.10459   0.06063   0.00000  Uiso   1.00
C128   C     0.94732   0.17413   0.24042   0.00000  Uiso   1.00
C129   C     0.81433   0.19725   0.41751   0.00000  Uiso   1.00
C130   C     0.99293   0.17859   0.23827   0.00000  Uiso   1.00
C131   C     0.67413   0.15642   0.26336   0.00000  Uiso   1.00
C132   C     0.84697   0.32242   0.23652   0.00000  Uiso   1.00
C133   C     0.81849   0.01169   0.26366   0.00000  Uiso   1.00
C134   C     0.82280   0.05584   0.26011   0.00000  Uiso   1.00
C135   C     0.84319   0.27784   0.24018   0.00000  Uiso   1.00
C136   C     0.82931   0.25603   0.46866   0.00000  Uiso   1.00
C137   C     0.85161   0.14813   0.12961   0.00000  Uiso   1.00
C138   C     0.81519   0.18445   0.37072   0.00000  Uiso   1.00
C139   C     0.86460   0.09119   0.01863   0.00000  Uiso   1.00
C140   C     0.85592   0.14178   0.08204   0.00000  Uiso   1.00
C141   C     0.81547   0.24004   0.43087   0.00000  Uiso   1.00
C142   C     0.80548   0.19580   0.08858   0.00000  Uiso   1.00
C143   C     0.76044   0.17120   0.09938   0.00000  Uiso   1.00
C144   C     0.72681   0.19960   0.12309   0.00000  Uiso   1.00
C145   C     0.84005   0.22933   0.49463   0.00000  Uiso   1.00
C146   C     0.83258   0.18566   0.48612   0.00000  Uiso   1.00
C147   C     0.82190   0.16950   0.44565   0.00000  Uiso   1.00
C148   C     0.84022   0.15777   0.01421   0.00000  Uiso   1.00
C149   C     0.84810   0.11680   0.49597   0.00000  Uiso   1.00
C150   C     0.83734   0.10113   0.45632   0.00000  Uiso   1.00
C151   C     0.82121   0.12634   0.43332   0.00000  Uiso   1.00
H152   H     0.88257   0.08408   0.07814   0.00000  Uiso   1.00
H153   H     0.80998   0.11183   0.40481   0.00000  Uiso   1.00
H154   H     0.68141   0.20020   0.21641   0.00000  Uiso   1.00
H155   H     0.73556   0.21636   0.15315   0.00000  Uiso   1.00
H156   H     0.72452   0.22283   0.10061   0.00000  Uiso   1.00
H157   H     0.69501   0.18064   0.13305   0.00000  Uiso   1.00
H158   H     0.75214   0.15659   0.06821   0.00000  Uiso   1.00
H159   H     0.75953   0.14601   0.12093   0.00000  Uiso   1.00
H160   H     0.81436   0.20847   0.11997   0.00000  Uiso   1.00
H161   H     0.80337   0.22377   0.07302   0.00000  Uiso   1.00
H162   H     0.98635   0.13396   0.28482   0.00000  Uiso   1.00
H163   H     0.87323   0.00365   0.21154   0.00000  Uiso   1.00
H164   H     0.79189   0.33126   0.28878   0.00000  Uiso   1.00
H165   H     0.83998   0.06886   0.44387   0.00000  Uiso   1.00
H166   H     0.87225   0.06047   0.00421   0.00000  Uiso   1.00
H167   H     0.81005   0.26175   0.40964   0.00000  Uiso   1.00
H168   H     0.85570   0.24319   0.02044   0.00000  Uiso   1.00
H169   H     0.83390   0.28945   0.47654   0.00000  Uiso   1.00
O170   O     0.83333   0.16667   0.25000   0.00000  Uiso   1.00
O171   O     0.82118   0.12637   0.15458   0.00000  Uiso   1.00
O172   O     0.79607   0.20391   0.34968   0.00000  Uiso   1.00
O173   O     0.87491   0.17759   0.14606   0.00000  Uiso   1.00
O174   O     0.84118   0.15880   0.34968   0.00000  Uiso   1.00
O175   O     0.84597   0.08019   0.28213   0.00000  Uiso   1.00
O176   O     0.81298   0.26085   0.27013   0.00000  Uiso   1.00
O177   O     0.74078   0.13291   0.23413   0.00000  Uiso   1.00
O178   O     0.93360   0.19272   0.21360   0.00000  Uiso   1.00
O179   O     0.73738   0.18878   0.28213   0.00000  Uiso   1.00
O180   O     0.92158   0.15226   0.27013   0.00000  Uiso   1.00
O181   O     0.80426   0.06944   0.23413   0.00000  Uiso   1.00
O182   O     0.87012   0.25620   0.21360   0.00000  Uiso   1.00
Zn183  Zn    0.86005   0.13994   0.28734   0.00000  Uiso   1.00
Zn184  Zn    0.80046   0.12458   0.21875   0.00000  Uiso   1.00
Zn185  Zn    0.87723   0.19775   0.20657   0.00000  Uiso   1.00
Zn186  Zn    0.79560   0.20439   0.28733   0.00000  Uiso   1.00
C187   C     0.05275   0.49284   0.25990   0.00000  Uiso   1.00
C188   C     0.17140   0.50118   0.06022   0.00000  Uiso   1.00
C189   C     0.20372   0.43792   0.06063   0.00000  Uiso   1.00
C190   C     0.28065   0.50746   0.24042   0.00000  Uiso   1.00
C191   C     0.14766   0.53058   0.41751   0.00000  Uiso   1.00
C192   C     0.32626   0.51193   0.23827   0.00000  Uiso   1.00
C193   C     0.00746   0.48975   0.26336   0.00000  Uiso   1.00
C194   C     0.18030   0.65575   0.23652   0.00000  Uiso   1.00
C195   C     0.15182   0.34502   0.26366   0.00000  Uiso   1.00
C196   C     0.15613   0.38918   0.26011   0.00000  Uiso   1.00
C197   C     0.17652   0.61117   0.24018   0.00000  Uiso   1.00
C198   C     0.16264   0.58936   0.46866   0.00000  Uiso   1.00
C199   C     0.18494   0.48146   0.12961   0.00000  Uiso   1.00
C200   C     0.14853   0.51778   0.37072   0.00000  Uiso   1.00
C201   C     0.19793   0.42452   0.01863   0.00000  Uiso   1.00
C202   C     0.18925   0.47511   0.08204   0.00000  Uiso   1.00
C203   C     0.14881   0.57337   0.43087   0.00000  Uiso   1.00
C204   C     0.13881   0.52914   0.08858   0.00000  Uiso   1.00
C205   C     0.09378   0.50453   0.09938   0.00000  Uiso   1.00
C206   C     0.06014   0.53293   0.12309   0.00000  Uiso   1.00
C207   C     0.17338   0.56266   0.49463   0.00000  Uiso   1.00
C208   C     0.16592   0.51899   0.48612   0.00000  Uiso   1.00
C209   C     0.15524   0.50284   0.44565   0.00000  Uiso   1.00
C210   C     0.17356   0.49111   0.01421   0.00000  Uiso   1.00
C211   C     0.18144   0.45013   0.49597   0.00000  Uiso   1.00
C212   C     0.17068   0.43447   0.45632   0.00000  Uiso   1.00
C213   C     0.15455   0.45967   0.43332   0.00000  Uiso   1.00
H214   H     0.21591   0.41741   0.07814   0.00000  Uiso   1.00
H215   H     0.14332   0.44516   0.40481   0.00000  Uiso   1.00
H216   H     0.01475   0.53354   0.21641   0.00000  Uiso   1.00
H217   H     0.06889   0.54969   0.15315   0.00000  Uiso   1.00
H218   H     0.05786   0.55616   0.10061   0.00000  Uiso   1.00
H219   H     0.02835   0.51397   0.13305   0.00000  Uiso   1.00
H220   H     0.08548   0.48992   0.06821   0.00000  Uiso   1.00
H221   H     0.09287   0.47934   0.12093   0.00000  Uiso   1.00
H222   H     0.14769   0.54181   0.11997   0.00000  Uiso   1.00
H223   H     0.13670   0.55710   0.07302   0.00000  Uiso   1.00
H224   H     0.31968   0.46729   0.28482   0.00000  Uiso   1.00
H225   H     0.20656   0.33699   0.21154   0.00000  Uiso   1.00
H226   H     0.12522   0.66459   0.28878   0.00000  Uiso   1.00
H227   H     0.17331   0.40219   0.44387   0.00000  Uiso   1.00
H228   H     0.20558   0.39381   0.00421   0.00000  Uiso   1.00
H229   H     0.14339   0.59508   0.40964   0.00000  Uiso   1.00
H230   H     0.18903   0.57653   0.02044   0.00000  Uiso   1.00
H231   H     0.16723   0.62278   0.47654   0.00000  Uiso   1.00
O232   O     0.16667   0.50000   0.25000   0.00000  Uiso   1.00
O233   O     0.15451   0.45970   0.15458   0.00000  Uiso   1.00
O234   O     0.12940   0.53724   0.34968   0.00000  Uiso   1.00
O235   O     0.20824   0.51092   0.14606   0.00000  Uiso   1.00
O236   O     0.17451   0.49213   0.34968   0.00000  Uiso   1.00
O237   O     0.17930   0.41352   0.28213   0.00000  Uiso   1.00
O238   O     0.14632   0.59418   0.27013   0.00000  Uiso   1.00
O239   O     0.07412   0.46625   0.23413   0.00000  Uiso   1.00
O240   O     0.26693   0.52605   0.21360   0.00000  Uiso   1.00
O241   O     0.07071   0.52211   0.28213   0.00000  Uiso   1.00
O242   O     0.25491   0.48559   0.27013   0.00000  Uiso   1.00
O243   O     0.13760   0.40277   0.23413   0.00000  Uiso   1.00
O244   O     0.20345   0.58953   0.21360   0.00000  Uiso   1.00
Zn245  Zn    0.19338   0.47327   0.28734   0.00000  Uiso   1.00
Zn246  Zn    0.13379   0.45791   0.21875   0.00000  Uiso   1.00
Zn247  Zn    0.21056   0.53109   0.20657   0.00000  Uiso   1.00
Zn248  Zn    0.12893   0.53773   0.28733   0.00000  Uiso   1.00
C249   C     0.38608   0.49284   0.25990   0.00000  Uiso   1.00
C250   C     0.50473   0.50118   0.06022   0.00000  Uiso   1.00
C251   C     0.53706   0.43792   0.06063   0.00000  Uiso   1.00
C252   C     0.61398   0.50746   0.24042   0.00000  Uiso   1.00
C253   C     0.48099   0.53058   0.41751   0.00000  Uiso   1.00
C254   C     0.65960   0.51193   0.23827   0.00000  Uiso   1.00
C255   C     0.34080   0.48975   0.26336   0.00000  Uiso   1.00
C256   C     0.51364   0.65575   0.23652   0.00000  Uiso   1.00
C257   C     0.48516   0.34502   0.26366   0.00000  Uiso   1.00
C258   C     0.48947   0.38918   0.26011   0.00000  Uiso   1.00
C259   C     0.50985   0.61117   0.24018   0.00000  Uiso   1.00
C260   C     0.49598   0.58936   0.46866   0.00000  Uiso   1.00
C261   C     0.51827   0.48146   0.12961   0.00000  Uiso   1.00
C262   C     0.48186   0.51778   0.37072   0.00000  Uiso   1.00
C263   C     0.53127   0.42452   0.01863   0.00000  Uiso   1.00
C264   C     0.52258   0.47511   0.08204   0.00000  Uiso   1.00
C265   C     0.48214   0.57337   0.43087   0.00000  Uiso   1.00
C266   C     0.47214   0.52914   0.08858   0.00000  Uiso   1.00
C267   C     0.42711   0.50453   0.09938   0.00000  Uiso   1.00
C268   C     0.39347   0.53293   0.12309   0.00000  Uiso   1.00
C269   C     0.50671   0.56266   0.49463   0.00000  Uiso   1.00
C270   C     0.49925   0.51899   0.48612   0.00000  Uiso   1.00
C271   C     0.48857   0.50284   0.44565   0.00000  Uiso   1.00
C272   C     0.50689   0.49111   0.01421   0.00000  Uiso   1.00
C273   C     0.51477   0.45013   0.49597   0.00000  Uiso   1.00
C274   C     0.50401   0.43447   0.45632   0.00000  Uiso   1.00
C275   C     0.48788   0.45967   0.43332   0.00000  Uiso   1.00
H276   H     0.54924   0.41741   0.07814   0.00000  Uiso   1.00
H277   H     0.47665   0.44516   0.40481   0.00000  Uiso   1.00
H278   H     0.34808   0.53354   0.21641   0.00000  Uiso   1.00
H279   H     0.40222   0.54969   0.15315   0.00000  Uiso   1.00
H280   H     0.39119   0.55616   0.10061   0.00000  Uiso   1.00
H281   H     0.36168   0.51397   0.13305   0.00000  Uiso   1.00
H282   H     0.41881   0.48992   0.06821   0.00000  Uiso   1.00
H283   H     0.42620   0.47934   0.12093   0.00000  Uiso   1.00
H284   H     0.48103   0.54181   0.11997   0.00000  Uiso   1.00
H285   H     0.47003   0.55710   0.07302   0.00000  Uiso   1.00
H286   H     0.65301   0.46729   0.28482   0.00000  Uiso   1.00
H287   H     0.53990   0.33699   0.21154   0.00000  Uiso   1.00
H288   H     0.45856   0.66459   0.28878   0.00000  Uiso   1.00
H289   H     0.50664   0.40219   0.44387   0.00000  Uiso   1.00
H290   H     0.53892   0.39381   0.00421   0.00000  Uiso   1.00
H291   H     0.47672   0.59508   0.40964   0.00000  Uiso   1.00
H292   H     0.52236   0.57653   0.02044   0.00000  Uiso   1.00
H293   H     0.50057   0.62278   0.47654   0.00000  Uiso   1.00
O294   O     0.50000   0.50000   0.25000   0.00000  Uiso   1.00
O295   O     0.48784   0.45970   0.15458   0.00000  Uiso   1.00
O296   O     0.46274   0.53724   0.34968   0.00000  Uiso   1.00
O297   O     0.54157   0.51092   0.14606   0.00000  Uiso   1.00
O298   O     0.50785   0.49213   0.34968   0.00000  Uiso   1.00
O299   O     0.51264   0.41352   0.28213   0.00000  Uiso   1.00
O300   O     0.47965   0.59418   0.27013   0.00000  Uiso   1.00
O301   O     0.40745   0.46625   0.23413   0.00000  Uiso   1.00
O302   O     0.60026   0.52605   0.21360   0.00000  Uiso   1.00
O303   O     0.40405   0.52211   0.28213   0.00000  Uiso   1.00
O304   O     0.58824   0.48559   0.27013   0.00000  Uiso   1.00
O305   O     0.47093   0.40277   0.23413   0.00000  Uiso   1.00
O306   O     0.53678   0.58953   0.21360   0.00000  Uiso   1.00
Zn307  Zn    0.52672   0.47327   0.28734   0.00000  Uiso   1.00
Zn308  Zn    0.46713   0.45791   0.21875   0.00000  Uiso   1.00
Zn309  Zn    0.54389   0.53109   0.20657   0.00000  Uiso   1.00
Zn310  Zn    0.46226   0.53773   0.28733   0.00000  Uiso   1.00
C311   C     0.71941   0.49284   0.25990   0.00000  Uiso   1.00
C312   C     0.83806   0.50118   0.06022   0.00000  Uiso   1.00
C313   C     0.87039   0.43792   0.06063   0.00000  Uiso   1.00
C314   C     0.94732   0.50746   0.24042   0.00000  Uiso   1.00
C315   C     0.81433   0.53058   0.41751   0.00000  Uiso   1.00
C316   C     0.99293   0.51193   0.23827   0.00000  Uiso   1.00
C317   C     0.67413   0.48975   0.26336   0.00000  Uiso   1.00
C318   C     0.84697   0.65575   0.23652   0.00000  Uiso   1.00
C319   C     0.81849   0.34502   0.26366   0.00000  Uiso   1.00
C320   C     0.82280   0.38918   0.26011   0.00000  Uiso   1.00
C321   C     0.84319   0.61117   0.24018   0.00000  Uiso   1.00
C322   C     0.82931   0.58936   0.46866   0.00000  Uiso   1.00
C323   C     0.85161   0.48146   0.12961   0.00000  Uiso   1.00
C324   C     0.81519   0.51778   0.37072   0.00000  Uiso   1.00
C325   C     0.86460   0.42452   0.01863   0.00000  Uiso   1.00
C326   C     0.85592   0.47511   0.08204   0.00000  Uiso   1.00
C327   C     0.81547   0.57337   0.43087   0.00000  Uiso   1.00
C328   C     0.80548   0.52914   0.08858   0.00000  Uiso   1.00
C329   C     0.76044   0.50453   0.09938   0.00000  Uiso   1.00
C330   C     0.72681   0.53293   0.12309   0.00000  Uiso   1.00
C331   C     0.84005   0.56266   0.49463   0.00000  Uiso   1.00
C332   C     0.83258   0.51899   0.48612   0.00000  Uiso   1.00
C333   C     0.82190   0.50284   0.44565   0.00000  Uiso   1.00
C334   C     0.84022   0.49111   0.01421   0.00000  Uiso   1.00
C335   C     0.84810   0.45013   0.49597   0.00000  Uiso   1.00
C336   C     0.83734   0.43447   0.45632   0.00000  Uiso   1.00
C337   C     0.82121   0.45967   0.43332   0.00000  Uiso   1.00
H338   H     0.88257   0.41741   0.07814   0.00000  Uiso   1.00
H339   H     0.80998   0.44516   0.40481   0.00000  Uiso   1.00
H340   H     0.68141   0.53354   0.21641   0.00000  Uiso   1.00
H341   H     0.73556   0.54969   0.15315   0.00000  Uiso   1.00
H342   H     0.72452   0.55616   0.10061   0.00000  Uiso   1.00
H343   H     0.69501   0.51397   0.13305   0.00000  Uiso   1.00
H344   H     0.75214   0.48992   0.06821   0.00000  Uiso   1.00
H345   H     0.75953   0.47934   0.12093   0.00000  Uiso   1.00
H346   H     0.81436   0.54181   0.11997   0.00000  Uiso   1.00
H347   H     0.80337   0.55710   0.07302   0.00000  Uiso   1.00
H348   H     0.98635   0.46729   0.28482   0.00000  Uiso   1.00
H349   H     0.87323   0.33699   0.21154   0.00000  Uiso   1.00
H350   H     0.79189   0.66459   0.28878   0.00000  Uiso   1.00
H351   H     0.83998   0.40219   0.44387   0.00000  Uiso   1.00
H352   H     0.87225   0.39381   0.00421   0.00000  Uiso   1.00
H353   H     0.81005   0.59508   0.40964   0.00000  Uiso   1.00
H354   H     0.85570   0.57653   0.02044   0.00000  Uiso   1.00
H355   H     0.83390   0.62278   0.47654   0.00000  Uiso   1.00
O356   O     0.83333   0.50000   0.25000   0.00000  Uiso   1.00
O357   O     0.82118   0.45970   0.15458   0.00000  Uiso   1.00
O358   O     0.79607   0.53724   0.34968   0.00000  Uiso   1.00
O359   O     0.87491   0.51092   0.14606   0.00000  Uiso   1.00
O360   O     0.84118   0.49213   0.34968   0.00000  Uiso   1.00
O361   O     0.84597   0.41352   0.28213   0.00000  Uiso   1.00
O362   O     0.81298   0.59418   0.27013   0.00000  Uiso   1.00
O363   O     0.74078   0.46625   0.23413   0.00000  Uiso   1.00
O364   O     0.93360   0.52605   0.21360   0.00000  Uiso   1.00
O365   O     0.73738   0.52211   0.28213   0.00000  Uiso   1.00
O366   O     0.92158   0.48559   0.27013   0.00000  Uiso   1.00
O367   O     0.80426   0.40277   0.23413   0.00000  Uiso   1.00
O368   O     0.87012   0.58953   0.21360   0.00000  Uiso   1.00
Zn369  Zn    0.86005   0.47327   0.28734   0.00000  Uiso   1.00
Zn370  Zn    0.80046   0.45791   0.21875   0.00000  Uiso   1.00
Zn371  Zn    0.87723   0.53109   0.20657   0.00000  Uiso   1.00
Zn372  Zn    0.79560   0.53773   0.28733   0.00000  Uiso   1.00
C373   C     0.05275   0.82617   0.25990   0.00000  Uiso   1.00
C374   C     0.17140   0.83451   0.06022   0.00000  Uiso   1.00
C375   C     0.20372   0.77126   0.06063   0.00000  Uiso   1.00
C376   C     0.28065   0.84079   0.24042   0.00000  Uiso   1.00
C377   C     0.14766   0.86391   0.41751   0.00000  Uiso   1.00
C378   C     0.32626   0.84526   0.23827   0.00000  Uiso   1.00
C379   C     0.00746   0.82309   0.26336   0.00000  Uiso   1.00
C380   C     0.18030   0.98909   0.23652   0.00000  Uiso   1.00
C381   C     0.15182   0.67836   0.26366   0.00000  Uiso   1.00
C382   C     0.15613   0.72251   0.26011   0.00000  Uiso   1.00
C383   C     0.17652   0.94450   0.24018   0.00000  Uiso   1.00
C384   C     0.16264   0.92269   0.46866   0.00000  Uiso   1.00
C385   C     0.18494   0.81479   0.12961   0.00000  Uiso   1.00
C386   C     0.14853   0.85111   0.37072   0.00000  Uiso   1.00
C387   C     0.19793   0.75785   0.01863   0.00000  Uiso   1.00
C388   C     0.18925   0.80845   0.08204   0.00000  Uiso   1.00
C389   C     0.14881   0.90670   0.43087   0.00000  Uiso   1.00
C390   C     0.13881   0.86247   0.08858   0.00000  Uiso   1.00
C391   C     0.09378   0.83786   0.09938   0.00000  Uiso   1.00
C392   C     0.06014   0.86626   0.12309   0.00000  Uiso   1.00
C393   C     0.17338   0.89599   0.49463   0.00000  Uiso   1.00
C394   C     0.16592   0.85232   0.48612   0.00000  Uiso   1.00
C395   C     0.15524   0.83617   0.44565   0.00000  Uiso   1.00
C396   C     0.17356   0.82444   0.01421   0.00000  Uiso   1.00
C397   C     0.18144   0.78347   0.49597   0.00000  Uiso   1.00
C398   C     0.17068   0.76780   0.45632   0.00000  Uiso   1.00
C399   C     0.15455   0.79300   0.43332   0.00000  Uiso   1.00
H400   H     0.21591   0.75075   0.07814   0.00000  Uiso   1.00
H401   H     0.14332   0.77849   0.40481   0.00000  Uiso   1.00
H402   H     0.01475   0.86687   0.21641   0.00000  Uiso   1.00
H403   H     0.06889   0.88303   0.15315   0.00000  Uiso   1.00
H404   H     0.05786   0.88950   0.10061   0.00000  Uiso   1.00
H405   H     0.02835   0.84731   0.13305   0.00000  Uiso   1.00
H406   H     0.08548   0.82325   0.06821   0.00000  Uiso   1.00
H407   H     0.09287   0.81267   0.12093   0.00000  Uiso   1.00
H408   H     0.14769   0.87514   0.11997   0.00000  Uiso   1.00
H409   H     0.13670   0.89044   0.07302   0.00000  Uiso   1.00
H410   H     0.31968   0.80062   0.28482   0.00000  Uiso   1.00
H411   H     0.20656   0.67032   0.21154   0.00000  Uiso   1.00
H412   H     0.12522   0.99792   0.28878   0.00000  Uiso   1.00
H413   H     0.17331   0.73553   0.44387   0.00000  Uiso   1.00
H414   H     0.20558   0.72714   0.00421   0.00000  Uiso   1.00
H415   H     0.14339   0.92842   0.40964   0.00000  Uiso   1.00
H416   H     0.18903   0.90986   0.02044   0.00000  Uiso   1.00
H417   H     0.16723   0.95611   0.47654   0.00000  Uiso   1.00
O418   O     0.16667   0.83333   0.25000   0.00000  Uiso   1.00
O419   O     0.15451   0.79304   0.15458   0.00000  Uiso   1.00
O420   O     0.12940   0.87058   0.34968   0.00000  Uiso   1.00
O421   O     0.20824   0.84425   0.14606   0.00000  Uiso   1.00
O422   O     0.17451   0.82546   0.34968   0.00000  Uiso   1.00
O423   O     0.17930   0.74686   0.28213   0.00000  Uiso   1.00
O424   O     0.14632   0.92751   0.27013   0.00000  Uiso   1.00
O425   O     0.07412   0.79958   0.23413   0.00000  Uiso   1.00
O426   O     0.26693   0.85939   0.21360   0.00000  Uiso   1.00
O427   O     0.07071   0.85544   0.28213   0.00000  Uiso   1.00
O428   O     0.25491   0.81892   0.27013   0.00000  Uiso   1.00
O429   O     0.13760   0.73610   0.23413   0.00000  Uiso   1.00
O430   O     0.20345   0.92286   0.21360   0.00000  Uiso   1.00
Zn431  Zn    0.19338   0.80661   0.28734   0.00000  Uiso   1.00
Zn432  Zn    0.13379   0.79124   0.21875   0.00000  Uiso   1.00
Zn433  Zn    0.21056   0.86442   0.20657   0.00000  Uiso   1.00
Zn434  Zn    0.12893   0.87106   0.28733   0.00000  Uiso   1.00
C435   C     0.38608   0.82617   0.25990   0.00000  Uiso   1.00
C436   C     0.50473   0.83451   0.06022   0.00000  Uiso   1.00
C437   C     0.53706   0.77126   0.06063   0.00000  Uiso   1.00
C438   C     0.61398   0.84079   0.24042   0.00000  Uiso   1.00
C439   C     0.48099   0.86391   0.41751   0.00000  Uiso   1.00
C440   C     0.65960   0.84526   0.23827   0.00000  Uiso   1.00
C441   C     0.34080   0.82309   0.26336   0.00000  Uiso   1.00
C442   C     0.51364   0.98909   0.23652   0.00000  Uiso   1.00
C443   C     0.48516   0.67836   0.26366   0.00000  Uiso   1.00
C444   C     0.48947   0.72251   0.26011   0.00000  Uiso   1.00
C445   C     0.50985   0.94450   0.24018   0.00000  Uiso   1.00
C446   C     0.49598   0.92269   0.46866   0.00000  Uiso   1.00
C447   C     0.51827   0.81479   0.12961   0.00000  Uiso   1.00
C448   C     0.48186   0.85111   0.37072   0.00000  Uiso   1.00
C449   C     0.53127   0.75785   0.01863   0.00000  Uiso   1.00
C450   C     0.52258   0.80845   0.08204   0.00000  Uiso   1.00
C451   C     0.48214   0.90670   0.43087   0.00000  Uiso   1.00
C452   C     0.47214   0.86247   0.08858   0.00000  Uiso   1.00
C453   C     0.42711   0.83786   0.09938   0.00000  Uiso   1.00
C454   C     0.39347   0.86626   0.12309   0.00000  Uiso   1.00
C455   C     0.50671   0.89599   0.49463   0.00000  Uiso   1.00
C456   C     0.49925   0.85232   0.48612   0.00000  Uiso   1.00
C457   C     0.48857   0.83617   0.44565   0.00000  Uiso   1.00
C458   C     0.50689   0.82444   0.01421   0.00000  Uiso   1.00
C459   C     0.51477   0.78347   0.49597   0.00000  Uiso   1.00
C460   C     0.50401   0.76780   0.45632   0.00000  Uiso   1.00
C461   C     0.48788   0.79300   0.43332   0.00000  Uiso   1.00
H462   H     0.54924   0.75075   0.07814   0.00000  Uiso   1.00
H463   H     0.47665   0.77849   0.40481   0.00000  Uiso   1.00
H464   H     0.34808   0.86687   0.21641   0.00000  Uiso   1.00
H465   H     0.40222   0.88303   0.15315   0.00000  Uiso   1.00
H466   H     0.39119   0.88950   0.10061   0.00000  Uiso   1.00
H467   H     0.36168   0.84731   0.13305   0.00000  Uiso   1.00
H468   H     0.41881   0.82325   0.06821   0.00000  Uiso   1.00
H469   H     0.42620   0.81267   0.12093   0.00000  Uiso   1.00
H470   H     0.48103   0.87514   0.11997   0.00000  Uiso   1.00
H471   H     0.47003   0.89044   0.07302   0.00000  Uiso   1.00
H472   H     0.65301   0.80062   0.28482   0.00000  Uiso   1.00
H473   H     0.53990   0.67032   0.21154   0.00000  Uiso   1.00
H474   H     0.45856   0.99792   0.28878   0.00000  Uiso   1.00
H475   H     0.50664   0.73553   0.44387   0.00000  Uiso   1.00
H476   H     0.53892   0.72714   0.00421   0.00000  Uiso   1.00
H477   H     0.47672   0.92842   0.40964   0.00000  Uiso   1.00
H478   H     0.52236   0.90986   0.02044   0.00000  Uiso   1.00
H479   H     0.50057   0.95611   0.47654   0.00000  Uiso   1.00
O480   O     0.50000   0.83333   0.25000   0.00000  Uiso   1.00
O481   O     0.48784   0.79304   0.15458   0.00000  Uiso   1.00
O482   O     0.46274   0.87058   0.34968   0.00000  Uiso   1.00
O483   O     0.54157   0.84425   0.14606   0.00000  Uiso   1.00
O484   O     0.50785   0.82546   0.34968   0.00000  Uiso   1.00
O485   O     0.51264   0.74686   0.28213   0.00000  Uiso   1.00
O486   O     0.47965   0.92751   0.27013   0.00000  Uiso   1.00
O487   O     0.40745   0.79958   0.23413   0.00000  Uiso   1.00
O488   O     0.60026   0.85939   0.21360   0.00000  Uiso   1.00
O489   O     0.40405   0.85544   0.28213   0.00000  Uiso   1.00
O490   O     0.58824   0.81892   0.27013   0.00000  Uiso   1.00
O491   O     0.47093   0.73610   0.23413   0.00000  Uiso   1.00
O492   O     0.53678   0.92286   0.21360   0.00000  Uiso   1.00
Zn493  Zn    0.52672   0.80661   0.28734   0.00000  Uiso   1.00
Zn494  Zn    0.46713   0.79124   0.21875   0.00000  Uiso   1.00
Zn495  Zn    0.54389   0.86442   0.20657   0.00000  Uiso   1.00
Zn496  Zn    0.46226   0.87106   0.28733   0.00000  Uiso   1.00
C497   C     0.71941   0.82617   0.25990   0.00000  Uiso   1.00
C498   C     0.83806   0.83451   0.06022   0.00000  Uiso   1.00
C499   C     0.87039   0.77126   0.06063   0.00000  Uiso   1.00
C500   C     0.94732   0.84079   0.24042   0.00000  Uiso   1.00
C501   C     0.81433   0.86391   0.41751   0.00000  Uiso   1.00
C502   C     0.99293   0.84526   0.23827   0.00000  Uiso   1.00
C503   C     0.67413   0.82309   0.26336   0.00000  Uiso   1.00
C504   C     0.84697   0.98909   0.23652   0.00000  Uiso   1.00
C505   C     0.81849   0.67836   0.26366   0.00000  Uiso   1.00
C506   C     0.82280   0.72251   0.26011   0.00000  Uiso   1.00
C507   C     0.84319   0.94450   0.24018   0.00000  Uiso   1.00
C508   C     0.82931   0.92269   0.46866   0.00000  Uiso   1.00
C509   C     0.85161   0.81479   0.12961   0.00000  Uiso   1.00
C510   C     0.81519   0.85111   0.37072   0.00000  Uiso   1.00
C511   C     0.86460   0.75785   0.01863   0.00000  Uiso   1.00
C512   C     0.85592   0.80845   0.08204   0.00000  Uiso   1.00
C513   C     0.81547   0.90670   0.43087   0.00000  Uiso   1.00
C514   C     0.80548   0.86247   0.08858   0.00000  Uiso   1.00
C515   C     0.76044   0.83786   0.09938   0.00000  Uiso   1.00
C516   C     0.72681   0.86626   0.12309   0.00000  Uiso   1.00
C517   C     0.84005   0.89599   0.49463   0.00000  Uiso   1.00
C518   C     0.83258   0.85232   0.48612   0.00000  Uiso   1.00
C519   C     0.82190   0.83617   0.44565   0.00000  Uiso   1.00
C520   C     0.84022   0.82444   0.01421   0.00000  Uiso   1.00
C521   C     0.84810   0.78347   0.49597   0.00000  Uiso   1.00
C522   C     0.83734   0.76780   0.45632   0.00000  Uiso   1.00
C523   C     0.82121   0.79300   0.43332   0.00000  Uiso   1.00
H524   H     0.88257   0.75075   0.07814   0.00000  Uiso   1.00
H525   H     0.80998   0.77849   0.40481   0.00000  Uiso   1.00
H526   H     0.68141   0.86687   0.21641   0.00000  Uiso   1.00
H527   H     0.73556   0.88303   0.15315   0.00000  Uiso   1.00
H528   H     0.72452   0.88950   0.10061   0.00000  Uiso   1.00
H529   H     0.69501   0.84731   0.13305   0.00000  Uiso   1.00
H530   H     0.75214   0.82325   0.06821   0.00000  Uiso   1.00
H531   H     0.75953   0.81267   0.12093   0.00000  Uiso   1.00
H532   H     0.81436   0.87514   0.11997   0.00000  Uiso   1.00
H533   H     0.80337   0.89044   0.07302   0.00000  Uiso   1.00
H534   H     0.98635   0.80062   0.28482   0.00000  Uiso   1.00
H535   H     0.87323   0.67032   0.21154   0.00000  Uiso   1.00
H536   H     0.79189   0.99792   0.28878   0.00000  Uiso   1.00
H537   H     0.83998   0.73553   0.44387   0.00000  Uiso   1.00
H538   H     0.87225   0.72714   0.00421   0.00000  Uiso   1.00
H539   H     0.81005   0.92842   0.40964   0.00000  Uiso   1.00
H540   H     0.85570   0.90986   0.02044   0.00000  Uiso   1.00
H541   H     0.83390   0.95611   0.47654   0.00000  Uiso   1.00
O542   O     0.83333   0.83333   0.25000   0.00000  Uiso   1.00
O543   O     0.82118   0.79304   0.15458   0.00000  Uiso   1.00
O544   O     0.79607   0.87058   0.34968   0.00000  Uiso   1.00
O545   O     0.87491   0.84425   0.14606   0.00000  Uiso   1.00
O546   O     0.84118   0.82546   0.34968   0.00000  Uiso   1.00
O547   O     0.84597   0.74686   0.28213   0.00000  Uiso   1.00
O548   O     0.81298   0.92751   0.27013   0.00000  Uiso   1.00
O549   O     0.74078   0.79958   0.23413   0.00000  Uiso   1.00
O550   O     0.93360   0.85939   0.21360   0.00000  Uiso   1.00
O551   O     0.73738   0.85544   0.28213   0.00000  Uiso   1.00
O552   O     0.92158   0.81892   0.27013   0.00000  Uiso   1.00
O553   O     0.80426   0.73610   0.23413   0.00000  Uiso   1.00
O554   O     0.87012   0.92286   0.21360   0.00000  Uiso   1.00
Zn555  Zn    0.86005   0.80661   0.28734   0.00000  Uiso   1.00
Zn556  Zn    0.80046   0.79124   0.21875   0.00000  Uiso   1.00
Zn557  Zn    0.87723   0.86442   0.20657   0.00000  Uiso   1.00
Zn558  Zn    0.79560   0.87106   0.28733   0.00000  Uiso   1.00
C559   C     0.05275   0.15950   0.75990   0.00000  Uiso   1.00
C560   C     0.17140   0.16784   0.56022   0.00000  Uiso   1.00
C561   C     0.20372   0.10459   0.56063   0.00000  Uiso   1.00
C562   C     0.28065   0.17413   0.74042   0.00000  Uiso   1.00
C563   C     0.14766   0.19725   0.91751   0.00000  Uiso   1.00
C564   C     0.32626   0.17859   0.73827   0.00000  Uiso   1.00
C565   C     0.00746   0.15642   0.76336   0.00000  Uiso   1.00
C566   C     0.18030   0.32242   0.73652   0.00000  Uiso   1.00
C567   C     0.15182   0.01169   0.76366   0.00000  Uiso   1.00
C568   C     0.15613   0.05584   0.76011   0.00000  Uiso   1.00
C569   C     0.17652   0.27784   0.74018   0.00000  Uiso   1.00
C570   C     0.16264   0.25603   0.96866   0.00000  Uiso   1.00
C571   C     0.18494   0.14813   0.62961   0.00000  Uiso   1.00
C572   C     0.14853   0.18445   0.87072   0.00000  Uiso   1.00
C573   C     0.19793   0.09119   0.51863   0.00000  Uiso   1.00
C574   C     0.18925   0.14178   0.58204   0.00000  Uiso   1.00
C575   C     0.14881   0.24004   0.93087   0.00000  Uiso   1.00
C576   C     0.13881   0.19580   0.58858   0.00000  Uiso   1.00
C577   C     0.09378   0.17120   0.59938   0.00000  Uiso   1.00
C578   C     0.06014   0.19960   0.62309   0.00000  Uiso   1.00
C579   C     0.17338   0.22933   0.99463   0.00000  Uiso   1.00
C580   C     0.16592   0.18566   0.98612   0.00000  Uiso   1.00
C581   C     0.15524   0.16950   0.94565   0.00000  Uiso   1.00
C582   C     0.17356   0.15777   0.51421   0.00000  Uiso   1.00
C583   C     0.18144   0.11680   0.99597   0.00000  Uiso   1.00
C584   C     0.17068   0.10113   0.95632   0.00000  Uiso   1.00
C585   C     0.15455   0.12634   0.93332   0.00000  Uiso   1.00
H586   H     0.21591   0.08408   0.57814   0.00000  Uiso   1.00
H587   H     0.14332   0.11183   0.90481   0.00000  Uiso   1.00
H588   H     0.01475   0.20020   0.71641   0.00000  Uiso   1.00
H589   H     0.06889   0.21636   0.65315   0.00000  Uiso   1.00
H590   H     0.05786   0.22283   0.60061   0.00000  Uiso   1.00
H591   H     0.02835   0.18064   0.63305   0.00000  Uiso   1.00
H592   H     0.08548   0.15659   0.56821   0.00000  Uiso   1.00
H593   H     0.09287   0.14601   0.62093   0.00000  Uiso   1.00
H594   H     0.14769   0.20847   0.61997   0.00000  Uiso   1.00
H595   H     0.13670   0.22377   0.57302   0.00000  Uiso   1.00
H596   H     0.31968   0.13396   0.78482   0.00000  Uiso   1.00
H597   H     0.20656   0.00365   0.71154   0.00000  Uiso   1.00
H598   H     0.12522   0.33126   0.78878   0.00000  Uiso   1.00
H599   H     0.17331   0.06886   0.94387   0.00000  Uiso   1.00
H600   H     0.20558   0.06047   0.50421   0.00000  Uiso   1.00
H601   H     0.14339   0.26175   0.90964   0.00000  Uiso   1.00
H602   H     0.18903   0.24319   0.52044   0.00000  Uiso   1.00
H603   H     0.16723   0.28945   0.97654   0.00000  Uiso   1.00
O604   O     0.16667   0.16667   0.75000   0.00000  Uiso   1.00
O605   O     0.15451   0.12637   0.65458   0.00000  Uiso   1.00
O606   O     0.12940   0.20391   0.84968   0.00000  Uiso   1.00
O607   O     0.20824   0.17759   0.64606   0.00000  Uiso   1.00
O608   O     0.17451   0.15880   0.84968   0.00000  Uiso   1.00
O609   O     0.17930   0.08019   0.78213   0.00000  Uiso   1.00
O610   O     0.14632   0.26085   0.77013   0.00000  Uiso   1.00
O611   O     0.07412   0.13291   0.73413   0.00000  Uiso   1.00
O612   O     0.26693   0.19272   0.71360   0.00000  Uiso   1.00
O613   O     0.07071   0.18878   0.78213   0.00000  Uiso   1.00
O614   O     0.25491   0.15226   0.77013   0.00000  Uiso   1.00
O615   O     0.13760   0.06944   0.73413   0.00000  Uiso   1.00
O616   O     0.20345   0.25620   0.71360   0.00000  Uiso   1.00
Zn617  Zn    0.19338   0.13994   0.78734   0.00000  Uiso   1.00
Zn618  Zn    0.13379   0.12458   0.71875   0.00000  Uiso   1.00
Zn619  Zn    0.21056   0.19775   0.70657   0.00000  Uiso   1.00
Zn620  Zn    0.12893   0.20439   0.78733   0.00000  Uiso   1.00
C621   C     0.38608   0.15950   0.75990   0.00000  Uiso   1.00
C622   C     0.50473   0.16784   0.56022   0.00000  Uiso   1.00
C623   C     0.53706   0.10459   0.56063   0.00000  Uiso   1.00
C624   C     0.61398   0.17413   0.74042   0.00000  Uiso   1.00
C625   C     0.48099   0.19725   0.91751   0.00000  Uiso   1.00
C626   C     0.65960   0.17859   0.73827   0.00000  Uiso   1.00
C627   C     0.34080   0.15642   0.76336   0.00000  Uiso   1.00
C628   C     0.51364   0.32242   0.73652   0.00000  Uiso   1.00
C629   C     0.48516   0.01169   0.76366   0.00000  Uiso   1.00
C630   C     0.48947   0.05584   0.76011   0.00000  Uiso   1.00
C631   C     0.50985   0.27784   0.74018   0.00000  Uiso   1.00
C632   C     0.49598   0.25603   0.96866   0.00000  Uiso   1.00
C633   C     0.51827   0.14813   0.62961   0.00000  Uiso   1.00
C634   C     0.48186   0.18445   0.87072   0.00000  Uiso   1.00
C635   C     0.53127   0.09119   0.51863   0.00000  Uiso   1.00
C636   C     0.52258   0.14178   0.58204   0.00000  Uiso   1.00
C637   C     0.48214   0.24004   0.93087   0.00000  Uiso   1.00
C638   C     0.47214   0.19580   0.58858   0.00000  Uiso   1.00
C639   C     0.42711   0.17120   0.59938   0.00000  Uiso   1.00
C640   C     0.39347   0.19960   0.62309   0.00000  Uiso   1.00
C641   C     0.50671   0.22933   0.99463   0.00000  Uiso   1.00
C642   C     0.49925   0.18566   0.98612   0.00000  Uiso   1.00
C643   C     0.48857   0.16950   0.94565   0.00000  Uiso   1.00
C644   C     0.50689   0.15777   0.51421   0.00000  Uiso   1.00
C645   C     0.51477   0.11680   0.99597   0.00000  Uiso   1.00
C646   C     0.50401   0.10113   0.95632   0.00000  Uiso   1.00
C647   C     0.48788   0.12634   0.93332   0.00000  Uiso   1.00
H648   H     0.54924   0.08408   0.57814   0.00000  Uiso   1.00
H649   H     0.47665   0.11183   0.90481   0.00000  Uiso   1.00
H650   H     0.34808   0.20020   0.71641   0.00000  Uiso   1.00
H651   H     0.40222   0.21636   0.65315   0.00000  Uiso   1.00
H652   H     0.39119   0.22283   0.60061   0.00000  Uiso   1.00
H653   H     0.36168   0.18064   0.63305   0.00000  Uiso   1.00
H654   H     0.41881   0.15659   0.56821   0.00000  Uiso   1.00
H655   H     0.42620   0.14601   0.62093   0.00000  Uiso   1.00
H656   H     0.48103   0.20847   0.61997   0.00000  Uiso   1.00
H657   H     0.47003   0.22377   0.57302   0.00000  Uiso   1.00
H658   H     0.65301   0.13396   0.78482   0.00000  Uiso   1.00
H659   H     0.53990   0.00365   0.71154   0.00000  Uiso   1.00
H660   H     0.45856   0.33126   0.78878   0.00000  Uiso   1.00
H661   H     0.50664   0.06886   0.94387   0.00000  Uiso   1.00
H662   H     0.53892   0.06047   0.50421   0.00000  Uiso   1.00
H663   H     0.47672   0.26175   0.90964   0.00000  Uiso   1.00
H664   H     0.52236   0.24319   0.52044   0.00000  Uiso   1.00
H665   H     0.50057   0.28945   0.97654   0.00000  Uiso   1.00
O666   O     0.50000   0.16667   0.75000   0.00000  Uiso   1.00
O667   O     0.48784   0.12637   0.65458   0.00000  Uiso   1.00
O668   O     0.46274   0.20391   0.84968   0.00000  Uiso   1.00
O669   O     0.54157   0.17759   0.64606   0.00000  Uiso   1.00
O670   O     0.50785   0.15880   0.84968   0.00000  Uiso   1.00
O671   O     0.51264   0.08019   0.78213   0.00000  Uiso   1.00
O672   O     0.47965   0.26085   0.77013   0.00000  Uiso   1.00
O673   O     0.40745   0.13291   0.73413   0.00000  Uiso   1.00
O674   O     0.60026   0.19272   0.71360   0.00000  Uiso   1.00
O675   O     0.40405   0.18878   0.78213   0.00000  Uiso   1.00
O676   O     0.58824   0.15226   0.77013   0.00000  Uiso   1.00
O677   O     0.47093   0.06944   0.73413   0.00000  Uiso   1.00
O678   O     0.53678   0.25620   0.71360   0.00000  Uiso   1.00
Zn679  Zn    0.52672   0.13994   0.78734   0.00000  Uiso   1.00
Zn680  Zn    0.46713   0.12458   0.71875   0.00000  Uiso   1.00
Zn681  Zn    0.54389   0.19775   0.70657   0.00000  Uiso   1.00
Zn682  Zn    0.46226   0.20439   0.78733   0.00000  Uiso   1.00
C683   C     0.71941   0.15950   0.75990   0.00000  Uiso   1.00
C684   C     0.83806   0.16784   0.56022   0.00000  Uiso   1.00
C685   C     0.87039   0.10459   0.56063   0.00000  Uiso   1.00
C686   C     0.94732   0.17413   0.74042   0.00000  Uiso   1.00
C687   C     0.81433   0.19725   0.91751   0.00000  Uiso   1.00
C688   C     0.99293   0.17859   0.73827   0.00000  Uiso   1.00
C689   C     0.67413   0.15642   0.76336   0.00000  Uiso   1.00
C690   C     0.84697   0.32242   0.73652   0.00000  Uiso   1.00
C691   C     0.81849   0.01169   0.76366   0.00000  Uiso   1.00
C692   C     0.82280   0.05584   0.76011   0.00000  Uiso   1.00
C693   C     0.84319   0.27784   0.74018   0.00000  Uiso   1.00
C694   C     0.82931   0.25603   0.96866   0.00000  Uiso   1.00
C695   C     0.85161   0.14813   0.62961   0.00000  Uiso   1.00
C696   C     0.81519   0.18445   0.87072   0.00000  Uiso   1.00
C697   C     0.86460   0.09119   0.51863   0.00000  Uiso   1.00
C698   C     0.85592   0.14178   0.58204   0.00000  Uiso   1.00
C699   C     0.81547   0.24004   0.93087   0.00000  Uiso   1.00
C700   C     0.80548   0.19580   0.58858   0.00000  Uiso   1.00
C701   C     0.76044   0.17120   0.59938   0.00000  Uiso   1.00
C702   C     0.72681   0.19960   0.62309   0.00000  Uiso   1.00
C703   C     0.84005   0.22933   0.99463   0.00000  Uiso   1.00
C704   C     0.83258   0.18566   0.98612   0.00000  Uiso   1.00
C705   C     0.82190   0.16950   0.94565   0.00000  Uiso   1.00
C706   C     0.84022   0.15777   0.51421   0.00000  Uiso   1.00
C707   C     0.84810   0.11680   0.99597   0.00000  Uiso   1.00
C708   C     0.83734   0.10113   0.95632   0.00000  Uiso   1.00
C709   C     0.82121   0.12634   0.93332   0.00000  Uiso   1.00
H710   H     0.88257   0.08408   0.57814   0.00000  Uiso   1.00
H711   H     0.80998   0.11183   0.90481   0.00000  Uiso   1.00
H712   H     0.68141   0.20020   0.71641   0.00000  Uiso   1.00
H713   H     0.73556   0.21636   0.65315   0.00000  Uiso   1.00
H714   H     0.72452   0.22283   0.60061   0.00000  Uiso   1.00
H715   H     0.69501   0.18064   0.63305   0.00000  Uiso   1.00
H716   H     0.75214   0.15659   0.56821   0.00000  Uiso   1.00
H717   H     0.75953   0.14601   0.62093   0.00000  Uiso   1.00
H718   H     0.81436   0.20847   0.61997   0.00000  Uiso   1.00
H719   H     0.80337   0.22377   0.57302   0.00000  Uiso   1.00
H720   H     0.98635   0.13396   0.78482   0.00000  Uiso   1.00
H721   H     0.87323   0.00365   0.71154   0.00000  Uiso   1.00
H722   H     0.79189   0.33126   0.78878   0.00000  Uiso   1.00
H723   H     0.83998   0.06886   0.94387   0.00000  Uiso   1.00
H724   H     0.87225   0.06047   0.50421   0.00000  Uiso   1.00
H725   H     0.81005   0.26175   0.90964   0.00000  Uiso   1.00
H726   H     0.85570   0.24319   0.52044   0.00000  Uiso   1.00
H727   H     0.83390   0.28945   0.97654   0.00000  Uiso   1.00
O728   O     0.83333   0.16667   0.75000   0.00000  Uiso   1.00
O729   O     0.82118   0.12637   0.65458   0.00000  Uiso   1.00
O730   O     0.79607   0.20391   0.84968   0.00000  Uiso   1.00
O731   O     0.87491   0.17759   0.64606   0.00000  Uiso   1.00
O732   O     0.84118   0.15880   0.84968   0.00000  Uiso   1.00
O733   O     0.84597   0.08019   0.78213   0.00000  Uiso   1.00
O734   O     0.81298   0.26085   0.77013   0.00000  Uiso   1.00
O735   O     0.74078   0.13291   0.73413   0.00000  Uiso   1.00
O736   O     0.93360   0.19272   0.71360   0.00000  Uiso   1.00
O737   O     0.73738   0.18878   0.78213   0.00000  Uiso   1.00
O738   O     0.92158   0.15226   0.77013   0.00000  Uiso   1.00
O739   O     0.80426   0.06944   0.73413   0.00000  Uiso   1.00
O740   O     0.87012   0.25620   0.71360   0.00000  Uiso   1.00
Zn741  Zn    0.86005   0.13994   0.78734   0.00000  Uiso   1.00
Zn742  Zn    0.80046   0.12458   0.71875   0.00000  Uiso   1.00
Zn743  Zn    0.87723   0.19775   0.70657   0.00000  Uiso   1.00
Zn744  Zn    0.79560   0.20439   0.78733   0.00000  Uiso   1.00
C745   C     0.05275   0.49284   0.75990   0.00000  Uiso   1.00
C746   C     0.17140   0.50118   0.56022   0.00000  Uiso   1.00
C747   C     0.20372   0.43792   0.56063   0.00000  Uiso   1.00
C748   C     0.28065   0.50746   0.74042   0.00000  Uiso   1.00
C749   C     0.14766   0.53058   0.91751   0.00000  Uiso   1.00
C750   C     0.32626   0.51193   0.73827   0.00000  Uiso   1.00
C751   C     0.00746   0.48975   0.76336   0.00000  Uiso   1.00
C752   C     0.18030   0.65575   0.73652   0.00000  Uiso   1.00
C753   C     0.15182   0.34502   0.76366   0.00000  Uiso   1.00
C754   C     0.15613   0.38918   0.76011   0.00000  Uiso   1.00
C755   C     0.17652   0.61117   0.74018   0.00000  Uiso   1.00
C756   C     0.16264   0.58936   0.96866   0.00000  Uiso   1.00
C757   C     0.18494   0.48146   0.62961   0.00000  Uiso   1.00
C758   C     0.14853   0.51778   0.87072   0.00000  Uiso   1.00
C759   C     0.19793   0.42452   0.51863   0.00000  Uiso   1.00
C760   C     0.18925   0.47511   0.58204   0.00000  Uiso   1.00
C761   C     0.14881   0.57337   0.93087   0.00000  Uiso   1.00
C762   C     0.13881   0.52914   0.58858   0.00000  Uiso   1.00
C763   C     0.09378   0.50453   0.59938   0.00000  Uiso   1.00
C764   C     0.06014   0.53293   0.62309   0.00000  Uiso   1.00
C765   C     0.17338   0.56266   0.99463   0.00000  Uiso   1.00
C766   C     0.16592   0.51899   0.98612   0.00000  Uiso   1.00
C767   C     0.15524   0.50284   0.94565   0.00000  Uiso   1.00
C768   C     0.17356   0.49111   0.51421   0.00000  Uiso   1.00
C769   C     0.18144   0.45013   0.99597   0.00000  Uiso   1.00
C770   C     0.17068   0.43447   0.95632   0.00000  Uiso   1.00
C771   C     0.15455   0.45967   0.93332   0.00000  Uiso   1.00
H772   H     0.21591   0.41741   0.57814   0.00000  Uiso   1.00
H773   H     0.14332   0.44516   0.90481   0.00000  Uiso   1.00
H774   H     0.01475   0.53354   0.71641   0.00000  Uiso   1.00
H775   H     0.06889   0.54969   0.65315   0.00000  Uiso   1.00
H776   H     0.05786   0.55616   0.60061   0.00000  Uiso   1.00
H777   H     0.02835   0.51397   0.63305   0.00000  Uiso   1.00
H778   H     0.08548   0.48992   0.56821   0.00000  Uiso   1.00
H779   H     0.09287   0.47934   0.62093   0.00000  Uiso   1.00
H780   H     0.14769   0.54181   0.61997   0.00000  Uiso   1.00
H781   H     0.13670   0.55710   0.57302   0.00000  Uiso   1.00
H782   H     0.31968   0.46729   0.78482   0.00000  Uiso   1.00
H783   H     0.20656   0.33699   0.71154   0.00000  Uiso   1.00
H784   H     0.12522   0.66459   0.78878   0.00000  Uiso   1.00
H785   H     0.17331   0.40219   0.94387   0.00000  Uiso   1.00
H786   H     0.20558   0.39381   0.50421   0.00000  Uiso   1.00
H787   H     0.14339   0.59508   0.90964   0.00000  Uiso   1.00
H788   H     0.18903   0.57653   0.52044   0.00000  Uiso   1.00
H789   H     0.16723   0.62278   0.97654   0.00000  Uiso   1.00
O790   O     0.16667   0.50000   0.75000   0.00000  Uiso   1.00
O791   O     0.15451   0.45970   0.65458   0.00000  Uiso   1.00
O792   O     0.12940   0.53724   0.84968   0.00000  Uiso   1.00
O793   O     0.20824   0.51092   0.64606   0.00000  Uiso   1.00
O794   O     0.17451   0.49213   0.84968   0.00000  Uiso   1.00
O795   O     0.17930   0.41352   0.78213   0.00000  Uiso   1.00
O796   O     0.14632   0.59418   0.77013   0.00000  Uiso   1.00
O797   O     0.07412   0.46625   0.73413   0.00000  Uiso   1.00
O798   O     0.26693   0.52605   0.71360   0.00000  Uiso   1.00
O799   O     0.07071   0.52211   0.78213   0.00000  Uiso   1.00
O800   O     0.25491   0.48559   0.77013   0.00000  Uiso   1.00
O801   O     0.13760   0.40277   0.73413   0.00000  Uiso   1.00
O802   O     0.20345   0.58953   0.71360   0.00000  Uiso   1.00
Zn803  Zn    0.19338   0.47327   0.78734   0.00000  Uiso   1.00
Zn804  Zn    0.13379   0.45791   0.71875   0.00000  Uiso   1.00
Zn805  Zn    0.21056   0.53109   0.70657   0.00000  Uiso   1.00
Zn806  Zn    0.12893   0.53773   0.78733   0.00000  Uiso   1.00
C807   C     0.38608   0.49284   0.75990   0.00000  Uiso   1.00
C808   C     0.50473   0.50118   0.56022   0.00000  Uiso   1.00
C809   C     0.53706   0.43792   0.56063   0.00000  Uiso   1.00
C810   C     0.61398   0.50746   0.74042   0.00000  Uiso   1.00
C811   C     0.48099   0.53058   0.91751   0.00000  Uiso   1.00
C812   C     0.65960   0.51193   0.73827   0.00000  Uiso   1.00
C813   C     0.34080   0.48975   0.76336   0.00000  Uiso   1.00
C814   C     0.51364   0.65575   0.73652   0.00000  Uiso   1.00
C815   C     0.48516   0.34502   0.76366   0.00000  Uiso   1.00
C816   C     0.48947   0.38918   0.76011   0.00000  Uiso   1.00
C817   C     0.50985   0.61117   0.74018   0.00000  Uiso   1.00
C818   C     0.49598   0.58936   0.96866   0.00000  Uiso   1.00
C819   C     0.51827   0.48146   0.62961   0.00000  Uiso   1.00
C820   C     0.48186   0.51778   0.87072   0.00000  Uiso   1.00
C821   C     0.53127   0.42452   0.51863   0.00000  Uiso   1.00
C822   C     0.52258   0.47511   0.58204   0.00000  Uiso   1.00
C823   C     0.48214   0.57337   0.93087   0.00000  Uiso   1.00
C824   C     0.47214   0.52914   0.58858   0.00000  Uiso   1.00
C825   C     0.42711   0.50453   0.59938   0.00000  Uiso   1.00
C826   C     0.39347   0.53293   0.62309   0.00000  Uiso   1.00
C827   C     0.50671   0.56266   0.99463   0.00000  Uiso   1.00
C828   C     0.49925   0.51899   0.98612   0.00000  Uiso   1.00
C829   C     0.48857   0.50284   0.94565   0.00000  Uiso   1.00
C830   C     0.50689   0.49111   0.51421   0.00000  Uiso   1.00
C831   C     0.51477   0.45013   0.99597   0.00000  Uiso   1.00
C832   C     0.50401   0.43447   0.95632   0.00000  Uiso   1.00
C833   C     0.48788   0.45967   0.93332   0.00000  Uiso   1.00
H834   H     0.54924   0.41741   0.57814   0.00000  Uiso   1.00
H835   H     0.47665   0.44516   0.90481   0.00000  Uiso   1.00
H836   H     0.34808   0.53354   0.71641   0.00000  Uiso   1.00
H837   H     0.40222   0.54969   0.65315   0.00000  Uiso   1.00
H838   H     0.39119   0.55616   0.60061   0.00000  Uiso   1.00
H839   H     0.36168   0.51397   0.63305   0.00000  Uiso   1.00
H840   H     0.41881   0.48992   0.56821   0.00000  Uiso   1.00
H841   H     0.42620   0.47934   0.62093   0.00000  Uiso   1.00
H842   H     0.48103   0.54181   0.61997   0.00000  Uiso   1.00
H843   H     0.47003   0.55710   0.57302   0.00000  Uiso   1.00
H844   H     0.65301   0.46729   0.78482   0.00000  Uiso   1.00
H845   H     0.53990   0.33699   0.71154   0.00000  Uiso   1.00
H846   H     0.45856   0.66459   0.78878   0.00000  Uiso   1.00
H847   H     0.50664   0.40219   0.94387   0.00000  Uiso   1.00
H848   H     0.53892   0.39381   0.50421   0.00000  Uiso   1.00
H849   H     0.47672   0.59508   0.90964   0.00000  Uiso   1.00
H850   H     0.52236   0.57653   0.52044   0.00000  Uiso   1.00
H851   H     0.50057   0.62278   0.97654   0.00000  Uiso   1.00
O852   O     0.50000   0.50000   0.75000   0.00000  Uiso   1.00
O853   O     0.48784   0.45970   0.65458   0.00000  Uiso   1.00
O854   O     0.46274   0.53724   0.84968   0.00000  Uiso   1.00
O855   O     0.54157   0.51092   0.64606   0.00000  Uiso   1.00
O856   O     0.50785   0.49213   0.84968   0.00000  Uiso   1.00
O857   O     0.51264   0.41352   0.78213   0.00000  Uiso   1.00
O858   O     0.47965   0.59418   0.77013   0.00000  Uiso   1.00
O859   O     0.40745   0.46625   0.73413   0.00000  Uiso   1.00
O860   O     0.60026   0.52605   0.71360   0.00000  Uiso   1.00
O861   O     0.40405   0.52211   0.78213   0.00000  Uiso   1.00
O862   O     0.58824   0.48559   0.77013   0.00000  Uiso   1.00
O863   O     0.47093   0.40277   0.73413   0.00000  Uiso   1.00
O864   O     0.53678   0.58953   0.71360   0.00000  Uiso   1.00
Zn865  Zn    0.52672   0.47327   0.78734   0.00000  Uiso   1.00
Zn866  Zn    0.46713   0.45791   0.71875   0.00000  Uiso   1.00
Zn867  Zn    0.54389   0.53109   0.70657   0.00000  Uiso   1.00
Zn868  Zn    0.46226   0.53773   0.78733   0.00000  Uiso   1.00
C869   C     0.71941   0.49284   0.75990   0.00000  Uiso   1.00
C870   C     0.83806   0.50118   0.56022   0.00000  Uiso   1.00
C871   C     0.87039   0.43792   0.56063   0.00000  Uiso   1.00
C872   C     0.94732   0.50746   0.74042   0.00000  Uiso   1.00
C873   C     0.81433   0.53058   0.91751   0.00000  Uiso   1.00
C874   C     0.99293   0.51193   0.73827   0.00000  Uiso   1.00
C875   C     0.67413   0.48975   0.76336   0.00000  Uiso   1.00
C876   C     0.84697   0.65575   0.73652   0.00000  Uiso   1.00
C877   C     0.81849   0.34502   0.76366   0.00000  Uiso   1.00
C878   C     0.82280   0.38918   0.76011   0.00000  Uiso   1.00
C879   C     0.84319   0.61117   0.74018   0.00000  Uiso   1.00
C880   C     0.82931   0.58936   0.96866   0.00000  Uiso   1.00
C881   C     0.85161   0.48146   0.62961   0.00000  Uiso   1.00
C882   C     0.81519   0.51778   0.87072   0.00000  Uiso   1.00
C883   C     0.86460   0.42452   0.51863   0.00000  Uiso   1.00
C884   C     0.85592   0.47511   0.58204   0.00000  Uiso   1.00
C885   C     0.81547   0.57337   0.93087   0.00000  Uiso   1.00
C886   C     0.80548   0.52914   0.58858   0.00000  Uiso   1.00
C887   C     0.76044   0.50453   0.59938   0.00000  Uiso   1.00
C888   C     0.72681   0.53293   0.62309   0.00000  Uiso   1.00
C889   C     0.84005   0.56266   0.99463   0.00000  Uiso   1.00
C890   C     0.83258   0.51899   0.98612   0.00000  Uiso   1.00
C891   C     0.82190   0.50284   0.94565   0.00000  Uiso   1.00
C892   C     0.84022   0.49111   0.51421   0.00000  Uiso   1.00
C893   C     0.84810   0.45013   0.99597   0.00000  Uiso   1.00
C894   C     0.83734   0.43447   0.95632   0.00000  Uiso   1.00
C895   C     0.82121   0.45967   0.93332   0.00000  Uiso   1.00
H896   H     0.88257   0.41741   0.57814   0.00000  Uiso   1.00
H897   H     0.80998   0.44516   0.90481   0.00000  Uiso   1.00
H898   H     0.68141   0.53354   0.71641   0.00000  Uiso   1.00
H899   H     0.73556   0.54969   0.65315   0.00000  Uiso   1.00
H900   H     0.72452   0.55616   0.60061   0.00000  Uiso   1.00
H901   H     0.69501   0.51397   0.63305   0.00000  Uiso   1.00
H902   H     0.75214   0.48992   0.56821   0.00000  Uiso   1.00
H903   H     0.75953   0.47934   0.62093   0.00000  Uiso   1.00
H904   H     0.81436   0.54181   0.61997   0.00000  Uiso   1.00
H905   H     0.80337   0.55710   0.57302   0.00000  Uiso   1.00
H906   H     0.98635   0.46729   0.78482   0.00000  Uiso   1.00
H907   H     0.87323   0.33699   0.71154   0.00000  Uiso   1.00
H908   H     0.79189   0.66459   0.78878   0.00000  Uiso   1.00
H909   H     0.83998   0.40219   0.94387   0.00000  Uiso   1.00
H910   H     0.87225   0.39381   0.50421   0.00000  Uiso   1.00
H911   H     0.81005   0.59508   0.90964   0.00000  Uiso   1.00
H912   H     0.85570   0.57653   0.52044   0.00000  Uiso   1.00
H913   H     0.83390   0.62278   0.97654   0.00000  Uiso   1.00
O914   O     0.83333   0.50000   0.75000   0.00000  Uiso   1.00
O915   O     0.82118   0.45970   0.65458   0.00000  Uiso   1.00
O916   O     0.79607   0.53724   0.84968   0.00000  Uiso   1.00
O917   O     0.87491   0.51092   0.64606   0.00000  Uiso   1.00
O918   O     0.84118   0.49213   0.84968   0.00000  Uiso   1.00
O919   O     0.84597   0.41352   0.78213   0.00000  Uiso   1.00
O920   O     0.81298   0.59418   0.77013   0.00000  Uiso   1.00
O921   O     0.74078   0.46625   0.73413   0.00000  Uiso   1.00
O922   O     0.93360   0.52605   0.71360   0.00000  Uiso   1.00
O923   O     0.73738   0.52211   0.78213   0.00000  Uiso   1.00
O924   O     0.92158   0.48559   0.77013   0.00000  Uiso   1.00
O925   O     0.80426   0.40277   0.73413   0.00000  Uiso   1.00
O926   O     0.87012   0.58953   0.71360   0.00000  Uiso   1.00
Zn927  Zn    0.86005   0.47327   0.78734   0.00000  Uiso   1.00
Zn928  Zn    0.80046   0.45791   0.71875   0.00000  Uiso   1.00
Zn929  Zn    0.87723   0.53109   0.70657   0.00000  Uiso   1.00
Zn930  Zn    0.79560   0.53773   0.78733   0.00000  Uiso   1.00
C931   C     0.05275   0.82617   0.75990   0.00000  Uiso   1.00
C932   C     0.17140   0.83451   0.56022   0.00000  Uiso   1.00
C933   C     0.20372   0.77126   0.56063   0.00000  Uiso   1.00
C934   C     0.28065   0.84079   0.74042   0.00000  Uiso   1.00
C935   C     0.14766   0.86391   0.91751   0.00000  Uiso   1.00
C936   C     0.32626   0.84526   0.73827   0.00000  Uiso   1.00
C937   C     0.00746   0.82309   0.76336   0.00000  Uiso   1.00
C938   C     0.18030   0.98909   0.73652   0.00000  Uiso   1.00
C939   C     0.15182   0.67836   0.76366   0.00000  Uiso   1.00
C940   C     0.15613   0.72251   0.76011   0.00000  Uiso   1.00
C941   C     0.17652   0.94450   0.74018   0.00000  Uiso   1.00
C942   C     0.16264   0.92269   0.96866   0.00000  Uiso   1.00
C943   C     0.18494   0.81479   0.62961   0.00000  Uiso   1.00
C944   C     0.14853   0.85111   0.87072   0.00000  Uiso   1.00
C945   C     0.19793   0.75785   0.51863   0.00000  Uiso   1.00
C946   C     0.18925   0.80845   0.58204   0.00000  Uiso   1.00
C947   C     0.14881   0.90670   0.93087   0.00000  Uiso   1.00
C948   C     0.13881   0.86247   0.58858   0.00000  Uiso   1.00
C949   C     0.09378   0.83786   0.59938   0.00000  Uiso   1.00
C950   C     0.06014   0.86626   0.62309   0.00000  Uiso   1.00
C951   C     0.17338   0.89599   0.99463   0.00000  Uiso   1.00
C952   C     0.16592   0.85232   0.98612   0.00000  Uiso   1.00
C953   C     0.15524   0.83617   0.94565   0.00000  Uiso   1.00
C954   C     0.17356   0.82444   0.51421   0.00000  Uiso   1.00
C955   C     0.18144   0.78347   0.99597   0.00000  Uiso   1.00
C956   C     0.17068   0.76780   0.95632   0.00000  Uiso   1.00
C957   C     0.15455   0.79300   0.93332   0.00000  Uiso   1.00
H958   H     0.21591   0.75075   0.57814   0.00000  Uiso   1.00
H959   H     0.14332   0.77849   0.90481   0.00000  Uiso   1.00
H960   H     0.01475   0.86687   0.71641   0.00000  Uiso   1.00
H961   H     0.06889   0.88303   0.65315   0.00000  Uiso   1.00
H962   H     0.05786   0.88950   0.60061   0.00000  Uiso   1.00
H963   H     0.02835   0.84731   0.63305   0.00000  Uiso   1.00
H964   H     0.08548   0.82325   0.56821   0.00000  Uiso   1.00
H965   H     0.09287   0.81267   0.62093   0.00000  Uiso   1.00
H966   H     0.14769   0.87514   0.61997   0.00000  Uiso   1.00
H967   H     0.13670   0.89044   0.57302   0.00000  Uiso   1.00
H968   H     0.31968   0.80062   0.78482   0.00000  Uiso   1.00
H969   H     0.20656   0.67032   0.71154   0.00000  Uiso   1.00
H970   H     0.12522   0.99792   0.78878   0.00000  Uiso   1.00
H971   H     0.17331   0.73553   0.94387   0.00000  Uiso   1.00
H972   H     0.20558   0.72714   0.50421   0.00000  Uiso   1.00
H973   H     0.14339   0.92842   0.90964   0.00000  Uiso   1.00
H974   H     0.18903   0.90986   0.52044   0.00000  Uiso   1.00
H975   H     0.16723   0.95611   0.97654   0.00000  Uiso   1.00
O976   O     0.16667   0.83333   0.75000   0.00000  Uiso   1.00
O977   O     0.15451   0.79304   0.65458   0.00000  Uiso   1.00
O978   O     0.12940   0.87058   0.84968   0.00000  Uiso   1.00
O979   O     0.20824   0.84425   0.64606   0.00000  Uiso   1.00
O980   O     0.17451   0.82546   0.84968   0.00000  Uiso   1.00
O981   O     0.17930   0.74686   0.78213   0.00000  Uiso   1.00
O982   O     0.14632   0.92751   0.77013   0.00000  Uiso   1.00
O983   O     0.07412   0.79958   0.73413   0.00000  Uiso   1.00
O984   O     0.26693   0.85939   0.71360   0.00000  Uiso   1.00
O985   O     0.07071   0.85544   0.78213   0.00000  Uiso   1.00
O986   O     0.25491   0.81892   0.77013   0.00000  Uiso   1.00
O987   O     0.13760   0.73610   0.73413   0.00000  Uiso   1.00
O988   O     0.20345   0.92286   0.71360   0.00000  Uiso   1.00
Zn989  Zn    0.19338   0.80661   0.78734   0.00000  Uiso   1.00
Zn990  Zn    0.13379   0.79124   0.71875   0.00000  Uiso   1.00
Zn991  Zn    0.21056   0.86442   0.70657   0.00000  Uiso   1.00
Zn992  Zn    0.12893   0.87106   0.78733   0.00000  Uiso   1.00
C993   C     0.38608   0.82617   0.75990   0.00000  Uiso   1.00
C994   C     0.50473   0.83451   0.56022   0.00000  Uiso   1.00
C995   C     0.53706   0.77126   0.56063   0.00000  Uiso   1.00
C996   C     0.61398   0.84079   0.74042   0.00000  Uiso   1.00
C997   C     0.48099   0.86391   0.91751   0.00000  Uiso   1.00
C998   C     0.65960   0.84526   0.73827   0.00000  Uiso   1.00
C999   C     0.34080   0.82309   0.76336   0.00000  Uiso   1.00
C1000  C     0.51364   0.98909   0.73652   0.00000  Uiso   1.00
C1001  C     0.48516   0.67836   0.76366   0.00000  Uiso   1.00
C1002  C     0.48947   0.72251   0.76011   0.00000  Uiso   1.00
C1003  C     0.50985   0.94450   0.74018   0.00000  Uiso   1.00
C1004  C     0.49598   0.92269   0.96866   0.00000  Uiso   1.00
C1005  C     0.51827   0.81479   0.62961   0.00000  Uiso   1.00
C1006  C     0.48186   0.85111   0.87072   0.00000  Uiso   1.00
C1007  C     0.53127   0.75785   0.51863   0.00000  Uiso   1.00
C1008  C     0.52258   0.80845   0.58204   0.00000  Uiso   1.00
C1009  C     0.48214   0.90670   0.93087   0.00000  Uiso   1.00
C1010  C     0.47214   0.86247   0.58858   0.00000  Uiso   1.00
C1011  C     0.42711   0.83786   0.59938   0.00000  Uiso   1.00
C1012  C     0.39347   0.86626   0.62309   0.00000  Uiso   1.00
C1013  C     0.50671   0.89599   0.99463   0.00000  Uiso   1.00
C1014  C     0.49925   0.85232   0.98612   0.00000  Uiso   1.00
C1015  C     0.48857   0.83617   0.94565   0.00000  Uiso   1.00
C1016  C     0.50689   0.82444   0.51421   0.00000  Uiso   1.00
C1017  C     0.51477   0.78347   0.99597   0.00000  Uiso   1.00
C1018  C     0.50401   0.76780   0.95632   0.00000  Uiso   1.00
C1019  C     0.48788   0.79300   0.93332   0.00000  Uiso   1.00
H1020  H     0.54924   0.75075   0.57814   0.00000  Uiso   1.00
H1021  H     0.47665   0.77849   0.90481   0.00000  Uiso   1.00
H1022  H     0.34808   0.86687   0.71641   0.00000  Uiso   1.00
H1023  H     0.40222   0.88303   0.65315   0.00000  Uiso   1.00
H1024  H     0.39119   0.88950   0.60061   0.00000  Uiso   1.00
H1025  H     0.36168   0.84731   0.63305   0.00000  Uiso   1.00
H1026  H     0.41881   0.82325   0.56821   0.00000  Uiso   1.00
H1027  H     0.42620   0.81267   0.62093   0.00000  Uiso   1.00
H1028  H     0.48103   0.87514   0.61997   0.00000  Uiso   1.00
H1029  H     0.47003   0.89044   0.57302   0.00000  Uiso   1.00
H1030  H     0.65301   0.80062   0.78482   0.00000  Uiso   1.00
H1031  H     0.53990   0.67032   0.71154   0.00000  Uiso   1.00
H1032  H     0.45856   0.99792   0.78878   0.00000  Uiso   1.00
H1033  H     0.50664   0.73553   0.94387   0.00000  Uiso   1.00
H1034  H     0.53892   0.72714   0.50421   0.00000  Uiso   1.00
H1035  H     0.47672   0.92842   0.90964   0.00000  Uiso   1.00
H1036  H     0.52236   0.90986   0.52044   0.00000  Uiso   1.00
H1037  H     0.50057   0.95611   0.97654   0.00000  Uiso   1.00
O1038  O     0.50000   0.83333   0.75000   0.00000  Uiso   1.00
O1039  O     0.48784   0.79304   0.65458   0.00000  Uiso   1.00
O1040  O     0.46274   0.87058   0.84968   0.00000  Uiso   1.00
O1041  O     0.54157   0.84425   0.64606   0.00000  Uiso   1.00
O1042  O     0.50785   0.82546   0.84968   0.00000  Uiso   1.00
O1043  O     0.51264   0.74686   0.78213   0.00000  Uiso   1.00
O1044  O     0.47965   0.92751   0.77013   0.00000  Uiso   1.00
O1045  O     0.40745   0.79958   0.73413   0.00000  Uiso   1.00
O1046  O     0.60026   0.85939   0.71360   0.00000  Uiso   1.00
O1047  O     0.40405   0.85544   0.78213   0.00000  Uiso   1.00
O1048  O     0.58824   0.81892   0.77013   0.00000  Uiso   1.00
O1049  O     0.47093   0.73610   0.73413   0.00000  Uiso   1.00
O1050  O     0.53678   0.92286   0.71360   0.00000  Uiso   1.00
Zn1051 Zn    0.52672   0.80661   0.78734   0.00000  Uiso   1.00
Zn1052 Zn    0.46713   0.79124   0.71875   0.00000  Uiso   1.00
Zn1053 Zn    0.54389   0.86442   0.70657   0.00000  Uiso   1.00
Zn1054 Zn    0.46226   0.87106   0.78733   0.00000  Uiso   1.00
C1055  C     0.71941   0.82617   0.75990   0.00000  Uiso   1.00
C1056  C     0.83806   0.83451   0.56022   0.00000  Uiso   1.00
C1057  C     0.87039   0.77126   0.56063   0.00000  Uiso   1.00
C1058  C     0.94732   0.84079   0.74042   0.00000  Uiso   1.00
C1059  C     0.81433   0.86391   0.91751   0.00000  Uiso   1.00
C1060  C     0.99293   0.84526   0.73827   0.00000  Uiso   1.00
C1061  C     0.67413   0.82309   0.76336   0.00000  Uiso   1.00
C1062  C     0.84697   0.98909   0.73652   0.00000  Uiso   1.00
C1063  C     0.81849   0.67836   0.76366   0.00000  Uiso   1.00
C1064  C     0.82280   0.72251   0.76011   0.00000  Uiso   1.00
C1065  C     0.84319   0.94450   0.74018   0.00000  Uiso   1.00
C1066  C     0.82931   0.92269   0.96866   0.00000  Uiso   1.00
C1067  C     0.85161   0.81479   0.62961   0.00000  Uiso   1.00
C1068  C     0.81519   0.85111   0.87072   0.00000  Uiso   1.00
C1069  C     0.86460   0.75785   0.51863   0.00000  Uiso   1.00
C1070  C     0.85592   0.80845   0.58204   0.00000  Uiso   1.00
C1071  C     0.81547   0.90670   0.93087   0.00000  Uiso   1.00
C1072  C     0.80548   0.86247   0.58858   0.00000  Uiso   1.00
C1073  C     0.76044   0.83786   0.59938   0.00000  Uiso   1.00
C1074  C     0.72681   0.86626   0.62309   0.00000  Uiso   1.00
C1075  C     0.84005   0.89599   0.99463   0.00000  Uiso   1.00
C1076  C     0.83258   0.85232   0.98612   0.00000  Uiso   1.00
C1077  C     0.82190   0.83617   0.94565   0.00000  Uiso   1.00
C1078  C     0.84022   0.82444   0.51421   0.00000  Uiso   1.00
C1079  C     0.84810   0.78347   0.99597   0.00000  Uiso   1.00
C1080  C     0.83734   0.76780   0.95632   0.00000  Uiso   1.00
C1081  C     0.82121   0.79300   0.93332   0.00000  Uiso   1.00
H1082  H     0.88257   0.75075   0.57814   0.00000  Uiso   1.00
H1083  H     0.80998   0.77849   0.90481   0.00000  Uiso   1.00
H1084  H     0.68141   0.86687   0.71641   0.00000  Uiso   1.00
H1085  H     0.73556   0.88303   0.65315   0.00000  Uiso   1.00
H1086  H     0.72452   0.88950   0.60061   0.00000  Uiso   1.00
H1087  H     0.69501   0.84731   0.63305   0.00000  Uiso   1.00
H1088  H     0.75214   0.82325   0.56821   0.00000  Uiso   1.00
H1089  H     0.75953   0.81267   0.62093   0.00000  Uiso   1.00
H1090  H     0.81436   0.87514   0.61997   0.00000  Uiso   1.00
H1091  H     0.80337   0.89044   0.57302   0.00000  Uiso   1.00
H1092  H     0.98635   0.80062   0.78482   0.00000  Uiso   1.00
H1093  H     0.87323   0.67032   0.71154   0.00000  Uiso   1.00
H1094  H     0.79189   0.99792   0.78878   0.00000  Uiso   1.00
H1095  H     0.83998   0.73553   0.94387   0.00000  Uiso   1.00
H1096  H     0.87225   0.72714   0.50421   0.00000  Uiso   1.00
H1097  H     0.81005   0.92842   0.90964   0.00000  Uiso   1.00
H1098  H     0.85570   0.90986   0.52044   0.00000  Uiso   1.00
H1099  H     0.83390   0.95611   0.97654   0.00000  Uiso   1.00
O1100  O     0.83333   0.83333   0.75000   0.00000  Uiso   1.00
O1101  O     0.82118   0.79304   0.65458   0.00000  Uiso   1.00
O1102  O     0.79607   0.87058   0.84968   0.00000  Uiso   1.00
O1103  O     0.87491   0.84425   0.64606   0.00000  Uiso   1.00
O1104  O     0.84118   0.82546   0.84968   0.00000  Uiso   1.00
O1105  O     0.84597   0.74686   0.78213   0.00000  Uiso   1.00
O1106  O     0.81298   0.92751   0.77013   0.00000  Uiso   1.00
O1107  O     0.74078   0.79958   0.73413   0.00000  Uiso   1.00
O1108  O     0.93360   0.85939   0.71360   0.00000  Uiso   1.00
O1109  O     0.73738   0.85544   0.78213   0.00000  Uiso   1.00
O1110  O     0.92158   0.81892   0.77013   0.00000  Uiso   1.00
O1111  O     0.80426   0.73610   0.73413   0.00000  Uiso   1.00
O1112  O     0.87012   0.92286   0.71360   0.00000  Uiso   1.00
Zn1113 Zn    0.86005   0.80661   0.78734   0.00000  Uiso   1.00
Zn1114 Zn    0.80046   0.79124   0.71875   0.00000  Uiso   1.00
Zn1115 Zn    0.87723   0.86442   0.70657   0.00000  Uiso   1.00
Zn1116 Zn    0.79560   0.87106   0.78733   0.00000  Uiso   1.00
loop_
_geom_bond_atom_site_label_1
_geom_bond_atom_site_label_2
_geom_bond_distance
_geom_bond_site_symmetry_2
_ccdc_geom_bond_type
C1     O55     1.272   .     A
C1     O53     1.269   .     A
C1     C7      1.437   .     S
C2     C18     1.534   .     S
C2     C16     1.415   .     A
C2     C24     1.423   .     A
C3     C15     1.385   .     A
C3     H28     1.084   .     S
C3     C16     1.398   .     A
C4     O54     1.287   .     A
C4     O56     1.281   .     A
C4     C6      1.453   .     S
C5     C23     1.417   .     A
C5     C14     1.467   .     S
C5     C17     1.404   .     A
C6     C69     1.334   .     S
C6     H92     1.084   .     S
C7     C130    1.334   1_455 S
C7     H162    1.086   1_455 S
C8     C11     1.451   .     S
C8     C195    1.332   .     S
C8     H225    1.088   .     S
C9     C10     1.436   .     S
C9     C380    1.332   1_545 S
C9     H412    1.086   1_545 S
C10    O51     1.277   .     A
C10    O57     1.277   .     A
C11    O58     1.276   .     A
C11    O52     1.276   .     A
C12    C17     1.388   .     A
C12    H45     1.083   .     S
C12    C21     1.390   .     A
C13    O49     1.275   .     A
C13    C16     1.450   .     S
C13    O47     1.268   .     A
C14    O48     1.282   .     A
C14    O50     1.281   .     A
C15    H42     1.084   .     S
C15    C583    1.395   1_554 S
C17    H43     1.084   .     S
C18    C19     1.535   .     S
C18    H36     1.110   .     S
C18    H37     1.098   .     S
C19    C20     1.525   .     S
C19    H34     1.112   .     S
C19    H35     1.111   .     S
C20    H33     1.110   .     S
C20    H32     1.111   .     S
C20    H31     1.110   .     S
C21    C22     1.410   .     A
C21    H602    1.082   .     S
C22    C23     1.419   .     A
C22    C582    1.420   .     S
C23    C27     1.410   .     A
C24    C580    1.420   1_554 S
C24    C583    1.420   1_554 S
C25    C26     1.393   .     A
C25    C582    1.420   .     S
C25    C573    1.395   .     S
C26    C27     1.386   .     A
C26    H41     1.084   .     S
C27    H29     1.081   .     S
H30    C130    1.084   1_455 S
H38    C69     1.086   .     S
H39    C380    1.088   1_545 S
H40    C195    1.086   .     S
H44    C579    1.082   1_554 S
O46    Zn59    1.962   .     S
O46    Zn62    1.938   .     S
O46    Zn61    1.946   .     S
O46    Zn60    1.939   .     S
O47    Zn60    1.948   .     S
O48    Zn62    1.953   .     S
O49    Zn61    1.945   .     S
O50    Zn59    1.941   .     S
O51    Zn59    1.926   .     S
O52    Zn62    1.933   .     S
O53    Zn60    1.928   .     S
O54    Zn61    1.934   .     S
O55    Zn62    1.928   .     S
O56    Zn59    1.925   .     S
O57    Zn60    1.938   .     S
O58    Zn61    1.929   .     S
C63    O117    1.272   .     A
C63    O115    1.269   .     A
C63    C69     1.437   .     S
C64    C80     1.534   .     S
C64    C78     1.415   .     A
C64    C86     1.423   .     A
C65    C77     1.385   .     A
C65    H90     1.084   .     S
C65    C78     1.398   .     A
C66    O116    1.287   .     A
C66    O118    1.281   .     A
C66    C68     1.453   .     S
C67    C85     1.417   .     A
C67    C76     1.467   .     S
C67    C79     1.404   .     A
C68    C131    1.334   .     S
C68    H154    1.084   .     S
C70    C73     1.451   .     S
C70    C257    1.332   .     S
C70    H287    1.088   .     S
C71    C72     1.436   .     S
C71    C442    1.332   1_545 S
C71    H474    1.086   1_545 S
C72    O113    1.277   .     A
C72    O119    1.277   .     A
C73    O120    1.276   .     A
C73    O114    1.276   .     A
C74    C79     1.388   .     A
C74    H107    1.083   .     S
C74    C83     1.390   .     A
C75    O111    1.275   .     A
C75    C78     1.450   .     S
C75    O109    1.268   .     A
C76    O110    1.282   .     A
C76    O112    1.281   .     A
C77    H104    1.084   .     S
C77    C645    1.395   1_554 S
C79    H105    1.084   .     S
C80    C81     1.535   .     S
C80    H98     1.110   .     S
C80    H99     1.098   .     S
C81    C82     1.525   .     S
C81    H96     1.112   .     S
C81    H97     1.111   .     S
C82    H95     1.110   .     S
C82    H94     1.111   .     S
C82    H93     1.110   .     S
C83    C84     1.410   .     A
C83    H664    1.082   .     S
C84    C85     1.419   .     A
C84    C644    1.420   .     S
C85    C89     1.410   .     A
C86    C642    1.420   1_554 S
C86    C645    1.420   1_554 S
C87    C88     1.393   .     A
C87    C644    1.420   .     S
C87    C635    1.395   .     S
C88    C89     1.386   .     A
C88    H103    1.084   .     S
C89    H91     1.081   .     S
H100   C131    1.086   .     S
H101   C442    1.088   1_545 S
H102   C257    1.086   .     S
H106   C641    1.082   1_554 S
O108   Zn121   1.962   .     S
O108   Zn124   1.938   .     S
O108   Zn123   1.946   .     S
O108   Zn122   1.939   .     S
O109   Zn122   1.948   .     S
O110   Zn124   1.953   .     S
O111   Zn123   1.945   .     S
O112   Zn121   1.941   .     S
O113   Zn121   1.926   .     S
O114   Zn124   1.933   .     S
O115   Zn122   1.928   .     S
O116   Zn123   1.934   .     S
O117   Zn124   1.928   .     S
O118   Zn121   1.925   .     S
O119   Zn122   1.938   .     S
O120   Zn123   1.929   .     S
C125   O179    1.272   .     A
C125   O177    1.269   .     A
C125   C131    1.437   .     S
C126   C142    1.534   .     S
C126   C140    1.415   .     A
C126   C148    1.423   .     A
C127   C139    1.385   .     A
C127   H152    1.084   .     S
C127   C140    1.398   .     A
C128   O178    1.287   .     A
C128   O180    1.281   .     A
C128   C130    1.453   .     S
C129   C147    1.417   .     A
C129   C138    1.467   .     S
C129   C141    1.404   .     A
C130   C7      1.334   1_655 S
C130   H30     1.084   1_655 S
C132   C135    1.451   .     S
C132   C319    1.332   .     S
C132   H349    1.088   .     S
C133   C134    1.436   .     S
C133   C504    1.332   1_545 S
C133   H536    1.086   1_545 S
C134   O175    1.277   .     A
C134   O181    1.277   .     A
C135   O182    1.276   .     A
C135   O176    1.276   .     A
C136   C141    1.388   .     A
C136   H169    1.083   .     S
C136   C145    1.390   .     A
C137   O173    1.275   .     A
C137   C140    1.450   .     S
C137   O171    1.268   .     A
C138   O172    1.282   .     A
C138   O174    1.281   .     A
C139   H166    1.084   .     S
C139   C707    1.395   1_554 S
C141   H167    1.084   .     S
C142   C143    1.535   .     S
C142   H160    1.110   .     S
C142   H161    1.098   .     S
C143   C144    1.525   .     S
C143   H158    1.112   .     S
C143   H159    1.111   .     S
C144   H157    1.110   .     S
C144   H156    1.111   .     S
C144   H155    1.110   .     S
C145   C146    1.410   .     A
C145   H726    1.082   .     S
C146   C147    1.419   .     A
C146   C706    1.420   .     S
C147   C151    1.410   .     A
C148   C704    1.420   1_554 S
C148   C707    1.420   1_554 S
C149   C150    1.393   .     A
C149   C706    1.420   .     S
C149   C697    1.395   .     S
C150   C151    1.386   .     A
C150   H165    1.084   .     S
C151   H153    1.081   .     S
H162   C7      1.086   1_655 S
H163   C504    1.088   1_545 S
H164   C319    1.086   .     S
H168   C703    1.082   1_554 S
O170   Zn183   1.962   .     S
O170   Zn186   1.938   .     S
O170   Zn185   1.946   .     S
O170   Zn184   1.939   .     S
O171   Zn184   1.948   .     S
O172   Zn186   1.953   .     S
O173   Zn185   1.945   .     S
O174   Zn183   1.941   .     S
O175   Zn183   1.926   .     S
O176   Zn186   1.933   .     S
O177   Zn184   1.928   .     S
O178   Zn185   1.934   .     S
O179   Zn186   1.928   .     S
O180   Zn183   1.925   .     S
O181   Zn184   1.938   .     S
O182   Zn185   1.929   .     S
C187   O241    1.272   .     A
C187   O239    1.269   .     A
C187   C193    1.437   .     S
C188   C204    1.534   .     S
C188   C202    1.415   .     A
C188   C210    1.423   .     A
C189   C201    1.385   .     A
C189   H214    1.084   .     S
C189   C202    1.398   .     A
C190   O240    1.287   .     A
C190   O242    1.281   .     A
C190   C192    1.453   .     S
C191   C209    1.417   .     A
C191   C200    1.467   .     S
C191   C203    1.404   .     A
C192   C255    1.334   .     S
C192   H278    1.084   .     S
C193   C316    1.334   1_455 S
C193   H348    1.086   1_455 S
C194   C197    1.451   .     S
C194   C381    1.332   .     S
C194   H411    1.088   .     S
C195   C196    1.436   .     S
C196   O237    1.277   .     A
C196   O243    1.277   .     A
C197   O244    1.276   .     A
C197   O238    1.276   .     A
C198   C203    1.388   .     A
C198   H231    1.083   .     S
C198   C207    1.390   .     A
C199   O235    1.275   .     A
C199   C202    1.450   .     S
C199   O233    1.268   .     A
C200   O234    1.282   .     A
C200   O236    1.281   .     A
C201   H228    1.084   .     S
C201   C769    1.395   1_554 S
C203   H229    1.084   .     S
C204   C205    1.535   .     S
C204   H222    1.110   .     S
C204   H223    1.098   .     S
C205   C206    1.525   .     S
C205   H220    1.112   .     S
C205   H221    1.111   .     S
C206   H219    1.110   .     S
C206   H218    1.111   .     S
C206   H217    1.110   .     S
C207   C208    1.410   .     A
C207   H788    1.082   .     S
C208   C209    1.419   .     A
C208   C768    1.420   .     S
C209   C213    1.410   .     A
C210   C766    1.420   1_554 S
C210   C769    1.420   1_554 S
C211   C212    1.393   .     A
C211   C768    1.420   .     S
C211   C759    1.395   .     S
C212   C213    1.386   .     A
C212   H227    1.084   .     S
C213   H215    1.081   .     S
H216   C316    1.084   1_455 S
H224   C255    1.086   .     S
H226   C381    1.086   .     S
H230   C765    1.082   1_554 S
O232   Zn245   1.962   .     S
O232   Zn248   1.938   .     S
O232   Zn247   1.946   .     S
O232   Zn246   1.939   .     S
O233   Zn246   1.948   .     S
O234   Zn248   1.953   .     S
O235   Zn247   1.945   .     S
O236   Zn245   1.941   .     S
O237   Zn245   1.926   .     S
O238   Zn248   1.933   .     S
O239   Zn246   1.928   .     S
O240   Zn247   1.934   .     S
O241   Zn248   1.928   .     S
O242   Zn245   1.925   .     S
O243   Zn246   1.938   .     S
O244   Zn247   1.929   .     S
C249   O303    1.272   .     A
C249   O301    1.269   .     A
C249   C255    1.437   .     S
C250   C266    1.534   .     S
C250   C264    1.415   .     A
C250   C272    1.423   .     A
C251   C263    1.385   .     A
C251   H276    1.084   .     S
C251   C264    1.398   .     A
C252   O302    1.287   .     A
C252   O304    1.281   .     A
C252   C254    1.453   .     S
C253   C271    1.417   .     A
C253   C262    1.467   .     S
C253   C265    1.404   .     A
C254   C317    1.334   .     S
C254   H340    1.084   .     S
C256   C259    1.451   .     S
C256   C443    1.332   .     S
C256   H473    1.088   .     S
C257   C258    1.436   .     S
C258   O299    1.277   .     A
C258   O305    1.277   .     A
C259   O306    1.276   .     A
C259   O300    1.276   .     A
C260   C265    1.388   .     A
C260   H293    1.083   .     S
C260   C269    1.390   .     A
C261   O297    1.275   .     A
C261   C264    1.450   .     S
C261   O295    1.268   .     A
C262   O296    1.282   .     A
C262   O298    1.281   .     A
C263   H290    1.084   .     S
C263   C831    1.395   1_554 S
C265   H291    1.084   .     S
C266   C267    1.535   .     S
C266   H284    1.110   .     S
C266   H285    1.098   .     S
C267   C268    1.525   .     S
C267   H282    1.112   .     S
C267   H283    1.111   .     S
C268   H281    1.110   .     S
C268   H280    1.111   .     S
C268   H279    1.110   .     S
C269   C270    1.410   .     A
C269   H850    1.082   .     S
C270   C271    1.419   .     A
C270   C830    1.420   .     S
C271   C275    1.410   .     A
C272   C828    1.420   1_554 S
C272   C831    1.420   1_554 S
C273   C274    1.393   .     A
C273   C830    1.420   .     S
C273   C821    1.395   .     S
C274   C275    1.386   .     A
C274   H289    1.084   .     S
C275   H277    1.081   .     S
H286   C317    1.086   .     S
H288   C443    1.086   .     S
H292   C827    1.082   1_554 S
O294   Zn307   1.962   .     S
O294   Zn310   1.938   .     S
O294   Zn309   1.946   .     S
O294   Zn308   1.939   .     S
O295   Zn308   1.948   .     S
O296   Zn310   1.953   .     S
O297   Zn309   1.945   .     S
O298   Zn307   1.941   .     S
O299   Zn307   1.926   .     S
O300   Zn310   1.933   .     S
O301   Zn308   1.928   .     S
O302   Zn309   1.934   .     S
O303   Zn310   1.928   .     S
O304   Zn307   1.925   .     S
O305   Zn308   1.938   .     S
O306   Zn309   1.929   .     S
C311   O365    1.272   .     A
C311   O363    1.269   .     A
C311   C317    1.437   .     S
C312   C328    1.534   .     S
C312   C326    1.415   .     A
C312   C334    1.423   .     A
C313   C325    1.385   .     A
C313   H338    1.084   .     S
C313   C326    1.398   .     A
C314   O364    1.287   .     A
C314   O366    1.281   .     A
C314   C316    1.453   .     S
C315   C333    1.417   .     A
C315   C324    1.467   .     S
C315   C327    1.404   .     A
C316   C193    1.334   1_655 S
C316   H216    1.084   1_655 S
C318   C321    1.451   .     S
C318   C505    1.332   .     S
C318   H535    1.088   .     S
C319   C320    1.436   .     S
C320   O361    1.277   .     A
C320   O367    1.277   .     A
C321   O368    1.276   .     A
C321   O362    1.276   .     A
C322   C327    1.388   .     A
C322   H355    1.083   .     S
C322   C331    1.390   .     A
C323   O359    1.275   .     A
C323   C326    1.450   .     S
C323   O357    1.268   .     A
C324   O358    1.282   .     A
C324   O360    1.281   .     A
C325   H352    1.084   .     S
C325   C893    1.395   1_554 S
C327   H353    1.084   .     S
C328   C329    1.535   .     S
C328   H346    1.110   .     S
C328   H347    1.098   .     S
C329   C330    1.525   .     S
C329   H344    1.112   .     S
C329   H345    1.111   .     S
C330   H343    1.110   .     S
C330   H342    1.111   .     S
C330   H341    1.110   .     S
C331   C332    1.410   .     A
C331   H912    1.082   .     S
C332   C333    1.419   .     A
C332   C892    1.420   .     S
C333   C337    1.410   .     A
C334   C890    1.420   1_554 S
C334   C893    1.420   1_554 S
C335   C336    1.393   .     A
C335   C892    1.420   .     S
C335   C883    1.395   .     S
C336   C337    1.386   .     A
C336   H351    1.084   .     S
C337   H339    1.081   .     S
H348   C193    1.086   1_655 S
H350   C505    1.086   .     S
H354   C889    1.082   1_554 S
O356   Zn369   1.962   .     S
O356   Zn372   1.938   .     S
O356   Zn371   1.946   .     S
O356   Zn370   1.939   .     S
O357   Zn370   1.948   .     S
O358   Zn372   1.953   .     S
O359   Zn371   1.945   .     S
O360   Zn369   1.941   .     S
O361   Zn369   1.926   .     S
O362   Zn372   1.933   .     S
O363   Zn370   1.928   .     S
O364   Zn371   1.934   .     S
O365   Zn372   1.928   .     S
O366   Zn369   1.925   .     S
O367   Zn370   1.938   .     S
O368   Zn371   1.929   .     S
C373   O427    1.272   .     A
C373   O425    1.269   .     A
C373   C379    1.437   .     S
C374   C390    1.534   .     S
C374   C388    1.415   .     A
C374   C396    1.423   .     A
C375   C387    1.385   .     A
C375   H400    1.084   .     S
C375   C388    1.398   .     A
C376   O426    1.287   .     A
C376   O428    1.281   .     A
C376   C378    1.453   .     S
C377   C395    1.417   .     A
C377   C386    1.467   .     S
C377   C389    1.404   .     A
C378   C441    1.334   .     S
C378   H464    1.084   .     S
C379   C502    1.334   1_455 S
C379   H534    1.086   1_455 S
C380   C383    1.451   .     S
C380   C9      1.332   1_565 S
C380   H39     1.088   1_565 S
C381   C382    1.436   .     S
C382   O423    1.277   .     A
C382   O429    1.277   .     A
C383   O430    1.276   .     A
C383   O424    1.276   .     A
C384   C389    1.388   .     A
C384   H417    1.083   .     S
C384   C393    1.390   .     A
C385   O421    1.275   .     A
C385   C388    1.450   .     S
C385   O419    1.268   .     A
C386   O420    1.282   .     A
C386   O422    1.281   .     A
C387   H414    1.084   .     S
C387   C955    1.395   1_554 S
C389   H415    1.084   .     S
C390   C391    1.535   .     S
C390   H408    1.110   .     S
C390   H409    1.098   .     S
C391   C392    1.525   .     S
C391   H406    1.112   .     S
C391   H407    1.111   .     S
C392   H405    1.110   .     S
C392   H404    1.111   .     S
C392   H403    1.110   .     S
C393   C394    1.410   .     A
C393   H974    1.082   .     S
C394   C395    1.419   .     A
C394   C954    1.420   .     S
C395   C399    1.410   .     A
C396   C952    1.420   1_554 S
C396   C955    1.420   1_554 S
C397   C398    1.393   .     A
C397   C954    1.420   .     S
C397   C945    1.395   .     S
C398   C399    1.386   .     A
C398   H413    1.084   .     S
C399   H401    1.081   .     S
H402   C502    1.084   1_455 S
H410   C441    1.086   .     S
H412   C9      1.086   1_565 S
H416   C951    1.082   1_554 S
O418   Zn431   1.962   .     S
O418   Zn434   1.938   .     S
O418   Zn433   1.946   .     S
O418   Zn432   1.939   .     S
O419   Zn432   1.948   .     S
O420   Zn434   1.953   .     S
O421   Zn433   1.945   .     S
O422   Zn431   1.941   .     S
O423   Zn431   1.926   .     S
O424   Zn434   1.933   .     S
O425   Zn432   1.928   .     S
O426   Zn433   1.934   .     S
O427   Zn434   1.928   .     S
O428   Zn431   1.925   .     S
O429   Zn432   1.938   .     S
O430   Zn433   1.929   .     S
C435   O489    1.272   .     A
C435   O487    1.269   .     A
C435   C441    1.437   .     S
C436   C452    1.534   .     S
C436   C450    1.415   .     A
C436   C458    1.423   .     A
C437   C449    1.385   .     A
C437   H462    1.084   .     S
C437   C450    1.398   .     A
C438   O488    1.287   .     A
C438   O490    1.281   .     A
C438   C440    1.453   .     S
C439   C457    1.417   .     A
C439   C448    1.467   .     S
C439   C451    1.404   .     A
C440   C503    1.334   .     S
C440   H526    1.084   .     S
C442   C445    1.451   .     S
C442   C71     1.332   1_565 S
C442   H101    1.088   1_565 S
C443   C444    1.436   .     S
C444   O485    1.277   .     A
C444   O491    1.277   .     A
C445   O492    1.276   .     A
C445   O486    1.276   .     A
C446   C451    1.388   .     A
C446   H479    1.083   .     S
C446   C455    1.390   .     A
C447   O483    1.275   .     A
C447   C450    1.450   .     S
C447   O481    1.268   .     A
C448   O482    1.282   .     A
C448   O484    1.281   .     A
C449   H476    1.084   .     S
C449   C1017   1.395   1_554 S
C451   H477    1.084   .     S
C452   C453    1.535   .     S
C452   H470    1.110   .     S
C452   H471    1.098   .     S
C453   C454    1.525   .     S
C453   H468    1.112   .     S
C453   H469    1.111   .     S
C454   H467    1.110   .     S
C454   H466    1.111   .     S
C454   H465    1.110   .     S
C455   C456    1.410   .     A
C455   H1036   1.082   .     S
C456   C457    1.419   .     A
C456   C1016   1.420   .     S
C457   C461    1.410   .     A
C458   C1014   1.420   1_554 S
C458   C1017   1.420   1_554 S
C459   C460    1.393   .     A
C459   C1016   1.420   .     S
C459   C1007   1.395   .     S
C460   C461    1.386   .     A
C460   H475    1.084   .     S
C461   H463    1.081   .     S
H472   C503    1.086   .     S
H474   C71     1.086   1_565 S
H478   C1013   1.082   1_554 S
O480   Zn493   1.962   .     S
O480   Zn496   1.938   .     S
O480   Zn495   1.946   .     S
O480   Zn494   1.939   .     S
O481   Zn494   1.948   .     S
O482   Zn496   1.953   .     S
O483   Zn495   1.945   .     S
O484   Zn493   1.941   .     S
O485   Zn493   1.926   .     S
O486   Zn496   1.933   .     S
O487   Zn494   1.928   .     S
O488   Zn495   1.934   .     S
O489   Zn496   1.928   .     S
O490   Zn493   1.925   .     S
O491   Zn494   1.938   .     S
O492   Zn495   1.929   .     S
C497   O551    1.272   .     A
C497   O549    1.269   .     A
C497   C503    1.437   .     S
C498   C514    1.534   .     S
C498   C512    1.415   .     A
C498   C520    1.423   .     A
C499   C511    1.385   .     A
C499   H524    1.084   .     S
C499   C512    1.398   .     A
C500   O550    1.287   .     A
C500   O552    1.281   .     A
C500   C502    1.453   .     S
C501   C519    1.417   .     A
C501   C510    1.467   .     S
C501   C513    1.404   .     A
C502   C379    1.334   1_655 S
C502   H402    1.084   1_655 S
C504   C507    1.451   .     S
C504   C133    1.332   1_565 S
C504   H163    1.088   1_565 S
C505   C506    1.436   .     S
C506   O547    1.277   .     A
C506   O553    1.277   .     A
C507   O554    1.276   .     A
C507   O548    1.276   .     A
C508   C513    1.388   .     A
C508   H541    1.083   .     S
C508   C517    1.390   .     A
C509   O545    1.275   .     A
C509   C512    1.450   .     S
C509   O543    1.268   .     A
C510   O544    1.282   .     A
C510   O546    1.281   .     A
C511   H538    1.084   .     S
C511   C1079   1.395   1_554 S
C513   H539    1.084   .     S
C514   C515    1.535   .     S
C514   H532    1.110   .     S
C514   H533    1.098   .     S
C515   C516    1.525   .     S
C515   H530    1.112   .     S
C515   H531    1.111   .     S
C516   H529    1.110   .     S
C516   H528    1.111   .     S
C516   H527    1.110   .     S
C517   C518    1.410   .     A
C517   H1098   1.082   .     S
C518   C519    1.419   .     A
C518   C1078   1.420   .     S
C519   C523    1.410   .     A
C520   C1076   1.420   1_554 S
C520   C1079   1.420   1_554 S
C521   C522    1.393   .     A
C521   C1078   1.420   .     S
C521   C1069   1.395   .     S
C522   C523    1.386   .     A
C522   H537    1.084   .     S
C523   H525    1.081   .     S
H534   C379    1.086   1_655 S
H536   C133    1.086   1_565 S
H540   C1075   1.082   1_554 S
O542   Zn555   1.962   .     S
O542   Zn558   1.938   .     S
O542   Zn557   1.946   .     S
O542   Zn556   1.939   .     S
O543   Zn556   1.948   .     S
O544   Zn558   1.953   .     S
O545   Zn557   1.945   .     S
O546   Zn555   1.941   .     S
O547   Zn555   1.926   .     S
O548   Zn558   1.933   .     S
O549   Zn556   1.928   .     S
O550   Zn557   1.934   .     S
O551   Zn558   1.928   .     S
O552   Zn555   1.925   .     S
O553   Zn556   1.938   .     S
O554   Zn557   1.929   .     S
C559   O613    1.272   .     A
C559   O611    1.269   .     A
C559   C565    1.437   .     S
C560   C576    1.534   .     S
C560   C574    1.415   .     A
C560   C582    1.423   .     A
C561   C573    1.385   .     A
C561   H586    1.084   .     S
C561   C574    1.398   .     A
C562   O612    1.287   .     A
C562   O614    1.281   .     A
C562   C564    1.453   .     S
C563   C581    1.417   .     A
C563   C572    1.467   .     S
C563   C575    1.404   .     A
C564   C627    1.334   .     S
C564   H650    1.084   .     S
C565   C688    1.334   1_455 S
C565   H720    1.086   1_455 S
C566   C569    1.451   .     S
C566   C753    1.332   .     S
C566   H783    1.088   .     S
C567   C568    1.436   .     S
C567   C938    1.332   1_545 S
C567   H970    1.086   1_545 S
C568   O609    1.277   .     A
C568   O615    1.277   .     A
C569   O616    1.276   .     A
C569   O610    1.276   .     A
C570   C575    1.388   .     A
C570   H603    1.083   .     S
C570   C579    1.390   .     A
C571   O607    1.275   .     A
C571   C574    1.450   .     S
C571   O605    1.268   .     A
C572   O606    1.282   .     A
C572   O608    1.281   .     A
C573   H600    1.084   .     S
C575   H601    1.084   .     S
C576   C577    1.535   .     S
C576   H594    1.110   .     S
C576   H595    1.098   .     S
C577   C578    1.525   .     S
C577   H592    1.112   .     S
C577   H593    1.111   .     S
C578   H591    1.110   .     S
C578   H590    1.111   .     S
C578   H589    1.110   .     S
C579   C580    1.410   .     A
C579   H44     1.082   1_556 S
C580   C581    1.419   .     A
C580   C24     1.420   1_556 S
C581   C585    1.410   .     A
C583   C584    1.393   .     A
C583   C24     1.420   1_556 S
C583   C15     1.395   1_556 S
C584   C585    1.386   .     A
C584   H599    1.084   .     S
C585   H587    1.081   .     S
H588   C688    1.084   1_455 S
H596   C627    1.086   .     S
H597   C938    1.088   1_545 S
H598   C753    1.086   .     S
O604   Zn617   1.962   .     S
O604   Zn620   1.938   .     S
O604   Zn619   1.946   .     S
O604   Zn618   1.939   .     S
O605   Zn618   1.948   .     S
O606   Zn620   1.953   .     S
O607   Zn619   1.945   .     S
O608   Zn617   1.941   .     S
O609   Zn617   1.926   .     S
O610   Zn620   1.933   .     S
O611   Zn618   1.928   .     S
O612   Zn619   1.934   .     S
O613   Zn620   1.928   .     S
O614   Zn617   1.925   .     S
O615   Zn618   1.938   .     S
O616   Zn619   1.929   .     S
C621   O675    1.272   .     A
C621   O673    1.269   .     A
C621   C627    1.437   .     S
C622   C638    1.534   .     S
C622   C636    1.415   .     A
C622   C644    1.423   .     A
C623   C635    1.385   .     A
C623   H648    1.084   .     S
C623   C636    1.398   .     A
C624   O674    1.287   .     A
C624   O676    1.281   .     A
C624   C626    1.453   .     S
C625   C643    1.417   .     A
C625   C634    1.467   .     S
C625   C637    1.404   .     A
C626   C689    1.334   .     S
C626   H712    1.084   .     S
C628   C631    1.451   .     S
C628   C815    1.332   .     S
C628   H845    1.088   .     S
C629   C630    1.436   .     S
C629   C1000   1.332   1_545 S
C629   H1032   1.086   1_545 S
C630   O671    1.277   .     A
C630   O677    1.277   .     A
C631   O678    1.276   .     A
C631   O672    1.276   .     A
C632   C637    1.388   .     A
C632   H665    1.083   .     S
C632   C641    1.390   .     A
C633   O669    1.275   .     A
C633   C636    1.450   .     S
C633   O667    1.268   .     A
C634   O668    1.282   .     A
C634   O670    1.281   .     A
C635   H662    1.084   .     S
C637   H663    1.084   .     S
C638   C639    1.535   .     S
C638   H656    1.110   .     S
C638   H657    1.098   .     S
C639   C640    1.525   .     S
C639   H654    1.112   .     S
C639   H655    1.111   .     S
C640   H653    1.110   .     S
C640   H652    1.111   .     S
C640   H651    1.110   .     S
C641   C642    1.410   .     A
C641   H106    1.082   1_556 S
C642   C643    1.419   .     A
C642   C86     1.420   1_556 S
C643   C647    1.410   .     A
C645   C646    1.393   .     A
C645   C86     1.420   1_556 S
C645   C77     1.395   1_556 S
C646   C647    1.386   .     A
C646   H661    1.084   .     S
C647   H649    1.081   .     S
H658   C689    1.086   .     S
H659   C1000   1.088   1_545 S
H660   C815    1.086   .     S
O666   Zn679   1.962   .     S
O666   Zn682   1.938   .     S
O666   Zn681   1.946   .     S
O666   Zn680   1.939   .     S
O667   Zn680   1.948   .     S
O668   Zn682   1.953   .     S
O669   Zn681   1.945   .     S
O670   Zn679   1.941   .     S
O671   Zn679   1.926   .     S
O672   Zn682   1.933   .     S
O673   Zn680   1.928   .     S
O674   Zn681   1.934   .     S
O675   Zn682   1.928   .     S
O676   Zn679   1.925   .     S
O677   Zn680   1.938   .     S
O678   Zn681   1.929   .     S
C683   O737    1.272   .     A
C683   O735    1.269   .     A
C683   C689    1.437   .     S
C684   C700    1.534   .     S
C684   C698    1.415   .     A
C684   C706    1.423   .     A
C685   C697    1.385   .     A
C685   H710    1.084   .     S
C685   C698    1.398   .     A
C686   O736    1.287   .     A
C686   O738    1.281   .     A
C686   C688    1.453   .     S
C687   C705    1.417   .     A
C687   C696    1.467   .     S
C687   C699    1.404   .     A
C688   C565    1.334   1_655 S
C688   H588    1.084   1_655 S
C690   C693    1.451   .     S
C690   C877    1.332   .     S
C690   H907    1.088   .     S
C691   C692    1.436   .     S
C691   C1062   1.332   1_545 S
C691   H1094   1.086   1_545 S
C692   O733    1.277   .     A
C692   O739    1.277   .     A
C693   O740    1.276   .     A
C693   O734    1.276   .     A
C694   C699    1.388   .     A
C694   H727    1.083   .     S
C694   C703    1.390   .     A
C695   O731    1.275   .     A
C695   C698    1.450   .     S
C695   O729    1.268   .     A
C696   O730    1.282   .     A
C696   O732    1.281   .     A
C697   H724    1.084   .     S
C699   H725    1.084   .     S
C700   C701    1.535   .     S
C700   H718    1.110   .     S
C700   H719    1.098   .     S
C701   C702    1.525   .     S
C701   H716    1.112   .     S
C701   H717    1.111   .     S
C702   H715    1.110   .     S
C702   H714    1.111   .     S
C702   H713    1.110   .     S
C703   C704    1.410   .     A
C703   H168    1.082   1_556 S
C704   C705    1.419   .     A
C704   C148    1.420   1_556 S
C705   C709    1.410   .     A
C707   C708    1.393   .     A
C707   C148    1.420   1_556 S
C707   C139    1.395   1_556 S
C708   C709    1.386   .     A
C708   H723    1.084   .     S
C709   H711    1.081   .     S
H720   C565    1.086   1_655 S
H721   C1062   1.088   1_545 S
H722   C877    1.086   .     S
O728   Zn741   1.962   .     S
O728   Zn744   1.938   .     S
O728   Zn743   1.946   .     S
O728   Zn742   1.939   .     S
O729   Zn742   1.948   .     S
O730   Zn744   1.953   .     S
O731   Zn743   1.945   .     S
O732   Zn741   1.941   .     S
O733   Zn741   1.926   .     S
O734   Zn744   1.933   .     S
O735   Zn742   1.928   .     S
O736   Zn743   1.934   .     S
O737   Zn744   1.928   .     S
O738   Zn741   1.925   .     S
O739   Zn742   1.938   .     S
O740   Zn743   1.929   .     S
C745   O799    1.272   .     A
C745   O797    1.269   .     A
C745   C751    1.437   .     S
C746   C762    1.534   .     S
C746   C760    1.415   .     A
C746   C768    1.423   .     A
C747   C759    1.385   .     A
C747   H772    1.084   .     S
C747   C760    1.398   .     A
C748   O798    1.287   .     A
C748   O800    1.281   .     A
C748   C750    1.453   .     S
C749   C767    1.417   .     A
C749   C758    1.467   .     S
C749   C761    1.404   .     A
C750   C813    1.334   .     S
C750   H836    1.084   .     S
C751   C874    1.334   1_455 S
C751   H906    1.086   1_455 S
C752   C755    1.451   .     S
C752   C939    1.332   .     S
C752   H969    1.088   .     S
C753   C754    1.436   .     S
C754   O795    1.277   .     A
C754   O801    1.277   .     A
C755   O802    1.276   .     A
C755   O796    1.276   .     A
C756   C761    1.388   .     A
C756   H789    1.083   .     S
C756   C765    1.390   .     A
C757   O793    1.275   .     A
C757   C760    1.450   .     S
C757   O791    1.268   .     A
C758   O792    1.282   .     A
C758   O794    1.281   .     A
C759   H786    1.084   .     S
C761   H787    1.084   .     S
C762   C763    1.535   .     S
C762   H780    1.110   .     S
C762   H781    1.098   .     S
C763   C764    1.525   .     S
C763   H778    1.112   .     S
C763   H779    1.111   .     S
C764   H777    1.110   .     S
C764   H776    1.111   .     S
C764   H775    1.110   .     S
C765   C766    1.410   .     A
C765   H230    1.082   1_556 S
C766   C767    1.419   .     A
C766   C210    1.420   1_556 S
C767   C771    1.410   .     A
C769   C770    1.393   .     A
C769   C210    1.420   1_556 S
C769   C201    1.395   1_556 S
C770   C771    1.386   .     A
C770   H785    1.084   .     S
C771   H773    1.081   .     S
H774   C874    1.084   1_455 S
H782   C813    1.086   .     S
H784   C939    1.086   .     S
O790   Zn803   1.962   .     S
O790   Zn806   1.938   .     S
O790   Zn805   1.946   .     S
O790   Zn804   1.939   .     S
O791   Zn804   1.948   .     S
O792   Zn806   1.953   .     S
O793   Zn805   1.945   .     S
O794   Zn803   1.941   .     S
O795   Zn803   1.926   .     S
O796   Zn806   1.933   .     S
O797   Zn804   1.928   .     S
O798   Zn805   1.934   .     S
O799   Zn806   1.928   .     S
O800   Zn803   1.925   .     S
O801   Zn804   1.938   .     S
O802   Zn805   1.929   .     S
C807   O861    1.272   .     A
C807   O859    1.269   .     A
C807   C813    1.437   .     S
C808   C824    1.534   .     S
C808   C822    1.415   .     A
C808   C830    1.423   .     A
C809   C821    1.385   .     A
C809   H834    1.084   .     S
C809   C822    1.398   .     A
C810   O860    1.287   .     A
C810   O862    1.281   .     A
C810   C812    1.453   .     S
C811   C829    1.417   .     A
C811   C820    1.467   .     S
C811   C823    1.404   .     A
C812   C875    1.334   .     S
C812   H898    1.084   .     S
C814   C817    1.451   .     S
C814   C1001   1.332   .     S
C814   H1031   1.088   .     S
C815   C816    1.436   .     S
C816   O857    1.277   .     A
C816   O863    1.277   .     A
C817   O864    1.276   .     A
C817   O858    1.276   .     A
C818   C823    1.388   .     A
C818   H851    1.083   .     S
C818   C827    1.390   .     A
C819   O855    1.275   .     A
C819   C822    1.450   .     S
C819   O853    1.268   .     A
C820   O854    1.282   .     A
C820   O856    1.281   .     A
C821   H848    1.084   .     S
C823   H849    1.084   .     S
C824   C825    1.535   .     S
C824   H842    1.110   .     S
C824   H843    1.098   .     S
C825   C826    1.525   .     S
C825   H840    1.112   .     S
C825   H841    1.111   .     S
C826   H839    1.110   .     S
C826   H838    1.111   .     S
C826   H837    1.110   .     S
C827   C828    1.410   .     A
C827   H292    1.082   1_556 S
C828   C829    1.419   .     A
C828   C272    1.420   1_556 S
C829   C833    1.410   .     A
C831   C832    1.393   .     A
C831   C272    1.420   1_556 S
C831   C263    1.395   1_556 S
C832   C833    1.386   .     A
C832   H847    1.084   .     S
C833   H835    1.081   .     S
H844   C875    1.086   .     S
H846   C1001   1.086   .     S
O852   Zn865   1.962   .     S
O852   Zn868   1.938   .     S
O852   Zn867   1.946   .     S
O852   Zn866   1.939   .     S
O853   Zn866   1.948   .     S
O854   Zn868   1.953   .     S
O855   Zn867   1.945   .     S
O856   Zn865   1.941   .     S
O857   Zn865   1.926   .     S
O858   Zn868   1.933   .     S
O859   Zn866   1.928   .     S
O860   Zn867   1.934   .     S
O861   Zn868   1.928   .     S
O862   Zn865   1.925   .     S
O863   Zn866   1.938   .     S
O864   Zn867   1.929   .     S
C869   O923    1.272   .     A
C869   O921    1.269   .     A
C869   C875    1.437   .     S
C870   C886    1.534   .     S
C870   C884    1.415   .     A
C870   C892    1.423   .     A
C871   C883    1.385   .     A
C871   H896    1.084   .     S
C871   C884    1.398   .     A
C872   O922    1.287   .     A
C872   O924    1.281   .     A
C872   C874    1.453   .     S
C873   C891    1.417   .     A
C873   C882    1.467   .     S
C873   C885    1.404   .     A
C874   C751    1.334   1_655 S
C874   H774    1.084   1_655 S
C876   C879    1.451   .     S
C876   C1063   1.332   .     S
C876   H1093   1.088   .     S
C877   C878    1.436   .     S
C878   O919    1.277   .     A
C878   O925    1.277   .     A
C879   O926    1.276   .     A
C879   O920    1.276   .     A
C880   C885    1.388   .     A
C880   H913    1.083   .     S
C880   C889    1.390   .     A
C881   O917    1.275   .     A
C881   C884    1.450   .     S
C881   O915    1.268   .     A
C882   O916    1.282   .     A
C882   O918    1.281   .     A
C883   H910    1.084   .     S
C885   H911    1.084   .     S
C886   C887    1.535   .     S
C886   H904    1.110   .     S
C886   H905    1.098   .     S
C887   C888    1.525   .     S
C887   H902    1.112   .     S
C887   H903    1.111   .     S
C888   H901    1.110   .     S
C888   H900    1.111   .     S
C888   H899    1.110   .     S
C889   C890    1.410   .     A
C889   H354    1.082   1_556 S
C890   C891    1.419   .     A
C890   C334    1.420   1_556 S
C891   C895    1.410   .     A
C893   C894    1.393   .     A
C893   C334    1.420   1_556 S
C893   C325    1.395   1_556 S
C894   C895    1.386   .     A
C894   H909    1.084   .     S
C895   H897    1.081   .     S
H906   C751    1.086   1_655 S
H908   C1063   1.086   .     S
O914   Zn927   1.962   .     S
O914   Zn930   1.938   .     S
O914   Zn929   1.946   .     S
O914   Zn928   1.939   .     S
O915   Zn928   1.948   .     S
O916   Zn930   1.953   .     S
O917   Zn929   1.945   .     S
O918   Zn927   1.941   .     S
O919   Zn927   1.926   .     S
O920   Zn930   1.933   .     S
O921   Zn928   1.928   .     S
O922   Zn929   1.934   .     S
O923   Zn930   1.928   .     S
O924   Zn927   1.925   .     S
O925   Zn928   1.938   .     S
O926   Zn929   1.929   .     S
C931   O985    1.272   .     A
C931   O983    1.269   .     A
C931   C937    1.437   .     S
C932   C948    1.534   .     S
C932   C946    1.415   .     A
C932   C954    1.423   .     A
C933   C945    1.385   .     A
C933   H958    1.084   .     S
C933   C946    1.398   .     A
C934   O984    1.287   .     A
C934   O986    1.281   .     A
C934   C936    1.453   .     S
C935   C953    1.417   .     A
C935   C944    1.467   .     S
C935   C947    1.404   .     A
C936   C999    1.334   .     S
C936   H1022   1.084   .     S
C937   C1060   1.334   1_455 S
C937   H1092   1.086   1_455 S
C938   C941    1.451   .     S
C938   C567    1.332   1_565 S
C938   H597    1.088   1_565 S
C939   C940    1.436   .     S
C940   O981    1.277   .     A
C940   O987    1.277   .     A
C941   O988    1.276   .     A
C941   O982    1.276   .     A
C942   C947    1.388   .     A
C942   H975    1.083   .     S
C942   C951    1.390   .     A
C943   O979    1.275   .     A
C943   C946    1.450   .     S
C943   O977    1.268   .     A
C944   O978    1.282   .     A
C944   O980    1.281   .     A
C945   H972    1.084   .     S
C947   H973    1.084   .     S
C948   C949    1.535   .     S
C948   H966    1.110   .     S
C948   H967    1.098   .     S
C949   C950    1.525   .     S
C949   H964    1.112   .     S
C949   H965    1.111   .     S
C950   H963    1.110   .     S
C950   H962    1.111   .     S
C950   H961    1.110   .     S
C951   C952    1.410   .     A
C951   H416    1.082   1_556 S
C952   C953    1.419   .     A
C952   C396    1.420   1_556 S
C953   C957    1.410   .     A
C955   C956    1.393   .     A
C955   C396    1.420   1_556 S
C955   C387    1.395   1_556 S
C956   C957    1.386   .     A
C956   H971    1.084   .     S
C957   H959    1.081   .     S
H960   C1060   1.084   1_455 S
H968   C999    1.086   .     S
H970   C567    1.086   1_565 S
O976   Zn989   1.962   .     S
O976   Zn992   1.938   .     S
O976   Zn991   1.946   .     S
O976   Zn990   1.939   .     S
O977   Zn990   1.948   .     S
O978   Zn992   1.953   .     S
O979   Zn991   1.945   .     S
O980   Zn989   1.941   .     S
O981   Zn989   1.926   .     S
O982   Zn992   1.933   .     S
O983   Zn990   1.928   .     S
O984   Zn991   1.934   .     S
O985   Zn992   1.928   .     S
O986   Zn989   1.925   .     S
O987   Zn990   1.938   .     S
O988   Zn991   1.929   .     S
C993   O1047   1.272   .     A
C993   O1045   1.269   .     A
C993   C999    1.437   .     S
C994   C1010   1.534   .     S
C994   C1008   1.415   .     A
C994   C1016   1.423   .     A
C995   C1007   1.385   .     A
C995   H1020   1.084   .     S
C995   C1008   1.398   .     A
C996   O1046   1.287   .     A
C996   O1048   1.281   .     A
C996   C998    1.453   .     S
C997   C1015   1.417   .     A
C997   C1006   1.467   .     S
C997   C1009   1.404   .     A
C998   C1061   1.334   .     S
C998   H1084   1.084   .     S
C1000  C1003   1.451   .     S
C1000  C629    1.332   1_565 S
C1000  H659    1.088   1_565 S
C1001  C1002   1.436   .     S
C1002  O1043   1.277   .     A
C1002  O1049   1.277   .     A
C1003  O1050   1.276   .     A
C1003  O1044   1.276   .     A
C1004  C1009   1.388   .     A
C1004  H1037   1.083   .     S
C1004  C1013   1.390   .     A
C1005  O1041   1.275   .     A
C1005  C1008   1.450   .     S
C1005  O1039   1.268   .     A
C1006  O1040   1.282   .     A
C1006  O1042   1.281   .     A
C1007  H1034   1.084   .     S
C1009  H1035   1.084   .     S
C1010  C1011   1.535   .     S
C1010  H1028   1.110   .     S
C1010  H1029   1.098   .     S
C1011  C1012   1.525   .     S
C1011  H1026   1.112   .     S
C1011  H1027   1.111   .     S
C1012  H1025   1.110   .     S
C1012  H1024   1.111   .     S
C1012  H1023   1.110   .     S
C1013  C1014   1.410   .     A
C1013  H478    1.082   1_556 S
C1014  C1015   1.419   .     A
C1014  C458    1.420   1_556 S
C1015  C1019   1.410   .     A
C1017  C1018   1.393   .     A
C1017  C458    1.420   1_556 S
C1017  C449    1.395   1_556 S
C1018  C1019   1.386   .     A
C1018  H1033   1.084   .     S
C1019  H1021   1.081   .     S
H1030  C1061   1.086   .     S
H1032  C629    1.086   1_565 S
O1038  Zn1051  1.962   .     S
O1038  Zn1054  1.938   .     S
O1038  Zn1053  1.946   .     S
O1038  Zn1052  1.939   .     S
O1039  Zn1052  1.948   .     S
O1040  Zn1054  1.953   .     S
O1041  Zn1053  1.945   .     S
O1042  Zn1051  1.941   .     S
O1043  Zn1051  1.926   .     S
O1044  Zn1054  1.933   .     S
O1045  Zn1052  1.928   .     S
O1046  Zn1053  1.934   .     S
O1047  Zn1054  1.928   .     S
O1048  Zn1051  1.925   .     S
O1049  Zn1052  1.938   .     S
O1050  Zn1053  1.929   .     S
C1055  O1109   1.272   .     A
C1055  O1107   1.269   .     A
C1055  C1061   1.437   .     S
C1056  C1072   1.534   .     S
C1056  C1070   1.415   .     A
C1056  C1078   1.423   .     A
C1057  C1069   1.385   .     A
C1057  H1082   1.084   .     S
C1057  C1070   1.398   .     A
C1058  O1108   1.287   .     A
C1058  O1110   1.281   .     A
C1058  C1060   1.453   .     S
C1059  C1077   1.417   .     A
C1059  C1068   1.467   .     S
C1059  C1071   1.404   .     A
C1060  C937    1.334   1_655 S
C1060  H960    1.084   1_655 S
C1062  C1065   1.451   .     S
C1062  C691    1.332   1_565 S
C1062  H721    1.088   1_565 S
C1063  C1064   1.436   .     S
C1064  O1105   1.277   .     A
C1064  O1111   1.277   .     A
C1065  O1112   1.276   .     A
C1065  O1106   1.276   .     A
C1066  C1071   1.388   .     A
C1066  H1099   1.083   .     S
C1066  C1075   1.390   .     A
C1067  O1103   1.275   .     A
C1067  C1070   1.450   .     S
C1067  O1101   1.268   .     A
C1068  O1102   1.282   .     A
C1068  O1104   1.281   .     A
C1069  H1096   1.084   .     S
C1071  H1097   1.084   .     S
C1072  C1073   1.535   .     S
C1072  H1090   1.110   .     S
C1072  H1091   1.098   .     S
C1073  C1074   1.525   .     S
C1073  H1088   1.112   .     S
C1073  H1089   1.111   .     S
C1074  H1087   1.110   .     S
C1074  H1086   1.111   .     S
C1074  H1085   1.110   .     S
C1075  C1076   1.410   .     A
C1075  H540    1.082   1_556 S
C1076  C1077   1.419   .     A
C1076  C520    1.420   1_556 S
C1077  C1081   1.410   .     A
C1079  C1080   1.393   .     A
C1079  C520    1.420   1_556 S
C1079  C511    1.395   1_556 S
C1080  C1081   1.386   .     A
C1080  H1095   1.084   .     S
C1081  H1083   1.081   .     S
H1092  C937    1.086   1_655 S
H1094  C691    1.086   1_565 S
O1100  Zn1113  1.962   .     S
O1100  Zn1116  1.938   .     S
O1100  Zn1115  1.946   .     S
O1100  Zn1114  1.939   .     S
O1101  Zn1114  1.948   .     S
O1102  Zn1116  1.953   .     S
O1103  Zn1115  1.945   .     S
O1104  Zn1113  1.941   .     S
O1105  Zn1113  1.926   .     S
O1106  Zn1116  1.933   .     S
O1107  Zn1114  1.928   .     S
O1108  Zn1115  1.934   .     S
O1109  Zn1116  1.928   .     S
O1110  Zn1113  1.925   .     S
O1111  Zn1114  1.938   .     S
O1112  Zn1115  1.929   .     S
