data_str_m2_o1_o18_pcu_sym.14
_audit_creation_date              2020-01-03
_audit_creation_method            'Materials Studio'
_symmetry_space_group_name_H-M    'P1'
_symmetry_Int_Tables_number       1
_symmetry_cell_setting            triclinic
loop_
_symmetry_equiv_pos_as_xyz
  x,y,z
_cell_length_a                    28.5735
_cell_length_b                    32.4623
_cell_length_c                    31.0074
_cell_angle_alpha                 89.6831
_cell_angle_beta                  74.4630
_cell_angle_gamma                 89.8827
loop_
_atom_site_label
_atom_site_type_symbol
_atom_site_fract_x
_atom_site_fract_y
_atom_site_fract_z
_atom_site_U_iso_or_equiv
_atom_site_adp_type
_atom_site_occupancy
C1     C     0.00006   0.08742   0.25008   0.00000  Uiso   1.00
C2     C     0.02433   0.02135   0.27740   0.00000  Uiso   1.00
C3     C     0.00026   0.29041   0.25031   0.00000  Uiso   1.00
C4     C     0.00055   0.04276   0.24977   0.00000  Uiso   1.00
C5     C     0.18195   0.14635   0.28263   0.00000  Uiso   1.00
C6     C     0.15135   0.18711   0.21745   0.00000  Uiso   1.00
C7     C     0.13234   0.14664   0.28279   0.00000  Uiso   1.00
C8     C     0.20092   0.18713   0.21748   0.00000  Uiso   1.00
C9     C     0.30609   0.16653   0.33606   0.00000  Uiso   1.00
C10    C     0.02725   0.16701   0.16396   0.00000  Uiso   1.00
C11    C     0.29115   0.16569   0.38515   0.00000  Uiso   1.00
C12    C     0.33319   0.24584   0.25057   0.00000  Uiso   1.00
C13    C     0.04241   0.17096   0.11507   0.00000  Uiso   1.00
C14    C     0.30836   0.15315   0.45621   0.00000  Uiso   1.00
C15    C     0.02721   0.19315   0.04561   0.00000  Uiso   1.00
C16    C     0.32433   0.15657   0.40983   0.00000  Uiso   1.00
C17    C     0.01019   0.18471   0.09118   0.00000  Uiso   1.00
C18    C     0.24232   0.17262   0.40732   0.00000  Uiso   1.00
C19    C     0.09123   0.16438   0.09279   0.00000  Uiso   1.00
C20    C     0.22541   0.17037   0.45421   0.00000  Uiso   1.00
C21    C     0.10973   0.17387   0.04711   0.00000  Uiso   1.00
C22    C     0.25927   0.15959   0.47849   0.00000  Uiso   1.00
C23    C     0.19531   0.15984   0.04735   0.00000  Uiso   1.00
C24    C     0.07654   0.18785   0.02344   0.00000  Uiso   1.00
C25    C     0.17571   0.17718   0.47741   0.00000  Uiso   1.00
C26    C     0.16004   0.16995   0.02445   0.00000  Uiso   1.00
C27    C     0.32779   0.28124   0.15241   0.00000  Uiso   1.00
C28    C     0.09634   0.04051   0.28949   0.00000  Uiso   1.00
C29    C     0.14132   0.19148   0.45528   0.00000  Uiso   1.00
C30    C     0.24386   0.15493   0.02472   0.00000  Uiso   1.00
C31    C     0.09285   0.19681   0.47800   0.00000  Uiso   1.00
C32    C     0.31100   0.02151   0.22166   0.00000  Uiso   1.00
C33    C     0.02161   0.31179   0.27966   0.00000  Uiso   1.00
C34    C     0.31279   0.31184   0.22044   0.00000  Uiso   1.00
Cu35   Cu    0.04689   0.16667   0.25000   0.00000  Uiso   1.00
Cu36   Cu    0.28645   0.16666   0.25000   0.00000  Uiso   1.00
H37    H     0.26946   0.14688   0.04364   0.00000  Uiso   1.00
H38    H     0.15068   0.20001   0.42043   0.00000  Uiso   1.00
H39    H     0.19292   0.12987   0.30872   0.00000  Uiso   1.00
H40    H     0.14032   0.20367   0.19143   0.00000  Uiso   1.00
H41    H     0.10597   0.13087   0.30923   0.00000  Uiso   1.00
H42    H     0.22713   0.20364   0.19150   0.00000  Uiso   1.00
H43    H     0.30396   0.03715   0.16020   0.00000  Uiso   1.00
H44    H     0.25095   0.03362   0.20084   0.00000  Uiso   1.00
H45    H     0.01055   0.27175   0.33212   0.00000  Uiso   1.00
H46    H     0.06856   0.27293   0.29867   0.00000  Uiso   1.00
H47    H     0.31012   0.26728   0.12824   0.00000  Uiso   1.00
H48    H     0.06786   0.20799   0.45971   0.00000  Uiso   1.00
H49    H     0.02066   0.25839   0.15917   0.00000  Uiso   1.00
H50    H     0.01431   0.30912   0.13617   0.00000  Uiso   1.00
H51    H     0.11292   0.05696   0.31295   0.00000  Uiso   1.00
H52    H     0.10897   0.05567   0.25613   0.00000  Uiso   1.00
H53    H     0.11003   0.00833   0.28743   0.00000  Uiso   1.00
H54    H     0.11396   0.15174   0.11214   0.00000  Uiso   1.00
H55    H     0.21795   0.17853   0.38694   0.00000  Uiso   1.00
H56    H     0.30560   0.19009   0.10792   0.00000  Uiso   1.00
H57    H     0.02892   0.15095   0.39326   0.00000  Uiso   1.00
H58    H     0.00098   0.14478   0.47462   0.00000  Uiso   1.00
H59    H     0.00194   0.20457   0.02781   0.00000  Uiso   1.00
H60    H     0.18705   0.15626   0.08312   0.00000  Uiso   1.00
N61    N     0.11736   0.16668   0.24999   0.00000  Uiso   1.00
N62    N     0.21597   0.16666   0.25001   0.00000  Uiso   1.00
N63    N     0.28693   0.04379   0.19365   0.00000  Uiso   1.00
N64    N     0.03827   0.29086   0.31373   0.00000  Uiso   1.00
O65    O     0.03958   0.10655   0.25000   0.00000  Uiso   1.00
O66    O     0.04527   0.04263   0.30608   0.00000  Uiso   1.00
O67    O     0.29375   0.22678   0.25000   0.00000  Uiso   1.00
O68    O     0.29372   0.10654   0.25000   0.00000  Uiso   1.00
O69    O     0.03961   0.22679   0.24999   0.00000  Uiso   1.00
O70    O     0.01852   0.16668   0.31491   0.00000  Uiso   1.00
O71    O     0.31481   0.16666   0.18508   0.00000  Uiso   1.00
O72    O     0.27267   0.16667   0.31492   0.00000  Uiso   1.00
O73    O     0.06067   0.16667   0.18508   0.00000  Uiso   1.00
O74    O     0.29148   0.29097   0.19179   0.00000  Uiso   1.00
C75    C     0.33339   0.08742   0.25008   0.00000  Uiso   1.00
C76    C     0.35767   0.02135   0.27740   0.00000  Uiso   1.00
C77    C     0.33359   0.29041   0.25031   0.00000  Uiso   1.00
C78    C     0.33389   0.04276   0.24977   0.00000  Uiso   1.00
C79    C     0.51528   0.14635   0.28263   0.00000  Uiso   1.00
C80    C     0.48468   0.18711   0.21745   0.00000  Uiso   1.00
C81    C     0.46567   0.14664   0.28279   0.00000  Uiso   1.00
C82    C     0.53425   0.18713   0.21748   0.00000  Uiso   1.00
C83    C     0.63943   0.16653   0.33606   0.00000  Uiso   1.00
C84    C     0.36058   0.16701   0.16396   0.00000  Uiso   1.00
C85    C     0.62449   0.16569   0.38515   0.00000  Uiso   1.00
C86    C     0.66652   0.24584   0.25057   0.00000  Uiso   1.00
C87    C     0.37574   0.17096   0.11507   0.00000  Uiso   1.00
C88    C     0.64170   0.15315   0.45621   0.00000  Uiso   1.00
C89    C     0.36054   0.19315   0.04561   0.00000  Uiso   1.00
C90    C     0.65766   0.15657   0.40983   0.00000  Uiso   1.00
C91    C     0.34353   0.18471   0.09118   0.00000  Uiso   1.00
C92    C     0.57566   0.17262   0.40732   0.00000  Uiso   1.00
C93    C     0.42456   0.16438   0.09279   0.00000  Uiso   1.00
C94    C     0.55874   0.17037   0.45421   0.00000  Uiso   1.00
C95    C     0.44306   0.17387   0.04711   0.00000  Uiso   1.00
C96    C     0.59261   0.15959   0.47849   0.00000  Uiso   1.00
C97    C     0.52864   0.15984   0.04735   0.00000  Uiso   1.00
C98    C     0.40987   0.18785   0.02344   0.00000  Uiso   1.00
C99    C     0.50904   0.17718   0.47741   0.00000  Uiso   1.00
C100   C     0.49337   0.16995   0.02445   0.00000  Uiso   1.00
C101   C     0.66112   0.28124   0.15241   0.00000  Uiso   1.00
C102   C     0.42967   0.04051   0.28949   0.00000  Uiso   1.00
C103   C     0.47465   0.19148   0.45528   0.00000  Uiso   1.00
C104   C     0.57719   0.15493   0.02472   0.00000  Uiso   1.00
C105   C     0.42618   0.19681   0.47800   0.00000  Uiso   1.00
C106   C     0.64433   0.02151   0.22166   0.00000  Uiso   1.00
C107   C     0.35494   0.31179   0.27966   0.00000  Uiso   1.00
C108   C     0.64613   0.31184   0.22044   0.00000  Uiso   1.00
Cu109  Cu    0.38022   0.16667   0.25000   0.00000  Uiso   1.00
Cu110  Cu    0.61978   0.16666   0.25000   0.00000  Uiso   1.00
H111   H     0.60279   0.14688   0.04364   0.00000  Uiso   1.00
H112   H     0.48402   0.20001   0.42043   0.00000  Uiso   1.00
H113   H     0.52626   0.12987   0.30872   0.00000  Uiso   1.00
H114   H     0.47366   0.20367   0.19143   0.00000  Uiso   1.00
H115   H     0.43930   0.13087   0.30923   0.00000  Uiso   1.00
H116   H     0.56046   0.20364   0.19150   0.00000  Uiso   1.00
H117   H     0.63730   0.03715   0.16020   0.00000  Uiso   1.00
H118   H     0.58428   0.03362   0.20084   0.00000  Uiso   1.00
H119   H     0.34388   0.27175   0.33212   0.00000  Uiso   1.00
H120   H     0.40190   0.27293   0.29867   0.00000  Uiso   1.00
H121   H     0.64346   0.26728   0.12824   0.00000  Uiso   1.00
H122   H     0.40120   0.20799   0.45971   0.00000  Uiso   1.00
H123   H     0.35399   0.25839   0.15917   0.00000  Uiso   1.00
H124   H     0.34764   0.30912   0.13617   0.00000  Uiso   1.00
H125   H     0.44626   0.05696   0.31295   0.00000  Uiso   1.00
H126   H     0.44231   0.05567   0.25613   0.00000  Uiso   1.00
H127   H     0.44337   0.00833   0.28743   0.00000  Uiso   1.00
H128   H     0.44730   0.15174   0.11214   0.00000  Uiso   1.00
H129   H     0.55128   0.17853   0.38694   0.00000  Uiso   1.00
H130   H     0.63893   0.19009   0.10792   0.00000  Uiso   1.00
H131   H     0.36225   0.15095   0.39326   0.00000  Uiso   1.00
H132   H     0.33431   0.14478   0.47462   0.00000  Uiso   1.00
H133   H     0.33527   0.20457   0.02781   0.00000  Uiso   1.00
H134   H     0.52038   0.15626   0.08312   0.00000  Uiso   1.00
N135   N     0.45069   0.16668   0.24999   0.00000  Uiso   1.00
N136   N     0.54931   0.16666   0.25001   0.00000  Uiso   1.00
N137   N     0.62026   0.04379   0.19365   0.00000  Uiso   1.00
N138   N     0.37160   0.29086   0.31373   0.00000  Uiso   1.00
O139   O     0.37291   0.10655   0.25000   0.00000  Uiso   1.00
O140   O     0.37860   0.04263   0.30608   0.00000  Uiso   1.00
O141   O     0.62709   0.22678   0.25000   0.00000  Uiso   1.00
O142   O     0.62706   0.10654   0.25000   0.00000  Uiso   1.00
O143   O     0.37294   0.22679   0.24999   0.00000  Uiso   1.00
O144   O     0.35186   0.16668   0.31491   0.00000  Uiso   1.00
O145   O     0.64814   0.16666   0.18508   0.00000  Uiso   1.00
O146   O     0.60600   0.16667   0.31492   0.00000  Uiso   1.00
O147   O     0.39400   0.16667   0.18508   0.00000  Uiso   1.00
O148   O     0.62482   0.29097   0.19179   0.00000  Uiso   1.00
C149   C     0.66673   0.08742   0.25008   0.00000  Uiso   1.00
C150   C     0.69100   0.02135   0.27740   0.00000  Uiso   1.00
C151   C     0.66692   0.29041   0.25031   0.00000  Uiso   1.00
C152   C     0.66722   0.04276   0.24977   0.00000  Uiso   1.00
C153   C     0.84862   0.14635   0.28263   0.00000  Uiso   1.00
C154   C     0.81802   0.18711   0.21745   0.00000  Uiso   1.00
C155   C     0.79900   0.14664   0.28279   0.00000  Uiso   1.00
C156   C     0.86759   0.18713   0.21748   0.00000  Uiso   1.00
C157   C     0.97276   0.16653   0.33606   0.00000  Uiso   1.00
C158   C     0.69391   0.16701   0.16396   0.00000  Uiso   1.00
C159   C     0.95782   0.16569   0.38515   0.00000  Uiso   1.00
C160   C     0.99986   0.24584   0.25057   0.00000  Uiso   1.00
C161   C     0.70907   0.17096   0.11507   0.00000  Uiso   1.00
C162   C     0.97503   0.15315   0.45621   0.00000  Uiso   1.00
C163   C     0.69388   0.19315   0.04561   0.00000  Uiso   1.00
C164   C     0.99100   0.15657   0.40983   0.00000  Uiso   1.00
C165   C     0.67686   0.18471   0.09118   0.00000  Uiso   1.00
C166   C     0.90899   0.17262   0.40732   0.00000  Uiso   1.00
C167   C     0.75790   0.16438   0.09279   0.00000  Uiso   1.00
C168   C     0.89208   0.17037   0.45421   0.00000  Uiso   1.00
C169   C     0.77640   0.17387   0.04711   0.00000  Uiso   1.00
C170   C     0.92594   0.15959   0.47849   0.00000  Uiso   1.00
C171   C     0.86198   0.15984   0.04735   0.00000  Uiso   1.00
C172   C     0.74320   0.18785   0.02344   0.00000  Uiso   1.00
C173   C     0.84237   0.17718   0.47741   0.00000  Uiso   1.00
C174   C     0.82670   0.16995   0.02445   0.00000  Uiso   1.00
C175   C     0.99446   0.28124   0.15241   0.00000  Uiso   1.00
C176   C     0.76301   0.04051   0.28949   0.00000  Uiso   1.00
C177   C     0.80798   0.19148   0.45528   0.00000  Uiso   1.00
C178   C     0.91052   0.15493   0.02472   0.00000  Uiso   1.00
C179   C     0.75951   0.19681   0.47800   0.00000  Uiso   1.00
C180   C     0.97767   0.02151   0.22166   0.00000  Uiso   1.00
C181   C     0.68828   0.31179   0.27966   0.00000  Uiso   1.00
C182   C     0.97946   0.31184   0.22044   0.00000  Uiso   1.00
Cu183  Cu    0.71355   0.16667   0.25000   0.00000  Uiso   1.00
Cu184  Cu    0.95311   0.16666   0.25000   0.00000  Uiso   1.00
H185   H     0.93612   0.14688   0.04364   0.00000  Uiso   1.00
H186   H     0.81735   0.20001   0.42043   0.00000  Uiso   1.00
H187   H     0.85959   0.12987   0.30872   0.00000  Uiso   1.00
H188   H     0.80699   0.20367   0.19143   0.00000  Uiso   1.00
H189   H     0.77264   0.13087   0.30923   0.00000  Uiso   1.00
H190   H     0.89379   0.20364   0.19150   0.00000  Uiso   1.00
H191   H     0.97063   0.03715   0.16020   0.00000  Uiso   1.00
H192   H     0.91762   0.03362   0.20084   0.00000  Uiso   1.00
H193   H     0.67722   0.27175   0.33212   0.00000  Uiso   1.00
H194   H     0.73523   0.27293   0.29867   0.00000  Uiso   1.00
H195   H     0.97679   0.26728   0.12824   0.00000  Uiso   1.00
H196   H     0.73453   0.20799   0.45971   0.00000  Uiso   1.00
H197   H     0.68733   0.25839   0.15917   0.00000  Uiso   1.00
H198   H     0.68097   0.30912   0.13617   0.00000  Uiso   1.00
H199   H     0.77959   0.05696   0.31295   0.00000  Uiso   1.00
H200   H     0.77564   0.05567   0.25613   0.00000  Uiso   1.00
H201   H     0.77670   0.00833   0.28743   0.00000  Uiso   1.00
H202   H     0.78063   0.15174   0.11214   0.00000  Uiso   1.00
H203   H     0.88462   0.17853   0.38694   0.00000  Uiso   1.00
H204   H     0.97227   0.19009   0.10792   0.00000  Uiso   1.00
H205   H     0.69559   0.15095   0.39326   0.00000  Uiso   1.00
H206   H     0.66764   0.14478   0.47462   0.00000  Uiso   1.00
H207   H     0.66860   0.20457   0.02781   0.00000  Uiso   1.00
H208   H     0.85371   0.15626   0.08312   0.00000  Uiso   1.00
N209   N     0.78403   0.16668   0.24999   0.00000  Uiso   1.00
N210   N     0.88264   0.16666   0.25001   0.00000  Uiso   1.00
N211   N     0.95359   0.04379   0.19365   0.00000  Uiso   1.00
N212   N     0.70494   0.29086   0.31373   0.00000  Uiso   1.00
O213   O     0.70625   0.10655   0.25000   0.00000  Uiso   1.00
O214   O     0.71194   0.04263   0.30608   0.00000  Uiso   1.00
O215   O     0.96042   0.22678   0.25000   0.00000  Uiso   1.00
O216   O     0.96039   0.10654   0.25000   0.00000  Uiso   1.00
O217   O     0.70628   0.22679   0.24999   0.00000  Uiso   1.00
O218   O     0.68519   0.16668   0.31491   0.00000  Uiso   1.00
O219   O     0.98148   0.16666   0.18508   0.00000  Uiso   1.00
O220   O     0.93933   0.16667   0.31492   0.00000  Uiso   1.00
O221   O     0.72733   0.16667   0.18508   0.00000  Uiso   1.00
O222   O     0.95815   0.29097   0.19179   0.00000  Uiso   1.00
C223   C     0.00006   0.42075   0.25008   0.00000  Uiso   1.00
C224   C     0.02433   0.35468   0.27740   0.00000  Uiso   1.00
C225   C     0.00026   0.62374   0.25031   0.00000  Uiso   1.00
C226   C     0.00055   0.37609   0.24977   0.00000  Uiso   1.00
C227   C     0.18195   0.47968   0.28263   0.00000  Uiso   1.00
C228   C     0.15135   0.52045   0.21745   0.00000  Uiso   1.00
C229   C     0.13234   0.47997   0.28279   0.00000  Uiso   1.00
C230   C     0.20092   0.52047   0.21748   0.00000  Uiso   1.00
C231   C     0.30609   0.49986   0.33606   0.00000  Uiso   1.00
C232   C     0.02725   0.50035   0.16396   0.00000  Uiso   1.00
C233   C     0.29115   0.49902   0.38515   0.00000  Uiso   1.00
C234   C     0.33319   0.57917   0.25057   0.00000  Uiso   1.00
C235   C     0.04241   0.50430   0.11507   0.00000  Uiso   1.00
C236   C     0.30836   0.48648   0.45621   0.00000  Uiso   1.00
C237   C     0.02721   0.52648   0.04561   0.00000  Uiso   1.00
C238   C     0.32433   0.48991   0.40983   0.00000  Uiso   1.00
C239   C     0.01019   0.51805   0.09118   0.00000  Uiso   1.00
C240   C     0.24232   0.50595   0.40732   0.00000  Uiso   1.00
C241   C     0.09123   0.49772   0.09279   0.00000  Uiso   1.00
C242   C     0.22541   0.50370   0.45421   0.00000  Uiso   1.00
C243   C     0.10973   0.50721   0.04711   0.00000  Uiso   1.00
C244   C     0.25927   0.49293   0.47849   0.00000  Uiso   1.00
C245   C     0.19531   0.49317   0.04735   0.00000  Uiso   1.00
C246   C     0.07654   0.52118   0.02344   0.00000  Uiso   1.00
C247   C     0.17571   0.51051   0.47741   0.00000  Uiso   1.00
C248   C     0.16004   0.50328   0.02445   0.00000  Uiso   1.00
C249   C     0.32779   0.61458   0.15241   0.00000  Uiso   1.00
C250   C     0.09634   0.37384   0.28949   0.00000  Uiso   1.00
C251   C     0.14132   0.52481   0.45528   0.00000  Uiso   1.00
C252   C     0.24386   0.48827   0.02472   0.00000  Uiso   1.00
C253   C     0.09285   0.53014   0.47800   0.00000  Uiso   1.00
C254   C     0.31100   0.35484   0.22166   0.00000  Uiso   1.00
C255   C     0.02161   0.64512   0.27966   0.00000  Uiso   1.00
C256   C     0.31279   0.64518   0.22044   0.00000  Uiso   1.00
Cu257  Cu    0.04689   0.50001   0.25000   0.00000  Uiso   1.00
Cu258  Cu    0.28645   0.49999   0.25000   0.00000  Uiso   1.00
H259   H     0.26946   0.48022   0.04364   0.00000  Uiso   1.00
H260   H     0.15068   0.53335   0.42043   0.00000  Uiso   1.00
H261   H     0.19292   0.46320   0.30872   0.00000  Uiso   1.00
H262   H     0.14032   0.53701   0.19143   0.00000  Uiso   1.00
H263   H     0.10597   0.46420   0.30923   0.00000  Uiso   1.00
H264   H     0.22713   0.53697   0.19150   0.00000  Uiso   1.00
H265   H     0.30396   0.37048   0.16020   0.00000  Uiso   1.00
H266   H     0.25095   0.36695   0.20084   0.00000  Uiso   1.00
H267   H     0.01055   0.60508   0.33212   0.00000  Uiso   1.00
H268   H     0.06856   0.60626   0.29867   0.00000  Uiso   1.00
H269   H     0.31012   0.60062   0.12824   0.00000  Uiso   1.00
H270   H     0.06786   0.54133   0.45971   0.00000  Uiso   1.00
H271   H     0.02066   0.59172   0.15917   0.00000  Uiso   1.00
H272   H     0.01431   0.64245   0.13617   0.00000  Uiso   1.00
H273   H     0.11292   0.39029   0.31295   0.00000  Uiso   1.00
H274   H     0.10897   0.38900   0.25613   0.00000  Uiso   1.00
H275   H     0.11003   0.34166   0.28743   0.00000  Uiso   1.00
H276   H     0.11396   0.48507   0.11214   0.00000  Uiso   1.00
H277   H     0.21795   0.51186   0.38694   0.00000  Uiso   1.00
H278   H     0.30560   0.52343   0.10792   0.00000  Uiso   1.00
H279   H     0.02892   0.48428   0.39326   0.00000  Uiso   1.00
H280   H     0.00098   0.47811   0.47462   0.00000  Uiso   1.00
H281   H     0.00194   0.53790   0.02781   0.00000  Uiso   1.00
H282   H     0.18705   0.48959   0.08312   0.00000  Uiso   1.00
N283   N     0.11736   0.50001   0.24999   0.00000  Uiso   1.00
N284   N     0.21597   0.49999   0.25001   0.00000  Uiso   1.00
N285   N     0.28693   0.37713   0.19365   0.00000  Uiso   1.00
N286   N     0.03827   0.62419   0.31373   0.00000  Uiso   1.00
O287   O     0.03958   0.43989   0.25000   0.00000  Uiso   1.00
O288   O     0.04527   0.37597   0.30608   0.00000  Uiso   1.00
O289   O     0.29375   0.56011   0.25000   0.00000  Uiso   1.00
O290   O     0.29372   0.43988   0.25000   0.00000  Uiso   1.00
O291   O     0.03961   0.56012   0.24999   0.00000  Uiso   1.00
O292   O     0.01852   0.50001   0.31491   0.00000  Uiso   1.00
O293   O     0.31481   0.49999   0.18508   0.00000  Uiso   1.00
O294   O     0.27267   0.50000   0.31492   0.00000  Uiso   1.00
O295   O     0.06067   0.50000   0.18508   0.00000  Uiso   1.00
O296   O     0.29148   0.62431   0.19179   0.00000  Uiso   1.00
C297   C     0.33339   0.42075   0.25008   0.00000  Uiso   1.00
C298   C     0.35767   0.35468   0.27740   0.00000  Uiso   1.00
C299   C     0.33359   0.62374   0.25031   0.00000  Uiso   1.00
C300   C     0.33389   0.37609   0.24977   0.00000  Uiso   1.00
C301   C     0.51528   0.47968   0.28263   0.00000  Uiso   1.00
C302   C     0.48468   0.52045   0.21745   0.00000  Uiso   1.00
C303   C     0.46567   0.47997   0.28279   0.00000  Uiso   1.00
C304   C     0.53425   0.52047   0.21748   0.00000  Uiso   1.00
C305   C     0.63943   0.49986   0.33606   0.00000  Uiso   1.00
C306   C     0.36058   0.50035   0.16396   0.00000  Uiso   1.00
C307   C     0.62449   0.49902   0.38515   0.00000  Uiso   1.00
C308   C     0.66652   0.57917   0.25057   0.00000  Uiso   1.00
C309   C     0.37574   0.50430   0.11507   0.00000  Uiso   1.00
C310   C     0.64170   0.48648   0.45621   0.00000  Uiso   1.00
C311   C     0.36054   0.52648   0.04561   0.00000  Uiso   1.00
C312   C     0.65766   0.48991   0.40983   0.00000  Uiso   1.00
C313   C     0.34353   0.51805   0.09118   0.00000  Uiso   1.00
C314   C     0.57566   0.50595   0.40732   0.00000  Uiso   1.00
C315   C     0.42456   0.49772   0.09279   0.00000  Uiso   1.00
C316   C     0.55874   0.50370   0.45421   0.00000  Uiso   1.00
C317   C     0.44306   0.50721   0.04711   0.00000  Uiso   1.00
C318   C     0.59261   0.49293   0.47849   0.00000  Uiso   1.00
C319   C     0.52864   0.49317   0.04735   0.00000  Uiso   1.00
C320   C     0.40987   0.52118   0.02344   0.00000  Uiso   1.00
C321   C     0.50904   0.51051   0.47741   0.00000  Uiso   1.00
C322   C     0.49337   0.50328   0.02445   0.00000  Uiso   1.00
C323   C     0.66112   0.61458   0.15241   0.00000  Uiso   1.00
C324   C     0.42967   0.37384   0.28949   0.00000  Uiso   1.00
C325   C     0.47465   0.52481   0.45528   0.00000  Uiso   1.00
C326   C     0.57719   0.48827   0.02472   0.00000  Uiso   1.00
C327   C     0.42618   0.53014   0.47800   0.00000  Uiso   1.00
C328   C     0.64433   0.35484   0.22166   0.00000  Uiso   1.00
C329   C     0.35494   0.64512   0.27966   0.00000  Uiso   1.00
C330   C     0.64613   0.64518   0.22044   0.00000  Uiso   1.00
Cu331  Cu    0.38022   0.50001   0.25000   0.00000  Uiso   1.00
Cu332  Cu    0.61978   0.49999   0.25000   0.00000  Uiso   1.00
H333   H     0.60279   0.48022   0.04364   0.00000  Uiso   1.00
H334   H     0.48402   0.53335   0.42043   0.00000  Uiso   1.00
H335   H     0.52626   0.46320   0.30872   0.00000  Uiso   1.00
H336   H     0.47366   0.53701   0.19143   0.00000  Uiso   1.00
H337   H     0.43930   0.46420   0.30923   0.00000  Uiso   1.00
H338   H     0.56046   0.53697   0.19150   0.00000  Uiso   1.00
H339   H     0.63730   0.37048   0.16020   0.00000  Uiso   1.00
H340   H     0.58428   0.36695   0.20084   0.00000  Uiso   1.00
H341   H     0.34388   0.60508   0.33212   0.00000  Uiso   1.00
H342   H     0.40190   0.60626   0.29867   0.00000  Uiso   1.00
H343   H     0.64346   0.60062   0.12824   0.00000  Uiso   1.00
H344   H     0.40120   0.54133   0.45971   0.00000  Uiso   1.00
H345   H     0.35399   0.59172   0.15917   0.00000  Uiso   1.00
H346   H     0.34764   0.64245   0.13617   0.00000  Uiso   1.00
H347   H     0.44626   0.39029   0.31295   0.00000  Uiso   1.00
H348   H     0.44231   0.38900   0.25613   0.00000  Uiso   1.00
H349   H     0.44337   0.34166   0.28743   0.00000  Uiso   1.00
H350   H     0.44730   0.48507   0.11214   0.00000  Uiso   1.00
H351   H     0.55128   0.51186   0.38694   0.00000  Uiso   1.00
H352   H     0.63893   0.52343   0.10792   0.00000  Uiso   1.00
H353   H     0.36225   0.48428   0.39326   0.00000  Uiso   1.00
H354   H     0.33431   0.47811   0.47462   0.00000  Uiso   1.00
H355   H     0.33527   0.53790   0.02781   0.00000  Uiso   1.00
H356   H     0.52038   0.48959   0.08312   0.00000  Uiso   1.00
N357   N     0.45069   0.50001   0.24999   0.00000  Uiso   1.00
N358   N     0.54931   0.49999   0.25001   0.00000  Uiso   1.00
N359   N     0.62026   0.37713   0.19365   0.00000  Uiso   1.00
N360   N     0.37160   0.62419   0.31373   0.00000  Uiso   1.00
O361   O     0.37291   0.43989   0.25000   0.00000  Uiso   1.00
O362   O     0.37860   0.37597   0.30608   0.00000  Uiso   1.00
O363   O     0.62709   0.56011   0.25000   0.00000  Uiso   1.00
O364   O     0.62706   0.43988   0.25000   0.00000  Uiso   1.00
O365   O     0.37294   0.56012   0.24999   0.00000  Uiso   1.00
O366   O     0.35186   0.50001   0.31491   0.00000  Uiso   1.00
O367   O     0.64814   0.49999   0.18508   0.00000  Uiso   1.00
O368   O     0.60600   0.50000   0.31492   0.00000  Uiso   1.00
O369   O     0.39400   0.50000   0.18508   0.00000  Uiso   1.00
O370   O     0.62482   0.62431   0.19179   0.00000  Uiso   1.00
C371   C     0.66673   0.42075   0.25008   0.00000  Uiso   1.00
C372   C     0.69100   0.35468   0.27740   0.00000  Uiso   1.00
C373   C     0.66692   0.62374   0.25031   0.00000  Uiso   1.00
C374   C     0.66722   0.37609   0.24977   0.00000  Uiso   1.00
C375   C     0.84862   0.47968   0.28263   0.00000  Uiso   1.00
C376   C     0.81802   0.52045   0.21745   0.00000  Uiso   1.00
C377   C     0.79900   0.47997   0.28279   0.00000  Uiso   1.00
C378   C     0.86759   0.52047   0.21748   0.00000  Uiso   1.00
C379   C     0.97276   0.49986   0.33606   0.00000  Uiso   1.00
C380   C     0.69391   0.50035   0.16396   0.00000  Uiso   1.00
C381   C     0.95782   0.49902   0.38515   0.00000  Uiso   1.00
C382   C     0.99986   0.57917   0.25057   0.00000  Uiso   1.00
C383   C     0.70907   0.50430   0.11507   0.00000  Uiso   1.00
C384   C     0.97503   0.48648   0.45621   0.00000  Uiso   1.00
C385   C     0.69388   0.52648   0.04561   0.00000  Uiso   1.00
C386   C     0.99100   0.48991   0.40983   0.00000  Uiso   1.00
C387   C     0.67686   0.51805   0.09118   0.00000  Uiso   1.00
C388   C     0.90899   0.50595   0.40732   0.00000  Uiso   1.00
C389   C     0.75790   0.49772   0.09279   0.00000  Uiso   1.00
C390   C     0.89208   0.50370   0.45421   0.00000  Uiso   1.00
C391   C     0.77640   0.50721   0.04711   0.00000  Uiso   1.00
C392   C     0.92594   0.49293   0.47849   0.00000  Uiso   1.00
C393   C     0.86198   0.49317   0.04735   0.00000  Uiso   1.00
C394   C     0.74320   0.52118   0.02344   0.00000  Uiso   1.00
C395   C     0.84237   0.51051   0.47741   0.00000  Uiso   1.00
C396   C     0.82670   0.50328   0.02445   0.00000  Uiso   1.00
C397   C     0.99446   0.61458   0.15241   0.00000  Uiso   1.00
C398   C     0.76301   0.37384   0.28949   0.00000  Uiso   1.00
C399   C     0.80798   0.52481   0.45528   0.00000  Uiso   1.00
C400   C     0.91052   0.48827   0.02472   0.00000  Uiso   1.00
C401   C     0.75951   0.53014   0.47800   0.00000  Uiso   1.00
C402   C     0.97767   0.35484   0.22166   0.00000  Uiso   1.00
C403   C     0.68828   0.64512   0.27966   0.00000  Uiso   1.00
C404   C     0.97946   0.64518   0.22044   0.00000  Uiso   1.00
Cu405  Cu    0.71355   0.50001   0.25000   0.00000  Uiso   1.00
Cu406  Cu    0.95311   0.49999   0.25000   0.00000  Uiso   1.00
H407   H     0.93612   0.48022   0.04364   0.00000  Uiso   1.00
H408   H     0.81735   0.53335   0.42043   0.00000  Uiso   1.00
H409   H     0.85959   0.46320   0.30872   0.00000  Uiso   1.00
H410   H     0.80699   0.53701   0.19143   0.00000  Uiso   1.00
H411   H     0.77264   0.46420   0.30923   0.00000  Uiso   1.00
H412   H     0.89379   0.53697   0.19150   0.00000  Uiso   1.00
H413   H     0.97063   0.37048   0.16020   0.00000  Uiso   1.00
H414   H     0.91762   0.36695   0.20084   0.00000  Uiso   1.00
H415   H     0.67722   0.60508   0.33212   0.00000  Uiso   1.00
H416   H     0.73523   0.60626   0.29867   0.00000  Uiso   1.00
H417   H     0.97679   0.60062   0.12824   0.00000  Uiso   1.00
H418   H     0.73453   0.54133   0.45971   0.00000  Uiso   1.00
H419   H     0.68733   0.59172   0.15917   0.00000  Uiso   1.00
H420   H     0.68097   0.64245   0.13617   0.00000  Uiso   1.00
H421   H     0.77959   0.39029   0.31295   0.00000  Uiso   1.00
H422   H     0.77564   0.38900   0.25613   0.00000  Uiso   1.00
H423   H     0.77670   0.34166   0.28743   0.00000  Uiso   1.00
H424   H     0.78063   0.48507   0.11214   0.00000  Uiso   1.00
H425   H     0.88462   0.51186   0.38694   0.00000  Uiso   1.00
H426   H     0.97227   0.52343   0.10792   0.00000  Uiso   1.00
H427   H     0.69559   0.48428   0.39326   0.00000  Uiso   1.00
H428   H     0.66764   0.47811   0.47462   0.00000  Uiso   1.00
H429   H     0.66860   0.53790   0.02781   0.00000  Uiso   1.00
H430   H     0.85371   0.48959   0.08312   0.00000  Uiso   1.00
N431   N     0.78403   0.50001   0.24999   0.00000  Uiso   1.00
N432   N     0.88264   0.49999   0.25001   0.00000  Uiso   1.00
N433   N     0.95359   0.37713   0.19365   0.00000  Uiso   1.00
N434   N     0.70494   0.62419   0.31373   0.00000  Uiso   1.00
O435   O     0.70625   0.43989   0.25000   0.00000  Uiso   1.00
O436   O     0.71194   0.37597   0.30608   0.00000  Uiso   1.00
O437   O     0.96042   0.56011   0.25000   0.00000  Uiso   1.00
O438   O     0.96039   0.43988   0.25000   0.00000  Uiso   1.00
O439   O     0.70628   0.56012   0.24999   0.00000  Uiso   1.00
O440   O     0.68519   0.50001   0.31491   0.00000  Uiso   1.00
O441   O     0.98148   0.49999   0.18508   0.00000  Uiso   1.00
O442   O     0.93933   0.50000   0.31492   0.00000  Uiso   1.00
O443   O     0.72733   0.50000   0.18508   0.00000  Uiso   1.00
O444   O     0.95815   0.62431   0.19179   0.00000  Uiso   1.00
C445   C     0.00006   0.75409   0.25008   0.00000  Uiso   1.00
C446   C     0.02433   0.68801   0.27740   0.00000  Uiso   1.00
C447   C     0.00026   0.95707   0.25031   0.00000  Uiso   1.00
C448   C     0.00055   0.70942   0.24977   0.00000  Uiso   1.00
C449   C     0.18195   0.81302   0.28263   0.00000  Uiso   1.00
C450   C     0.15135   0.85378   0.21745   0.00000  Uiso   1.00
C451   C     0.13234   0.81331   0.28279   0.00000  Uiso   1.00
C452   C     0.20092   0.85380   0.21748   0.00000  Uiso   1.00
C453   C     0.30609   0.83319   0.33606   0.00000  Uiso   1.00
C454   C     0.02725   0.83368   0.16396   0.00000  Uiso   1.00
C455   C     0.29115   0.83236   0.38515   0.00000  Uiso   1.00
C456   C     0.33319   0.91251   0.25057   0.00000  Uiso   1.00
C457   C     0.04241   0.83763   0.11507   0.00000  Uiso   1.00
C458   C     0.30836   0.81981   0.45621   0.00000  Uiso   1.00
C459   C     0.02721   0.85981   0.04561   0.00000  Uiso   1.00
C460   C     0.32433   0.82324   0.40983   0.00000  Uiso   1.00
C461   C     0.01019   0.85138   0.09118   0.00000  Uiso   1.00
C462   C     0.24232   0.83928   0.40732   0.00000  Uiso   1.00
C463   C     0.09123   0.83105   0.09279   0.00000  Uiso   1.00
C464   C     0.22541   0.83704   0.45421   0.00000  Uiso   1.00
C465   C     0.10973   0.84054   0.04711   0.00000  Uiso   1.00
C466   C     0.25927   0.82626   0.47849   0.00000  Uiso   1.00
C467   C     0.19531   0.82651   0.04735   0.00000  Uiso   1.00
C468   C     0.07654   0.85451   0.02344   0.00000  Uiso   1.00
C469   C     0.17571   0.84385   0.47741   0.00000  Uiso   1.00
C470   C     0.16004   0.83662   0.02445   0.00000  Uiso   1.00
C471   C     0.32779   0.94791   0.15241   0.00000  Uiso   1.00
C472   C     0.09634   0.70717   0.28949   0.00000  Uiso   1.00
C473   C     0.14132   0.85815   0.45528   0.00000  Uiso   1.00
C474   C     0.24386   0.82160   0.02472   0.00000  Uiso   1.00
C475   C     0.09285   0.86347   0.47800   0.00000  Uiso   1.00
C476   C     0.31100   0.68818   0.22166   0.00000  Uiso   1.00
C477   C     0.02161   0.97845   0.27966   0.00000  Uiso   1.00
C478   C     0.31279   0.97851   0.22044   0.00000  Uiso   1.00
Cu479  Cu    0.04689   0.83334   0.25000   0.00000  Uiso   1.00
Cu480  Cu    0.28645   0.83333   0.25000   0.00000  Uiso   1.00
H481   H     0.26946   0.81355   0.04364   0.00000  Uiso   1.00
H482   H     0.15068   0.86668   0.42043   0.00000  Uiso   1.00
H483   H     0.19292   0.79654   0.30872   0.00000  Uiso   1.00
H484   H     0.14032   0.87034   0.19143   0.00000  Uiso   1.00
H485   H     0.10597   0.79753   0.30923   0.00000  Uiso   1.00
H486   H     0.22713   0.87031   0.19150   0.00000  Uiso   1.00
H487   H     0.30396   0.70382   0.16020   0.00000  Uiso   1.00
H488   H     0.25095   0.70028   0.20084   0.00000  Uiso   1.00
H489   H     0.01055   0.93841   0.33212   0.00000  Uiso   1.00
H490   H     0.06856   0.93960   0.29867   0.00000  Uiso   1.00
H491   H     0.31012   0.93395   0.12824   0.00000  Uiso   1.00
H492   H     0.06786   0.87466   0.45971   0.00000  Uiso   1.00
H493   H     0.02066   0.92506   0.15917   0.00000  Uiso   1.00
H494   H     0.01431   0.97579   0.13617   0.00000  Uiso   1.00
H495   H     0.11292   0.72362   0.31295   0.00000  Uiso   1.00
H496   H     0.10897   0.72234   0.25613   0.00000  Uiso   1.00
H497   H     0.11003   0.67500   0.28743   0.00000  Uiso   1.00
H498   H     0.11396   0.81840   0.11214   0.00000  Uiso   1.00
H499   H     0.21795   0.84519   0.38694   0.00000  Uiso   1.00
H500   H     0.30560   0.85676   0.10792   0.00000  Uiso   1.00
H501   H     0.02892   0.81762   0.39326   0.00000  Uiso   1.00
H502   H     0.00098   0.81145   0.47462   0.00000  Uiso   1.00
H503   H     0.00194   0.87124   0.02781   0.00000  Uiso   1.00
H504   H     0.18705   0.82292   0.08312   0.00000  Uiso   1.00
N505   N     0.11736   0.83334   0.24999   0.00000  Uiso   1.00
N506   N     0.21597   0.83332   0.25001   0.00000  Uiso   1.00
N507   N     0.28693   0.71046   0.19365   0.00000  Uiso   1.00
N508   N     0.03827   0.95753   0.31373   0.00000  Uiso   1.00
O509   O     0.03958   0.77322   0.25000   0.00000  Uiso   1.00
O510   O     0.04527   0.70930   0.30608   0.00000  Uiso   1.00
O511   O     0.29375   0.89345   0.25000   0.00000  Uiso   1.00
O512   O     0.29372   0.77321   0.25000   0.00000  Uiso   1.00
O513   O     0.03961   0.89346   0.24999   0.00000  Uiso   1.00
O514   O     0.01852   0.83334   0.31491   0.00000  Uiso   1.00
O515   O     0.31481   0.83332   0.18508   0.00000  Uiso   1.00
O516   O     0.27267   0.83333   0.31492   0.00000  Uiso   1.00
O517   O     0.06067   0.83333   0.18508   0.00000  Uiso   1.00
O518   O     0.29148   0.95764   0.19179   0.00000  Uiso   1.00
C519   C     0.33339   0.75409   0.25008   0.00000  Uiso   1.00
C520   C     0.35767   0.68801   0.27740   0.00000  Uiso   1.00
C521   C     0.33359   0.95707   0.25031   0.00000  Uiso   1.00
C522   C     0.33389   0.70942   0.24977   0.00000  Uiso   1.00
C523   C     0.51528   0.81302   0.28263   0.00000  Uiso   1.00
C524   C     0.48468   0.85378   0.21745   0.00000  Uiso   1.00
C525   C     0.46567   0.81331   0.28279   0.00000  Uiso   1.00
C526   C     0.53425   0.85380   0.21748   0.00000  Uiso   1.00
C527   C     0.63943   0.83319   0.33606   0.00000  Uiso   1.00
C528   C     0.36058   0.83368   0.16396   0.00000  Uiso   1.00
C529   C     0.62449   0.83236   0.38515   0.00000  Uiso   1.00
C530   C     0.66652   0.91251   0.25057   0.00000  Uiso   1.00
C531   C     0.37574   0.83763   0.11507   0.00000  Uiso   1.00
C532   C     0.64170   0.81981   0.45621   0.00000  Uiso   1.00
C533   C     0.36054   0.85981   0.04561   0.00000  Uiso   1.00
C534   C     0.65766   0.82324   0.40983   0.00000  Uiso   1.00
C535   C     0.34353   0.85138   0.09118   0.00000  Uiso   1.00
C536   C     0.57566   0.83928   0.40732   0.00000  Uiso   1.00
C537   C     0.42456   0.83105   0.09279   0.00000  Uiso   1.00
C538   C     0.55874   0.83704   0.45421   0.00000  Uiso   1.00
C539   C     0.44306   0.84054   0.04711   0.00000  Uiso   1.00
C540   C     0.59261   0.82626   0.47849   0.00000  Uiso   1.00
C541   C     0.52864   0.82651   0.04735   0.00000  Uiso   1.00
C542   C     0.40987   0.85451   0.02344   0.00000  Uiso   1.00
C543   C     0.50904   0.84385   0.47741   0.00000  Uiso   1.00
C544   C     0.49337   0.83662   0.02445   0.00000  Uiso   1.00
C545   C     0.66112   0.94791   0.15241   0.00000  Uiso   1.00
C546   C     0.42967   0.70717   0.28949   0.00000  Uiso   1.00
C547   C     0.47465   0.85815   0.45528   0.00000  Uiso   1.00
C548   C     0.57719   0.82160   0.02472   0.00000  Uiso   1.00
C549   C     0.42618   0.86347   0.47800   0.00000  Uiso   1.00
C550   C     0.64433   0.68818   0.22166   0.00000  Uiso   1.00
C551   C     0.35494   0.97845   0.27966   0.00000  Uiso   1.00
C552   C     0.64613   0.97851   0.22044   0.00000  Uiso   1.00
Cu553  Cu    0.38022   0.83334   0.25000   0.00000  Uiso   1.00
Cu554  Cu    0.61978   0.83333   0.25000   0.00000  Uiso   1.00
H555   H     0.60279   0.81355   0.04364   0.00000  Uiso   1.00
H556   H     0.48402   0.86668   0.42043   0.00000  Uiso   1.00
H557   H     0.52626   0.79654   0.30872   0.00000  Uiso   1.00
H558   H     0.47366   0.87034   0.19143   0.00000  Uiso   1.00
H559   H     0.43930   0.79753   0.30923   0.00000  Uiso   1.00
H560   H     0.56046   0.87031   0.19150   0.00000  Uiso   1.00
H561   H     0.63730   0.70382   0.16020   0.00000  Uiso   1.00
H562   H     0.58428   0.70028   0.20084   0.00000  Uiso   1.00
H563   H     0.34388   0.93841   0.33212   0.00000  Uiso   1.00
H564   H     0.40190   0.93960   0.29867   0.00000  Uiso   1.00
H565   H     0.64346   0.93395   0.12824   0.00000  Uiso   1.00
H566   H     0.40120   0.87466   0.45971   0.00000  Uiso   1.00
H567   H     0.35399   0.92506   0.15917   0.00000  Uiso   1.00
H568   H     0.34764   0.97579   0.13617   0.00000  Uiso   1.00
H569   H     0.44626   0.72362   0.31295   0.00000  Uiso   1.00
H570   H     0.44231   0.72234   0.25613   0.00000  Uiso   1.00
H571   H     0.44337   0.67500   0.28743   0.00000  Uiso   1.00
H572   H     0.44730   0.81840   0.11214   0.00000  Uiso   1.00
H573   H     0.55128   0.84519   0.38694   0.00000  Uiso   1.00
H574   H     0.63893   0.85676   0.10792   0.00000  Uiso   1.00
H575   H     0.36225   0.81762   0.39326   0.00000  Uiso   1.00
H576   H     0.33431   0.81145   0.47462   0.00000  Uiso   1.00
H577   H     0.33527   0.87124   0.02781   0.00000  Uiso   1.00
H578   H     0.52038   0.82292   0.08312   0.00000  Uiso   1.00
N579   N     0.45069   0.83334   0.24999   0.00000  Uiso   1.00
N580   N     0.54931   0.83332   0.25001   0.00000  Uiso   1.00
N581   N     0.62026   0.71046   0.19365   0.00000  Uiso   1.00
N582   N     0.37160   0.95753   0.31373   0.00000  Uiso   1.00
O583   O     0.37291   0.77322   0.25000   0.00000  Uiso   1.00
O584   O     0.37860   0.70930   0.30608   0.00000  Uiso   1.00
O585   O     0.62709   0.89345   0.25000   0.00000  Uiso   1.00
O586   O     0.62706   0.77321   0.25000   0.00000  Uiso   1.00
O587   O     0.37294   0.89346   0.24999   0.00000  Uiso   1.00
O588   O     0.35186   0.83334   0.31491   0.00000  Uiso   1.00
O589   O     0.64814   0.83332   0.18508   0.00000  Uiso   1.00
O590   O     0.60600   0.83333   0.31492   0.00000  Uiso   1.00
O591   O     0.39400   0.83333   0.18508   0.00000  Uiso   1.00
O592   O     0.62482   0.95764   0.19179   0.00000  Uiso   1.00
C593   C     0.66673   0.75409   0.25008   0.00000  Uiso   1.00
C594   C     0.69100   0.68801   0.27740   0.00000  Uiso   1.00
C595   C     0.66692   0.95707   0.25031   0.00000  Uiso   1.00
C596   C     0.66722   0.70942   0.24977   0.00000  Uiso   1.00
C597   C     0.84862   0.81302   0.28263   0.00000  Uiso   1.00
C598   C     0.81802   0.85378   0.21745   0.00000  Uiso   1.00
C599   C     0.79900   0.81331   0.28279   0.00000  Uiso   1.00
C600   C     0.86759   0.85380   0.21748   0.00000  Uiso   1.00
C601   C     0.97276   0.83319   0.33606   0.00000  Uiso   1.00
C602   C     0.69391   0.83368   0.16396   0.00000  Uiso   1.00
C603   C     0.95782   0.83236   0.38515   0.00000  Uiso   1.00
C604   C     0.99986   0.91251   0.25057   0.00000  Uiso   1.00
C605   C     0.70907   0.83763   0.11507   0.00000  Uiso   1.00
C606   C     0.97503   0.81981   0.45621   0.00000  Uiso   1.00
C607   C     0.69388   0.85981   0.04561   0.00000  Uiso   1.00
C608   C     0.99100   0.82324   0.40983   0.00000  Uiso   1.00
C609   C     0.67686   0.85138   0.09118   0.00000  Uiso   1.00
C610   C     0.90899   0.83928   0.40732   0.00000  Uiso   1.00
C611   C     0.75790   0.83105   0.09279   0.00000  Uiso   1.00
C612   C     0.89208   0.83704   0.45421   0.00000  Uiso   1.00
C613   C     0.77640   0.84054   0.04711   0.00000  Uiso   1.00
C614   C     0.92594   0.82626   0.47849   0.00000  Uiso   1.00
C615   C     0.86198   0.82651   0.04735   0.00000  Uiso   1.00
C616   C     0.74320   0.85451   0.02344   0.00000  Uiso   1.00
C617   C     0.84237   0.84385   0.47741   0.00000  Uiso   1.00
C618   C     0.82670   0.83662   0.02445   0.00000  Uiso   1.00
C619   C     0.99446   0.94791   0.15241   0.00000  Uiso   1.00
C620   C     0.76301   0.70717   0.28949   0.00000  Uiso   1.00
C621   C     0.80798   0.85815   0.45528   0.00000  Uiso   1.00
C622   C     0.91052   0.82160   0.02472   0.00000  Uiso   1.00
C623   C     0.75951   0.86347   0.47800   0.00000  Uiso   1.00
C624   C     0.97767   0.68818   0.22166   0.00000  Uiso   1.00
C625   C     0.68828   0.97845   0.27966   0.00000  Uiso   1.00
C626   C     0.97946   0.97851   0.22044   0.00000  Uiso   1.00
Cu627  Cu    0.71355   0.83334   0.25000   0.00000  Uiso   1.00
Cu628  Cu    0.95311   0.83333   0.25000   0.00000  Uiso   1.00
H629   H     0.93612   0.81355   0.04364   0.00000  Uiso   1.00
H630   H     0.81735   0.86668   0.42043   0.00000  Uiso   1.00
H631   H     0.85959   0.79654   0.30872   0.00000  Uiso   1.00
H632   H     0.80699   0.87034   0.19143   0.00000  Uiso   1.00
H633   H     0.77264   0.79753   0.30923   0.00000  Uiso   1.00
H634   H     0.89379   0.87031   0.19150   0.00000  Uiso   1.00
H635   H     0.97063   0.70382   0.16020   0.00000  Uiso   1.00
H636   H     0.91762   0.70028   0.20084   0.00000  Uiso   1.00
H637   H     0.67722   0.93841   0.33212   0.00000  Uiso   1.00
H638   H     0.73523   0.93960   0.29867   0.00000  Uiso   1.00
H639   H     0.97679   0.93395   0.12824   0.00000  Uiso   1.00
H640   H     0.73453   0.87466   0.45971   0.00000  Uiso   1.00
H641   H     0.68733   0.92506   0.15917   0.00000  Uiso   1.00
H642   H     0.68097   0.97579   0.13617   0.00000  Uiso   1.00
H643   H     0.77959   0.72362   0.31295   0.00000  Uiso   1.00
H644   H     0.77564   0.72234   0.25613   0.00000  Uiso   1.00
H645   H     0.77670   0.67500   0.28743   0.00000  Uiso   1.00
H646   H     0.78063   0.81840   0.11214   0.00000  Uiso   1.00
H647   H     0.88462   0.84519   0.38694   0.00000  Uiso   1.00
H648   H     0.97227   0.85676   0.10792   0.00000  Uiso   1.00
H649   H     0.69559   0.81762   0.39326   0.00000  Uiso   1.00
H650   H     0.66764   0.81145   0.47462   0.00000  Uiso   1.00
H651   H     0.66860   0.87124   0.02781   0.00000  Uiso   1.00
H652   H     0.85371   0.82292   0.08312   0.00000  Uiso   1.00
N653   N     0.78403   0.83334   0.24999   0.00000  Uiso   1.00
N654   N     0.88264   0.83332   0.25001   0.00000  Uiso   1.00
N655   N     0.95359   0.71046   0.19365   0.00000  Uiso   1.00
N656   N     0.70494   0.95753   0.31373   0.00000  Uiso   1.00
O657   O     0.70625   0.77322   0.25000   0.00000  Uiso   1.00
O658   O     0.71194   0.70930   0.30608   0.00000  Uiso   1.00
O659   O     0.96042   0.89345   0.25000   0.00000  Uiso   1.00
O660   O     0.96039   0.77321   0.25000   0.00000  Uiso   1.00
O661   O     0.70628   0.89346   0.24999   0.00000  Uiso   1.00
O662   O     0.68519   0.83334   0.31491   0.00000  Uiso   1.00
O663   O     0.98148   0.83332   0.18508   0.00000  Uiso   1.00
O664   O     0.93933   0.83333   0.31492   0.00000  Uiso   1.00
O665   O     0.72733   0.83333   0.18508   0.00000  Uiso   1.00
O666   O     0.95815   0.95764   0.19179   0.00000  Uiso   1.00
C667   C     0.00006   0.08742   0.75008   0.00000  Uiso   1.00
C668   C     0.02433   0.02135   0.77740   0.00000  Uiso   1.00
C669   C     0.00026   0.29041   0.75031   0.00000  Uiso   1.00
C670   C     0.00055   0.04276   0.74977   0.00000  Uiso   1.00
C671   C     0.18195   0.14635   0.78263   0.00000  Uiso   1.00
C672   C     0.15135   0.18711   0.71745   0.00000  Uiso   1.00
C673   C     0.13234   0.14664   0.78279   0.00000  Uiso   1.00
C674   C     0.20092   0.18713   0.71748   0.00000  Uiso   1.00
C675   C     0.30609   0.16653   0.83606   0.00000  Uiso   1.00
C676   C     0.02725   0.16701   0.66396   0.00000  Uiso   1.00
C677   C     0.29115   0.16569   0.88515   0.00000  Uiso   1.00
C678   C     0.33319   0.24584   0.75057   0.00000  Uiso   1.00
C679   C     0.04241   0.17096   0.61507   0.00000  Uiso   1.00
C680   C     0.30836   0.15315   0.95621   0.00000  Uiso   1.00
C681   C     0.02721   0.19315   0.54561   0.00000  Uiso   1.00
C682   C     0.32433   0.15657   0.90983   0.00000  Uiso   1.00
C683   C     0.01019   0.18471   0.59118   0.00000  Uiso   1.00
C684   C     0.24232   0.17262   0.90732   0.00000  Uiso   1.00
C685   C     0.09123   0.16438   0.59279   0.00000  Uiso   1.00
C686   C     0.22541   0.17037   0.95421   0.00000  Uiso   1.00
C687   C     0.10973   0.17387   0.54711   0.00000  Uiso   1.00
C688   C     0.25927   0.15959   0.97849   0.00000  Uiso   1.00
C689   C     0.19531   0.15984   0.54735   0.00000  Uiso   1.00
C690   C     0.07654   0.18785   0.52344   0.00000  Uiso   1.00
C691   C     0.17571   0.17718   0.97741   0.00000  Uiso   1.00
C692   C     0.16004   0.16995   0.52445   0.00000  Uiso   1.00
C693   C     0.32779   0.28124   0.65241   0.00000  Uiso   1.00
C694   C     0.09634   0.04051   0.78949   0.00000  Uiso   1.00
C695   C     0.14132   0.19148   0.95528   0.00000  Uiso   1.00
C696   C     0.24386   0.15493   0.52472   0.00000  Uiso   1.00
C697   C     0.09285   0.19681   0.97800   0.00000  Uiso   1.00
C698   C     0.31100   0.02151   0.72166   0.00000  Uiso   1.00
C699   C     0.02161   0.31179   0.77966   0.00000  Uiso   1.00
C700   C     0.31279   0.31184   0.72044   0.00000  Uiso   1.00
Cu701  Cu    0.04689   0.16667   0.75000   0.00000  Uiso   1.00
Cu702  Cu    0.28645   0.16666   0.75000   0.00000  Uiso   1.00
H703   H     0.26946   0.14688   0.54364   0.00000  Uiso   1.00
H704   H     0.15068   0.20001   0.92043   0.00000  Uiso   1.00
H705   H     0.19292   0.12987   0.80872   0.00000  Uiso   1.00
H706   H     0.14032   0.20367   0.69143   0.00000  Uiso   1.00
H707   H     0.10597   0.13087   0.80923   0.00000  Uiso   1.00
H708   H     0.22713   0.20364   0.69150   0.00000  Uiso   1.00
H709   H     0.30396   0.03715   0.66020   0.00000  Uiso   1.00
H710   H     0.25095   0.03362   0.70084   0.00000  Uiso   1.00
H711   H     0.01055   0.27175   0.83212   0.00000  Uiso   1.00
H712   H     0.06856   0.27293   0.79867   0.00000  Uiso   1.00
H713   H     0.31012   0.26728   0.62824   0.00000  Uiso   1.00
H714   H     0.06786   0.20799   0.95971   0.00000  Uiso   1.00
H715   H     0.02066   0.25839   0.65917   0.00000  Uiso   1.00
H716   H     0.01431   0.30912   0.63617   0.00000  Uiso   1.00
H717   H     0.11292   0.05696   0.81295   0.00000  Uiso   1.00
H718   H     0.10897   0.05567   0.75613   0.00000  Uiso   1.00
H719   H     0.11003   0.00833   0.78743   0.00000  Uiso   1.00
H720   H     0.11396   0.15174   0.61214   0.00000  Uiso   1.00
H721   H     0.21795   0.17853   0.88694   0.00000  Uiso   1.00
H722   H     0.30560   0.19009   0.60792   0.00000  Uiso   1.00
H723   H     0.02892   0.15095   0.89326   0.00000  Uiso   1.00
H724   H     0.00098   0.14478   0.97462   0.00000  Uiso   1.00
H725   H     0.00194   0.20457   0.52781   0.00000  Uiso   1.00
H726   H     0.18705   0.15626   0.58312   0.00000  Uiso   1.00
N727   N     0.11736   0.16668   0.74999   0.00000  Uiso   1.00
N728   N     0.21597   0.16666   0.75001   0.00000  Uiso   1.00
N729   N     0.28693   0.04379   0.69365   0.00000  Uiso   1.00
N730   N     0.03827   0.29086   0.81373   0.00000  Uiso   1.00
O731   O     0.03958   0.10655   0.75000   0.00000  Uiso   1.00
O732   O     0.04527   0.04263   0.80608   0.00000  Uiso   1.00
O733   O     0.29375   0.22678   0.75000   0.00000  Uiso   1.00
O734   O     0.29372   0.10654   0.75000   0.00000  Uiso   1.00
O735   O     0.03961   0.22679   0.74999   0.00000  Uiso   1.00
O736   O     0.01852   0.16668   0.81491   0.00000  Uiso   1.00
O737   O     0.31481   0.16666   0.68508   0.00000  Uiso   1.00
O738   O     0.27267   0.16667   0.81492   0.00000  Uiso   1.00
O739   O     0.06067   0.16667   0.68508   0.00000  Uiso   1.00
O740   O     0.29148   0.29097   0.69179   0.00000  Uiso   1.00
C741   C     0.33339   0.08742   0.75008   0.00000  Uiso   1.00
C742   C     0.35767   0.02135   0.77740   0.00000  Uiso   1.00
C743   C     0.33359   0.29041   0.75031   0.00000  Uiso   1.00
C744   C     0.33389   0.04276   0.74977   0.00000  Uiso   1.00
C745   C     0.51528   0.14635   0.78263   0.00000  Uiso   1.00
C746   C     0.48468   0.18711   0.71745   0.00000  Uiso   1.00
C747   C     0.46567   0.14664   0.78279   0.00000  Uiso   1.00
C748   C     0.53425   0.18713   0.71748   0.00000  Uiso   1.00
C749   C     0.63943   0.16653   0.83606   0.00000  Uiso   1.00
C750   C     0.36058   0.16701   0.66396   0.00000  Uiso   1.00
C751   C     0.62449   0.16569   0.88515   0.00000  Uiso   1.00
C752   C     0.66652   0.24584   0.75057   0.00000  Uiso   1.00
C753   C     0.37574   0.17096   0.61507   0.00000  Uiso   1.00
C754   C     0.64170   0.15315   0.95621   0.00000  Uiso   1.00
C755   C     0.36054   0.19315   0.54561   0.00000  Uiso   1.00
C756   C     0.65766   0.15657   0.90983   0.00000  Uiso   1.00
C757   C     0.34353   0.18471   0.59118   0.00000  Uiso   1.00
C758   C     0.57566   0.17262   0.90732   0.00000  Uiso   1.00
C759   C     0.42456   0.16438   0.59279   0.00000  Uiso   1.00
C760   C     0.55874   0.17037   0.95421   0.00000  Uiso   1.00
C761   C     0.44306   0.17387   0.54711   0.00000  Uiso   1.00
C762   C     0.59261   0.15959   0.97849   0.00000  Uiso   1.00
C763   C     0.52864   0.15984   0.54735   0.00000  Uiso   1.00
C764   C     0.40987   0.18785   0.52344   0.00000  Uiso   1.00
C765   C     0.50904   0.17718   0.97741   0.00000  Uiso   1.00
C766   C     0.49337   0.16995   0.52445   0.00000  Uiso   1.00
C767   C     0.66112   0.28124   0.65241   0.00000  Uiso   1.00
C768   C     0.42967   0.04051   0.78949   0.00000  Uiso   1.00
C769   C     0.47465   0.19148   0.95528   0.00000  Uiso   1.00
C770   C     0.57719   0.15493   0.52472   0.00000  Uiso   1.00
C771   C     0.42618   0.19681   0.97800   0.00000  Uiso   1.00
C772   C     0.64433   0.02151   0.72166   0.00000  Uiso   1.00
C773   C     0.35494   0.31179   0.77966   0.00000  Uiso   1.00
C774   C     0.64613   0.31184   0.72044   0.00000  Uiso   1.00
Cu775  Cu    0.38022   0.16667   0.75000   0.00000  Uiso   1.00
Cu776  Cu    0.61978   0.16666   0.75000   0.00000  Uiso   1.00
H777   H     0.60279   0.14688   0.54364   0.00000  Uiso   1.00
H778   H     0.48402   0.20001   0.92043   0.00000  Uiso   1.00
H779   H     0.52626   0.12987   0.80872   0.00000  Uiso   1.00
H780   H     0.47366   0.20367   0.69143   0.00000  Uiso   1.00
H781   H     0.43930   0.13087   0.80923   0.00000  Uiso   1.00
H782   H     0.56046   0.20364   0.69150   0.00000  Uiso   1.00
H783   H     0.63730   0.03715   0.66020   0.00000  Uiso   1.00
H784   H     0.58428   0.03362   0.70084   0.00000  Uiso   1.00
H785   H     0.34388   0.27175   0.83212   0.00000  Uiso   1.00
H786   H     0.40190   0.27293   0.79867   0.00000  Uiso   1.00
H787   H     0.64346   0.26728   0.62824   0.00000  Uiso   1.00
H788   H     0.40120   0.20799   0.95971   0.00000  Uiso   1.00
H789   H     0.35399   0.25839   0.65917   0.00000  Uiso   1.00
H790   H     0.34764   0.30912   0.63617   0.00000  Uiso   1.00
H791   H     0.44626   0.05696   0.81295   0.00000  Uiso   1.00
H792   H     0.44231   0.05567   0.75613   0.00000  Uiso   1.00
H793   H     0.44337   0.00833   0.78743   0.00000  Uiso   1.00
H794   H     0.44730   0.15174   0.61214   0.00000  Uiso   1.00
H795   H     0.55128   0.17853   0.88694   0.00000  Uiso   1.00
H796   H     0.63893   0.19009   0.60792   0.00000  Uiso   1.00
H797   H     0.36225   0.15095   0.89326   0.00000  Uiso   1.00
H798   H     0.33431   0.14478   0.97462   0.00000  Uiso   1.00
H799   H     0.33527   0.20457   0.52781   0.00000  Uiso   1.00
H800   H     0.52038   0.15626   0.58312   0.00000  Uiso   1.00
N801   N     0.45069   0.16668   0.74999   0.00000  Uiso   1.00
N802   N     0.54931   0.16666   0.75001   0.00000  Uiso   1.00
N803   N     0.62026   0.04379   0.69365   0.00000  Uiso   1.00
N804   N     0.37160   0.29086   0.81373   0.00000  Uiso   1.00
O805   O     0.37291   0.10655   0.75000   0.00000  Uiso   1.00
O806   O     0.37860   0.04263   0.80608   0.00000  Uiso   1.00
O807   O     0.62709   0.22678   0.75000   0.00000  Uiso   1.00
O808   O     0.62706   0.10654   0.75000   0.00000  Uiso   1.00
O809   O     0.37294   0.22679   0.74999   0.00000  Uiso   1.00
O810   O     0.35186   0.16668   0.81491   0.00000  Uiso   1.00
O811   O     0.64814   0.16666   0.68508   0.00000  Uiso   1.00
O812   O     0.60600   0.16667   0.81492   0.00000  Uiso   1.00
O813   O     0.39400   0.16667   0.68508   0.00000  Uiso   1.00
O814   O     0.62482   0.29097   0.69179   0.00000  Uiso   1.00
C815   C     0.66673   0.08742   0.75008   0.00000  Uiso   1.00
C816   C     0.69100   0.02135   0.77740   0.00000  Uiso   1.00
C817   C     0.66692   0.29041   0.75031   0.00000  Uiso   1.00
C818   C     0.66722   0.04276   0.74977   0.00000  Uiso   1.00
C819   C     0.84862   0.14635   0.78263   0.00000  Uiso   1.00
C820   C     0.81802   0.18711   0.71745   0.00000  Uiso   1.00
C821   C     0.79900   0.14664   0.78279   0.00000  Uiso   1.00
C822   C     0.86759   0.18713   0.71748   0.00000  Uiso   1.00
C823   C     0.97276   0.16653   0.83606   0.00000  Uiso   1.00
C824   C     0.69391   0.16701   0.66396   0.00000  Uiso   1.00
C825   C     0.95782   0.16569   0.88515   0.00000  Uiso   1.00
C826   C     0.99986   0.24584   0.75057   0.00000  Uiso   1.00
C827   C     0.70907   0.17096   0.61507   0.00000  Uiso   1.00
C828   C     0.97503   0.15315   0.95621   0.00000  Uiso   1.00
C829   C     0.69388   0.19315   0.54561   0.00000  Uiso   1.00
C830   C     0.99100   0.15657   0.90983   0.00000  Uiso   1.00
C831   C     0.67686   0.18471   0.59118   0.00000  Uiso   1.00
C832   C     0.90899   0.17262   0.90732   0.00000  Uiso   1.00
C833   C     0.75790   0.16438   0.59279   0.00000  Uiso   1.00
C834   C     0.89208   0.17037   0.95421   0.00000  Uiso   1.00
C835   C     0.77640   0.17387   0.54711   0.00000  Uiso   1.00
C836   C     0.92594   0.15959   0.97849   0.00000  Uiso   1.00
C837   C     0.86198   0.15984   0.54735   0.00000  Uiso   1.00
C838   C     0.74320   0.18785   0.52344   0.00000  Uiso   1.00
C839   C     0.84237   0.17718   0.97741   0.00000  Uiso   1.00
C840   C     0.82670   0.16995   0.52445   0.00000  Uiso   1.00
C841   C     0.99446   0.28124   0.65241   0.00000  Uiso   1.00
C842   C     0.76301   0.04051   0.78949   0.00000  Uiso   1.00
C843   C     0.80798   0.19148   0.95528   0.00000  Uiso   1.00
C844   C     0.91052   0.15493   0.52472   0.00000  Uiso   1.00
C845   C     0.75951   0.19681   0.97800   0.00000  Uiso   1.00
C846   C     0.97767   0.02151   0.72166   0.00000  Uiso   1.00
C847   C     0.68828   0.31179   0.77966   0.00000  Uiso   1.00
C848   C     0.97946   0.31184   0.72044   0.00000  Uiso   1.00
Cu849  Cu    0.71355   0.16667   0.75000   0.00000  Uiso   1.00
Cu850  Cu    0.95311   0.16666   0.75000   0.00000  Uiso   1.00
H851   H     0.93612   0.14688   0.54364   0.00000  Uiso   1.00
H852   H     0.81735   0.20001   0.92043   0.00000  Uiso   1.00
H853   H     0.85959   0.12987   0.80872   0.00000  Uiso   1.00
H854   H     0.80699   0.20367   0.69143   0.00000  Uiso   1.00
H855   H     0.77264   0.13087   0.80923   0.00000  Uiso   1.00
H856   H     0.89379   0.20364   0.69150   0.00000  Uiso   1.00
H857   H     0.97063   0.03715   0.66020   0.00000  Uiso   1.00
H858   H     0.91762   0.03362   0.70084   0.00000  Uiso   1.00
H859   H     0.67722   0.27175   0.83212   0.00000  Uiso   1.00
H860   H     0.73523   0.27293   0.79867   0.00000  Uiso   1.00
H861   H     0.97679   0.26728   0.62824   0.00000  Uiso   1.00
H862   H     0.73453   0.20799   0.95971   0.00000  Uiso   1.00
H863   H     0.68733   0.25839   0.65917   0.00000  Uiso   1.00
H864   H     0.68097   0.30912   0.63617   0.00000  Uiso   1.00
H865   H     0.77959   0.05696   0.81295   0.00000  Uiso   1.00
H866   H     0.77564   0.05567   0.75613   0.00000  Uiso   1.00
H867   H     0.77670   0.00833   0.78743   0.00000  Uiso   1.00
H868   H     0.78063   0.15174   0.61214   0.00000  Uiso   1.00
H869   H     0.88462   0.17853   0.88694   0.00000  Uiso   1.00
H870   H     0.97227   0.19009   0.60792   0.00000  Uiso   1.00
H871   H     0.69559   0.15095   0.89326   0.00000  Uiso   1.00
H872   H     0.66764   0.14478   0.97462   0.00000  Uiso   1.00
H873   H     0.66860   0.20457   0.52781   0.00000  Uiso   1.00
H874   H     0.85371   0.15626   0.58312   0.00000  Uiso   1.00
N875   N     0.78403   0.16668   0.74999   0.00000  Uiso   1.00
N876   N     0.88264   0.16666   0.75001   0.00000  Uiso   1.00
N877   N     0.95359   0.04379   0.69365   0.00000  Uiso   1.00
N878   N     0.70494   0.29086   0.81373   0.00000  Uiso   1.00
O879   O     0.70625   0.10655   0.75000   0.00000  Uiso   1.00
O880   O     0.71194   0.04263   0.80608   0.00000  Uiso   1.00
O881   O     0.96042   0.22678   0.75000   0.00000  Uiso   1.00
O882   O     0.96039   0.10654   0.75000   0.00000  Uiso   1.00
O883   O     0.70628   0.22679   0.74999   0.00000  Uiso   1.00
O884   O     0.68519   0.16668   0.81491   0.00000  Uiso   1.00
O885   O     0.98148   0.16666   0.68508   0.00000  Uiso   1.00
O886   O     0.93933   0.16667   0.81492   0.00000  Uiso   1.00
O887   O     0.72733   0.16667   0.68508   0.00000  Uiso   1.00
O888   O     0.95815   0.29097   0.69179   0.00000  Uiso   1.00
C889   C     0.00006   0.42075   0.75008   0.00000  Uiso   1.00
C890   C     0.02433   0.35468   0.77740   0.00000  Uiso   1.00
C891   C     0.00026   0.62374   0.75031   0.00000  Uiso   1.00
C892   C     0.00055   0.37609   0.74977   0.00000  Uiso   1.00
C893   C     0.18195   0.47968   0.78263   0.00000  Uiso   1.00
C894   C     0.15135   0.52045   0.71745   0.00000  Uiso   1.00
C895   C     0.13234   0.47997   0.78279   0.00000  Uiso   1.00
C896   C     0.20092   0.52047   0.71748   0.00000  Uiso   1.00
C897   C     0.30609   0.49986   0.83606   0.00000  Uiso   1.00
C898   C     0.02725   0.50035   0.66396   0.00000  Uiso   1.00
C899   C     0.29115   0.49902   0.88515   0.00000  Uiso   1.00
C900   C     0.33319   0.57917   0.75057   0.00000  Uiso   1.00
C901   C     0.04241   0.50430   0.61507   0.00000  Uiso   1.00
C902   C     0.30836   0.48648   0.95621   0.00000  Uiso   1.00
C903   C     0.02721   0.52648   0.54561   0.00000  Uiso   1.00
C904   C     0.32433   0.48991   0.90983   0.00000  Uiso   1.00
C905   C     0.01019   0.51805   0.59118   0.00000  Uiso   1.00
C906   C     0.24232   0.50595   0.90732   0.00000  Uiso   1.00
C907   C     0.09123   0.49772   0.59279   0.00000  Uiso   1.00
C908   C     0.22541   0.50370   0.95421   0.00000  Uiso   1.00
C909   C     0.10973   0.50721   0.54711   0.00000  Uiso   1.00
C910   C     0.25927   0.49293   0.97849   0.00000  Uiso   1.00
C911   C     0.19531   0.49317   0.54735   0.00000  Uiso   1.00
C912   C     0.07654   0.52118   0.52344   0.00000  Uiso   1.00
C913   C     0.17571   0.51051   0.97741   0.00000  Uiso   1.00
C914   C     0.16004   0.50328   0.52445   0.00000  Uiso   1.00
C915   C     0.32779   0.61458   0.65241   0.00000  Uiso   1.00
C916   C     0.09634   0.37384   0.78949   0.00000  Uiso   1.00
C917   C     0.14132   0.52481   0.95528   0.00000  Uiso   1.00
C918   C     0.24386   0.48827   0.52472   0.00000  Uiso   1.00
C919   C     0.09285   0.53014   0.97800   0.00000  Uiso   1.00
C920   C     0.31100   0.35484   0.72166   0.00000  Uiso   1.00
C921   C     0.02161   0.64512   0.77966   0.00000  Uiso   1.00
C922   C     0.31279   0.64518   0.72044   0.00000  Uiso   1.00
Cu923  Cu    0.04689   0.50001   0.75000   0.00000  Uiso   1.00
Cu924  Cu    0.28645   0.49999   0.75000   0.00000  Uiso   1.00
H925   H     0.26946   0.48022   0.54364   0.00000  Uiso   1.00
H926   H     0.15068   0.53335   0.92043   0.00000  Uiso   1.00
H927   H     0.19292   0.46320   0.80872   0.00000  Uiso   1.00
H928   H     0.14032   0.53701   0.69143   0.00000  Uiso   1.00
H929   H     0.10597   0.46420   0.80923   0.00000  Uiso   1.00
H930   H     0.22713   0.53697   0.69150   0.00000  Uiso   1.00
H931   H     0.30396   0.37048   0.66020   0.00000  Uiso   1.00
H932   H     0.25095   0.36695   0.70084   0.00000  Uiso   1.00
H933   H     0.01055   0.60508   0.83212   0.00000  Uiso   1.00
H934   H     0.06856   0.60626   0.79867   0.00000  Uiso   1.00
H935   H     0.31012   0.60062   0.62824   0.00000  Uiso   1.00
H936   H     0.06786   0.54133   0.95971   0.00000  Uiso   1.00
H937   H     0.02066   0.59172   0.65917   0.00000  Uiso   1.00
H938   H     0.01431   0.64245   0.63617   0.00000  Uiso   1.00
H939   H     0.11292   0.39029   0.81295   0.00000  Uiso   1.00
H940   H     0.10897   0.38900   0.75613   0.00000  Uiso   1.00
H941   H     0.11003   0.34166   0.78743   0.00000  Uiso   1.00
H942   H     0.11396   0.48507   0.61214   0.00000  Uiso   1.00
H943   H     0.21795   0.51186   0.88694   0.00000  Uiso   1.00
H944   H     0.30560   0.52343   0.60792   0.00000  Uiso   1.00
H945   H     0.02892   0.48428   0.89326   0.00000  Uiso   1.00
H946   H     0.00098   0.47811   0.97462   0.00000  Uiso   1.00
H947   H     0.00194   0.53790   0.52781   0.00000  Uiso   1.00
H948   H     0.18705   0.48959   0.58312   0.00000  Uiso   1.00
N949   N     0.11736   0.50001   0.74999   0.00000  Uiso   1.00
N950   N     0.21597   0.49999   0.75001   0.00000  Uiso   1.00
N951   N     0.28693   0.37713   0.69365   0.00000  Uiso   1.00
N952   N     0.03827   0.62419   0.81373   0.00000  Uiso   1.00
O953   O     0.03958   0.43989   0.75000   0.00000  Uiso   1.00
O954   O     0.04527   0.37597   0.80608   0.00000  Uiso   1.00
O955   O     0.29375   0.56011   0.75000   0.00000  Uiso   1.00
O956   O     0.29372   0.43988   0.75000   0.00000  Uiso   1.00
O957   O     0.03961   0.56012   0.74999   0.00000  Uiso   1.00
O958   O     0.01852   0.50001   0.81491   0.00000  Uiso   1.00
O959   O     0.31481   0.49999   0.68508   0.00000  Uiso   1.00
O960   O     0.27267   0.50000   0.81492   0.00000  Uiso   1.00
O961   O     0.06067   0.50000   0.68508   0.00000  Uiso   1.00
O962   O     0.29148   0.62431   0.69179   0.00000  Uiso   1.00
C963   C     0.33339   0.42075   0.75008   0.00000  Uiso   1.00
C964   C     0.35767   0.35468   0.77740   0.00000  Uiso   1.00
C965   C     0.33359   0.62374   0.75031   0.00000  Uiso   1.00
C966   C     0.33389   0.37609   0.74977   0.00000  Uiso   1.00
C967   C     0.51528   0.47968   0.78263   0.00000  Uiso   1.00
C968   C     0.48468   0.52045   0.71745   0.00000  Uiso   1.00
C969   C     0.46567   0.47997   0.78279   0.00000  Uiso   1.00
C970   C     0.53425   0.52047   0.71748   0.00000  Uiso   1.00
C971   C     0.63943   0.49986   0.83606   0.00000  Uiso   1.00
C972   C     0.36058   0.50035   0.66396   0.00000  Uiso   1.00
C973   C     0.62449   0.49902   0.88515   0.00000  Uiso   1.00
C974   C     0.66652   0.57917   0.75057   0.00000  Uiso   1.00
C975   C     0.37574   0.50430   0.61507   0.00000  Uiso   1.00
C976   C     0.64170   0.48648   0.95621   0.00000  Uiso   1.00
C977   C     0.36054   0.52648   0.54561   0.00000  Uiso   1.00
C978   C     0.65766   0.48991   0.90983   0.00000  Uiso   1.00
C979   C     0.34353   0.51805   0.59118   0.00000  Uiso   1.00
C980   C     0.57566   0.50595   0.90732   0.00000  Uiso   1.00
C981   C     0.42456   0.49772   0.59279   0.00000  Uiso   1.00
C982   C     0.55874   0.50370   0.95421   0.00000  Uiso   1.00
C983   C     0.44306   0.50721   0.54711   0.00000  Uiso   1.00
C984   C     0.59261   0.49293   0.97849   0.00000  Uiso   1.00
C985   C     0.52864   0.49317   0.54735   0.00000  Uiso   1.00
C986   C     0.40987   0.52118   0.52344   0.00000  Uiso   1.00
C987   C     0.50904   0.51051   0.97741   0.00000  Uiso   1.00
C988   C     0.49337   0.50328   0.52445   0.00000  Uiso   1.00
C989   C     0.66112   0.61458   0.65241   0.00000  Uiso   1.00
C990   C     0.42967   0.37384   0.78949   0.00000  Uiso   1.00
C991   C     0.47465   0.52481   0.95528   0.00000  Uiso   1.00
C992   C     0.57719   0.48827   0.52472   0.00000  Uiso   1.00
C993   C     0.42618   0.53014   0.97800   0.00000  Uiso   1.00
C994   C     0.64433   0.35484   0.72166   0.00000  Uiso   1.00
C995   C     0.35494   0.64512   0.77966   0.00000  Uiso   1.00
C996   C     0.64613   0.64518   0.72044   0.00000  Uiso   1.00
Cu997  Cu    0.38022   0.50001   0.75000   0.00000  Uiso   1.00
Cu998  Cu    0.61978   0.49999   0.75000   0.00000  Uiso   1.00
H999   H     0.60279   0.48022   0.54364   0.00000  Uiso   1.00
H1000  H     0.48402   0.53335   0.92043   0.00000  Uiso   1.00
H1001  H     0.52626   0.46320   0.80872   0.00000  Uiso   1.00
H1002  H     0.47366   0.53701   0.69143   0.00000  Uiso   1.00
H1003  H     0.43930   0.46420   0.80923   0.00000  Uiso   1.00
H1004  H     0.56046   0.53697   0.69150   0.00000  Uiso   1.00
H1005  H     0.63730   0.37048   0.66020   0.00000  Uiso   1.00
H1006  H     0.58428   0.36695   0.70084   0.00000  Uiso   1.00
H1007  H     0.34388   0.60508   0.83212   0.00000  Uiso   1.00
H1008  H     0.40190   0.60626   0.79867   0.00000  Uiso   1.00
H1009  H     0.64346   0.60062   0.62824   0.00000  Uiso   1.00
H1010  H     0.40120   0.54133   0.95971   0.00000  Uiso   1.00
H1011  H     0.35399   0.59172   0.65917   0.00000  Uiso   1.00
H1012  H     0.34764   0.64245   0.63617   0.00000  Uiso   1.00
H1013  H     0.44626   0.39029   0.81295   0.00000  Uiso   1.00
H1014  H     0.44231   0.38900   0.75613   0.00000  Uiso   1.00
H1015  H     0.44337   0.34166   0.78743   0.00000  Uiso   1.00
H1016  H     0.44730   0.48507   0.61214   0.00000  Uiso   1.00
H1017  H     0.55128   0.51186   0.88694   0.00000  Uiso   1.00
H1018  H     0.63893   0.52343   0.60792   0.00000  Uiso   1.00
H1019  H     0.36225   0.48428   0.89326   0.00000  Uiso   1.00
H1020  H     0.33431   0.47811   0.97462   0.00000  Uiso   1.00
H1021  H     0.33527   0.53790   0.52781   0.00000  Uiso   1.00
H1022  H     0.52038   0.48959   0.58312   0.00000  Uiso   1.00
N1023  N     0.45069   0.50001   0.74999   0.00000  Uiso   1.00
N1024  N     0.54931   0.49999   0.75001   0.00000  Uiso   1.00
N1025  N     0.62026   0.37713   0.69365   0.00000  Uiso   1.00
N1026  N     0.37160   0.62419   0.81373   0.00000  Uiso   1.00
O1027  O     0.37291   0.43989   0.75000   0.00000  Uiso   1.00
O1028  O     0.37860   0.37597   0.80608   0.00000  Uiso   1.00
O1029  O     0.62709   0.56011   0.75000   0.00000  Uiso   1.00
O1030  O     0.62706   0.43988   0.75000   0.00000  Uiso   1.00
O1031  O     0.37294   0.56012   0.74999   0.00000  Uiso   1.00
O1032  O     0.35186   0.50001   0.81491   0.00000  Uiso   1.00
O1033  O     0.64814   0.49999   0.68508   0.00000  Uiso   1.00
O1034  O     0.60600   0.50000   0.81492   0.00000  Uiso   1.00
O1035  O     0.39400   0.50000   0.68508   0.00000  Uiso   1.00
O1036  O     0.62482   0.62431   0.69179   0.00000  Uiso   1.00
C1037  C     0.66673   0.42075   0.75008   0.00000  Uiso   1.00
C1038  C     0.69100   0.35468   0.77740   0.00000  Uiso   1.00
C1039  C     0.66692   0.62374   0.75031   0.00000  Uiso   1.00
C1040  C     0.66722   0.37609   0.74977   0.00000  Uiso   1.00
C1041  C     0.84862   0.47968   0.78263   0.00000  Uiso   1.00
C1042  C     0.81802   0.52045   0.71745   0.00000  Uiso   1.00
C1043  C     0.79900   0.47997   0.78279   0.00000  Uiso   1.00
C1044  C     0.86759   0.52047   0.71748   0.00000  Uiso   1.00
C1045  C     0.97276   0.49986   0.83606   0.00000  Uiso   1.00
C1046  C     0.69391   0.50035   0.66396   0.00000  Uiso   1.00
C1047  C     0.95782   0.49902   0.88515   0.00000  Uiso   1.00
C1048  C     0.99986   0.57917   0.75057   0.00000  Uiso   1.00
C1049  C     0.70907   0.50430   0.61507   0.00000  Uiso   1.00
C1050  C     0.97503   0.48648   0.95621   0.00000  Uiso   1.00
C1051  C     0.69388   0.52648   0.54561   0.00000  Uiso   1.00
C1052  C     0.99100   0.48991   0.90983   0.00000  Uiso   1.00
C1053  C     0.67686   0.51805   0.59118   0.00000  Uiso   1.00
C1054  C     0.90899   0.50595   0.90732   0.00000  Uiso   1.00
C1055  C     0.75790   0.49772   0.59279   0.00000  Uiso   1.00
C1056  C     0.89208   0.50370   0.95421   0.00000  Uiso   1.00
C1057  C     0.77640   0.50721   0.54711   0.00000  Uiso   1.00
C1058  C     0.92594   0.49293   0.97849   0.00000  Uiso   1.00
C1059  C     0.86198   0.49317   0.54735   0.00000  Uiso   1.00
C1060  C     0.74320   0.52118   0.52344   0.00000  Uiso   1.00
C1061  C     0.84237   0.51051   0.97741   0.00000  Uiso   1.00
C1062  C     0.82670   0.50328   0.52445   0.00000  Uiso   1.00
C1063  C     0.99446   0.61458   0.65241   0.00000  Uiso   1.00
C1064  C     0.76301   0.37384   0.78949   0.00000  Uiso   1.00
C1065  C     0.80798   0.52481   0.95528   0.00000  Uiso   1.00
C1066  C     0.91052   0.48827   0.52472   0.00000  Uiso   1.00
C1067  C     0.75951   0.53014   0.97800   0.00000  Uiso   1.00
C1068  C     0.97767   0.35484   0.72166   0.00000  Uiso   1.00
C1069  C     0.68828   0.64512   0.77966   0.00000  Uiso   1.00
C1070  C     0.97946   0.64518   0.72044   0.00000  Uiso   1.00
Cu1071 Cu    0.71355   0.50001   0.75000   0.00000  Uiso   1.00
Cu1072 Cu    0.95311   0.49999   0.75000   0.00000  Uiso   1.00
H1073  H     0.93612   0.48022   0.54364   0.00000  Uiso   1.00
H1074  H     0.81735   0.53335   0.92043   0.00000  Uiso   1.00
H1075  H     0.85959   0.46320   0.80872   0.00000  Uiso   1.00
H1076  H     0.80699   0.53701   0.69143   0.00000  Uiso   1.00
H1077  H     0.77264   0.46420   0.80923   0.00000  Uiso   1.00
H1078  H     0.89379   0.53697   0.69150   0.00000  Uiso   1.00
H1079  H     0.97063   0.37048   0.66020   0.00000  Uiso   1.00
H1080  H     0.91762   0.36695   0.70084   0.00000  Uiso   1.00
H1081  H     0.67722   0.60508   0.83212   0.00000  Uiso   1.00
H1082  H     0.73523   0.60626   0.79867   0.00000  Uiso   1.00
H1083  H     0.97679   0.60062   0.62824   0.00000  Uiso   1.00
H1084  H     0.73453   0.54133   0.95971   0.00000  Uiso   1.00
H1085  H     0.68733   0.59172   0.65917   0.00000  Uiso   1.00
H1086  H     0.68097   0.64245   0.63617   0.00000  Uiso   1.00
H1087  H     0.77959   0.39029   0.81295   0.00000  Uiso   1.00
H1088  H     0.77564   0.38900   0.75613   0.00000  Uiso   1.00
H1089  H     0.77670   0.34166   0.78743   0.00000  Uiso   1.00
H1090  H     0.78063   0.48507   0.61214   0.00000  Uiso   1.00
H1091  H     0.88462   0.51186   0.88694   0.00000  Uiso   1.00
H1092  H     0.97227   0.52343   0.60792   0.00000  Uiso   1.00
H1093  H     0.69559   0.48428   0.89326   0.00000  Uiso   1.00
H1094  H     0.66764   0.47811   0.97462   0.00000  Uiso   1.00
H1095  H     0.66860   0.53790   0.52781   0.00000  Uiso   1.00
H1096  H     0.85371   0.48959   0.58312   0.00000  Uiso   1.00
N1097  N     0.78403   0.50001   0.74999   0.00000  Uiso   1.00
N1098  N     0.88264   0.49999   0.75001   0.00000  Uiso   1.00
N1099  N     0.95359   0.37713   0.69365   0.00000  Uiso   1.00
N1100  N     0.70494   0.62419   0.81373   0.00000  Uiso   1.00
O1101  O     0.70625   0.43989   0.75000   0.00000  Uiso   1.00
O1102  O     0.71194   0.37597   0.80608   0.00000  Uiso   1.00
O1103  O     0.96042   0.56011   0.75000   0.00000  Uiso   1.00
O1104  O     0.96039   0.43988   0.75000   0.00000  Uiso   1.00
O1105  O     0.70628   0.56012   0.74999   0.00000  Uiso   1.00
O1106  O     0.68519   0.50001   0.81491   0.00000  Uiso   1.00
O1107  O     0.98148   0.49999   0.68508   0.00000  Uiso   1.00
O1108  O     0.93933   0.50000   0.81492   0.00000  Uiso   1.00
O1109  O     0.72733   0.50000   0.68508   0.00000  Uiso   1.00
O1110  O     0.95815   0.62431   0.69179   0.00000  Uiso   1.00
C1111  C     0.00006   0.75409   0.75008   0.00000  Uiso   1.00
C1112  C     0.02433   0.68801   0.77740   0.00000  Uiso   1.00
C1113  C     0.00026   0.95707   0.75031   0.00000  Uiso   1.00
C1114  C     0.00055   0.70942   0.74977   0.00000  Uiso   1.00
C1115  C     0.18195   0.81302   0.78263   0.00000  Uiso   1.00
C1116  C     0.15135   0.85378   0.71745   0.00000  Uiso   1.00
C1117  C     0.13234   0.81331   0.78279   0.00000  Uiso   1.00
C1118  C     0.20092   0.85380   0.71748   0.00000  Uiso   1.00
C1119  C     0.30609   0.83319   0.83606   0.00000  Uiso   1.00
C1120  C     0.02725   0.83368   0.66396   0.00000  Uiso   1.00
C1121  C     0.29115   0.83236   0.88515   0.00000  Uiso   1.00
C1122  C     0.33319   0.91251   0.75057   0.00000  Uiso   1.00
C1123  C     0.04241   0.83763   0.61507   0.00000  Uiso   1.00
C1124  C     0.30836   0.81981   0.95621   0.00000  Uiso   1.00
C1125  C     0.02721   0.85981   0.54561   0.00000  Uiso   1.00
C1126  C     0.32433   0.82324   0.90983   0.00000  Uiso   1.00
C1127  C     0.01019   0.85138   0.59118   0.00000  Uiso   1.00
C1128  C     0.24232   0.83928   0.90732   0.00000  Uiso   1.00
C1129  C     0.09123   0.83105   0.59279   0.00000  Uiso   1.00
C1130  C     0.22541   0.83704   0.95421   0.00000  Uiso   1.00
C1131  C     0.10973   0.84054   0.54711   0.00000  Uiso   1.00
C1132  C     0.25927   0.82626   0.97849   0.00000  Uiso   1.00
C1133  C     0.19531   0.82651   0.54735   0.00000  Uiso   1.00
C1134  C     0.07654   0.85451   0.52344   0.00000  Uiso   1.00
C1135  C     0.17571   0.84385   0.97741   0.00000  Uiso   1.00
C1136  C     0.16004   0.83662   0.52445   0.00000  Uiso   1.00
C1137  C     0.32779   0.94791   0.65241   0.00000  Uiso   1.00
C1138  C     0.09634   0.70717   0.78949   0.00000  Uiso   1.00
C1139  C     0.14132   0.85815   0.95528   0.00000  Uiso   1.00
C1140  C     0.24386   0.82160   0.52472   0.00000  Uiso   1.00
C1141  C     0.09285   0.86347   0.97800   0.00000  Uiso   1.00
C1142  C     0.31100   0.68818   0.72166   0.00000  Uiso   1.00
C1143  C     0.02161   0.97845   0.77966   0.00000  Uiso   1.00
C1144  C     0.31279   0.97851   0.72044   0.00000  Uiso   1.00
Cu1145 Cu    0.04689   0.83334   0.75000   0.00000  Uiso   1.00
Cu1146 Cu    0.28645   0.83333   0.75000   0.00000  Uiso   1.00
H1147  H     0.26946   0.81355   0.54364   0.00000  Uiso   1.00
H1148  H     0.15068   0.86668   0.92043   0.00000  Uiso   1.00
H1149  H     0.19292   0.79654   0.80872   0.00000  Uiso   1.00
H1150  H     0.14032   0.87034   0.69143   0.00000  Uiso   1.00
H1151  H     0.10597   0.79753   0.80923   0.00000  Uiso   1.00
H1152  H     0.22713   0.87031   0.69150   0.00000  Uiso   1.00
H1153  H     0.30396   0.70382   0.66020   0.00000  Uiso   1.00
H1154  H     0.25095   0.70028   0.70084   0.00000  Uiso   1.00
H1155  H     0.01055   0.93841   0.83212   0.00000  Uiso   1.00
H1156  H     0.06856   0.93960   0.79867   0.00000  Uiso   1.00
H1157  H     0.31012   0.93395   0.62824   0.00000  Uiso   1.00
H1158  H     0.06786   0.87466   0.95971   0.00000  Uiso   1.00
H1159  H     0.02066   0.92506   0.65917   0.00000  Uiso   1.00
H1160  H     0.01431   0.97579   0.63617   0.00000  Uiso   1.00
H1161  H     0.11292   0.72362   0.81295   0.00000  Uiso   1.00
H1162  H     0.10897   0.72234   0.75613   0.00000  Uiso   1.00
H1163  H     0.11003   0.67500   0.78743   0.00000  Uiso   1.00
H1164  H     0.11396   0.81840   0.61214   0.00000  Uiso   1.00
H1165  H     0.21795   0.84519   0.88694   0.00000  Uiso   1.00
H1166  H     0.30560   0.85676   0.60792   0.00000  Uiso   1.00
H1167  H     0.02892   0.81762   0.89326   0.00000  Uiso   1.00
H1168  H     0.00098   0.81145   0.97462   0.00000  Uiso   1.00
H1169  H     0.00194   0.87124   0.52781   0.00000  Uiso   1.00
H1170  H     0.18705   0.82292   0.58312   0.00000  Uiso   1.00
N1171  N     0.11736   0.83334   0.74999   0.00000  Uiso   1.00
N1172  N     0.21597   0.83332   0.75001   0.00000  Uiso   1.00
N1173  N     0.28693   0.71046   0.69365   0.00000  Uiso   1.00
N1174  N     0.03827   0.95753   0.81373   0.00000  Uiso   1.00
O1175  O     0.03958   0.77322   0.75000   0.00000  Uiso   1.00
O1176  O     0.04527   0.70930   0.80608   0.00000  Uiso   1.00
O1177  O     0.29375   0.89345   0.75000   0.00000  Uiso   1.00
O1178  O     0.29372   0.77321   0.75000   0.00000  Uiso   1.00
O1179  O     0.03961   0.89346   0.74999   0.00000  Uiso   1.00
O1180  O     0.01852   0.83334   0.81491   0.00000  Uiso   1.00
O1181  O     0.31481   0.83332   0.68508   0.00000  Uiso   1.00
O1182  O     0.27267   0.83333   0.81492   0.00000  Uiso   1.00
O1183  O     0.06067   0.83333   0.68508   0.00000  Uiso   1.00
O1184  O     0.29148   0.95764   0.69179   0.00000  Uiso   1.00
C1185  C     0.33339   0.75409   0.75008   0.00000  Uiso   1.00
C1186  C     0.35767   0.68801   0.77740   0.00000  Uiso   1.00
C1187  C     0.33359   0.95707   0.75031   0.00000  Uiso   1.00
C1188  C     0.33389   0.70942   0.74977   0.00000  Uiso   1.00
C1189  C     0.51528   0.81302   0.78263   0.00000  Uiso   1.00
C1190  C     0.48468   0.85378   0.71745   0.00000  Uiso   1.00
C1191  C     0.46567   0.81331   0.78279   0.00000  Uiso   1.00
C1192  C     0.53425   0.85380   0.71748   0.00000  Uiso   1.00
C1193  C     0.63943   0.83319   0.83606   0.00000  Uiso   1.00
C1194  C     0.36058   0.83368   0.66396   0.00000  Uiso   1.00
C1195  C     0.62449   0.83236   0.88515   0.00000  Uiso   1.00
C1196  C     0.66652   0.91251   0.75057   0.00000  Uiso   1.00
C1197  C     0.37574   0.83763   0.61507   0.00000  Uiso   1.00
C1198  C     0.64170   0.81981   0.95621   0.00000  Uiso   1.00
C1199  C     0.36054   0.85981   0.54561   0.00000  Uiso   1.00
C1200  C     0.65766   0.82324   0.90983   0.00000  Uiso   1.00
C1201  C     0.34353   0.85138   0.59118   0.00000  Uiso   1.00
C1202  C     0.57566   0.83928   0.90732   0.00000  Uiso   1.00
C1203  C     0.42456   0.83105   0.59279   0.00000  Uiso   1.00
C1204  C     0.55874   0.83704   0.95421   0.00000  Uiso   1.00
C1205  C     0.44306   0.84054   0.54711   0.00000  Uiso   1.00
C1206  C     0.59261   0.82626   0.97849   0.00000  Uiso   1.00
C1207  C     0.52864   0.82651   0.54735   0.00000  Uiso   1.00
C1208  C     0.40987   0.85451   0.52344   0.00000  Uiso   1.00
C1209  C     0.50904   0.84385   0.97741   0.00000  Uiso   1.00
C1210  C     0.49337   0.83662   0.52445   0.00000  Uiso   1.00
C1211  C     0.66112   0.94791   0.65241   0.00000  Uiso   1.00
C1212  C     0.42967   0.70717   0.78949   0.00000  Uiso   1.00
C1213  C     0.47465   0.85815   0.95528   0.00000  Uiso   1.00
C1214  C     0.57719   0.82160   0.52472   0.00000  Uiso   1.00
C1215  C     0.42618   0.86347   0.97800   0.00000  Uiso   1.00
C1216  C     0.64433   0.68818   0.72166   0.00000  Uiso   1.00
C1217  C     0.35494   0.97845   0.77966   0.00000  Uiso   1.00
C1218  C     0.64613   0.97851   0.72044   0.00000  Uiso   1.00
Cu1219 Cu    0.38022   0.83334   0.75000   0.00000  Uiso   1.00
Cu1220 Cu    0.61978   0.83333   0.75000   0.00000  Uiso   1.00
H1221  H     0.60279   0.81355   0.54364   0.00000  Uiso   1.00
H1222  H     0.48402   0.86668   0.92043   0.00000  Uiso   1.00
H1223  H     0.52626   0.79654   0.80872   0.00000  Uiso   1.00
H1224  H     0.47366   0.87034   0.69143   0.00000  Uiso   1.00
H1225  H     0.43930   0.79753   0.80923   0.00000  Uiso   1.00
H1226  H     0.56046   0.87031   0.69150   0.00000  Uiso   1.00
H1227  H     0.63730   0.70382   0.66020   0.00000  Uiso   1.00
H1228  H     0.58428   0.70028   0.70084   0.00000  Uiso   1.00
H1229  H     0.34388   0.93841   0.83212   0.00000  Uiso   1.00
H1230  H     0.40190   0.93960   0.79867   0.00000  Uiso   1.00
H1231  H     0.64346   0.93395   0.62824   0.00000  Uiso   1.00
H1232  H     0.40120   0.87466   0.95971   0.00000  Uiso   1.00
H1233  H     0.35399   0.92506   0.65917   0.00000  Uiso   1.00
H1234  H     0.34764   0.97579   0.63617   0.00000  Uiso   1.00
H1235  H     0.44626   0.72362   0.81295   0.00000  Uiso   1.00
H1236  H     0.44231   0.72234   0.75613   0.00000  Uiso   1.00
H1237  H     0.44337   0.67500   0.78743   0.00000  Uiso   1.00
H1238  H     0.44730   0.81840   0.61214   0.00000  Uiso   1.00
H1239  H     0.55128   0.84519   0.88694   0.00000  Uiso   1.00
H1240  H     0.63893   0.85676   0.60792   0.00000  Uiso   1.00
H1241  H     0.36225   0.81762   0.89326   0.00000  Uiso   1.00
H1242  H     0.33431   0.81145   0.97462   0.00000  Uiso   1.00
H1243  H     0.33527   0.87124   0.52781   0.00000  Uiso   1.00
H1244  H     0.52038   0.82292   0.58312   0.00000  Uiso   1.00
N1245  N     0.45069   0.83334   0.74999   0.00000  Uiso   1.00
N1246  N     0.54931   0.83332   0.75001   0.00000  Uiso   1.00
N1247  N     0.62026   0.71046   0.69365   0.00000  Uiso   1.00
N1248  N     0.37160   0.95753   0.81373   0.00000  Uiso   1.00
O1249  O     0.37291   0.77322   0.75000   0.00000  Uiso   1.00
O1250  O     0.37860   0.70930   0.80608   0.00000  Uiso   1.00
O1251  O     0.62709   0.89345   0.75000   0.00000  Uiso   1.00
O1252  O     0.62706   0.77321   0.75000   0.00000  Uiso   1.00
O1253  O     0.37294   0.89346   0.74999   0.00000  Uiso   1.00
O1254  O     0.35186   0.83334   0.81491   0.00000  Uiso   1.00
O1255  O     0.64814   0.83332   0.68508   0.00000  Uiso   1.00
O1256  O     0.60600   0.83333   0.81492   0.00000  Uiso   1.00
O1257  O     0.39400   0.83333   0.68508   0.00000  Uiso   1.00
O1258  O     0.62482   0.95764   0.69179   0.00000  Uiso   1.00
C1259  C     0.66673   0.75409   0.75008   0.00000  Uiso   1.00
C1260  C     0.69100   0.68801   0.77740   0.00000  Uiso   1.00
C1261  C     0.66692   0.95707   0.75031   0.00000  Uiso   1.00
C1262  C     0.66722   0.70942   0.74977   0.00000  Uiso   1.00
C1263  C     0.84862   0.81302   0.78263   0.00000  Uiso   1.00
C1264  C     0.81802   0.85378   0.71745   0.00000  Uiso   1.00
C1265  C     0.79900   0.81331   0.78279   0.00000  Uiso   1.00
C1266  C     0.86759   0.85380   0.71748   0.00000  Uiso   1.00
C1267  C     0.97276   0.83319   0.83606   0.00000  Uiso   1.00
C1268  C     0.69391   0.83368   0.66396   0.00000  Uiso   1.00
C1269  C     0.95782   0.83236   0.88515   0.00000  Uiso   1.00
C1270  C     0.99986   0.91251   0.75057   0.00000  Uiso   1.00
C1271  C     0.70907   0.83763   0.61507   0.00000  Uiso   1.00
C1272  C     0.97503   0.81981   0.95621   0.00000  Uiso   1.00
C1273  C     0.69388   0.85981   0.54561   0.00000  Uiso   1.00
C1274  C     0.99100   0.82324   0.90983   0.00000  Uiso   1.00
C1275  C     0.67686   0.85138   0.59118   0.00000  Uiso   1.00
C1276  C     0.90899   0.83928   0.90732   0.00000  Uiso   1.00
C1277  C     0.75790   0.83105   0.59279   0.00000  Uiso   1.00
C1278  C     0.89208   0.83704   0.95421   0.00000  Uiso   1.00
C1279  C     0.77640   0.84054   0.54711   0.00000  Uiso   1.00
C1280  C     0.92594   0.82626   0.97849   0.00000  Uiso   1.00
C1281  C     0.86198   0.82651   0.54735   0.00000  Uiso   1.00
C1282  C     0.74320   0.85451   0.52344   0.00000  Uiso   1.00
C1283  C     0.84237   0.84385   0.97741   0.00000  Uiso   1.00
C1284  C     0.82670   0.83662   0.52445   0.00000  Uiso   1.00
C1285  C     0.99446   0.94791   0.65241   0.00000  Uiso   1.00
C1286  C     0.76301   0.70717   0.78949   0.00000  Uiso   1.00
C1287  C     0.80798   0.85815   0.95528   0.00000  Uiso   1.00
C1288  C     0.91052   0.82160   0.52472   0.00000  Uiso   1.00
C1289  C     0.75951   0.86347   0.97800   0.00000  Uiso   1.00
C1290  C     0.97767   0.68818   0.72166   0.00000  Uiso   1.00
C1291  C     0.68828   0.97845   0.77966   0.00000  Uiso   1.00
C1292  C     0.97946   0.97851   0.72044   0.00000  Uiso   1.00
Cu1293 Cu    0.71355   0.83334   0.75000   0.00000  Uiso   1.00
Cu1294 Cu    0.95311   0.83333   0.75000   0.00000  Uiso   1.00
H1295  H     0.93612   0.81355   0.54364   0.00000  Uiso   1.00
H1296  H     0.81735   0.86668   0.92043   0.00000  Uiso   1.00
H1297  H     0.85959   0.79654   0.80872   0.00000  Uiso   1.00
H1298  H     0.80699   0.87034   0.69143   0.00000  Uiso   1.00
H1299  H     0.77264   0.79753   0.80923   0.00000  Uiso   1.00
H1300  H     0.89379   0.87031   0.69150   0.00000  Uiso   1.00
H1301  H     0.97063   0.70382   0.66020   0.00000  Uiso   1.00
H1302  H     0.91762   0.70028   0.70084   0.00000  Uiso   1.00
H1303  H     0.67722   0.93841   0.83212   0.00000  Uiso   1.00
H1304  H     0.73523   0.93960   0.79867   0.00000  Uiso   1.00
H1305  H     0.97679   0.93395   0.62824   0.00000  Uiso   1.00
H1306  H     0.73453   0.87466   0.95971   0.00000  Uiso   1.00
H1307  H     0.68733   0.92506   0.65917   0.00000  Uiso   1.00
H1308  H     0.68097   0.97579   0.63617   0.00000  Uiso   1.00
H1309  H     0.77959   0.72362   0.81295   0.00000  Uiso   1.00
H1310  H     0.77564   0.72234   0.75613   0.00000  Uiso   1.00
H1311  H     0.77670   0.67500   0.78743   0.00000  Uiso   1.00
H1312  H     0.78063   0.81840   0.61214   0.00000  Uiso   1.00
H1313  H     0.88462   0.84519   0.88694   0.00000  Uiso   1.00
H1314  H     0.97227   0.85676   0.60792   0.00000  Uiso   1.00
H1315  H     0.69559   0.81762   0.89326   0.00000  Uiso   1.00
H1316  H     0.66764   0.81145   0.97462   0.00000  Uiso   1.00
H1317  H     0.66860   0.87124   0.52781   0.00000  Uiso   1.00
H1318  H     0.85371   0.82292   0.58312   0.00000  Uiso   1.00
N1319  N     0.78403   0.83334   0.74999   0.00000  Uiso   1.00
N1320  N     0.88264   0.83332   0.75001   0.00000  Uiso   1.00
N1321  N     0.95359   0.71046   0.69365   0.00000  Uiso   1.00
N1322  N     0.70494   0.95753   0.81373   0.00000  Uiso   1.00
O1323  O     0.70625   0.77322   0.75000   0.00000  Uiso   1.00
O1324  O     0.71194   0.70930   0.80608   0.00000  Uiso   1.00
O1325  O     0.96042   0.89345   0.75000   0.00000  Uiso   1.00
O1326  O     0.96039   0.77321   0.75000   0.00000  Uiso   1.00
O1327  O     0.70628   0.89346   0.74999   0.00000  Uiso   1.00
O1328  O     0.68519   0.83334   0.81491   0.00000  Uiso   1.00
O1329  O     0.98148   0.83332   0.68508   0.00000  Uiso   1.00
O1330  O     0.93933   0.83333   0.81492   0.00000  Uiso   1.00
O1331  O     0.72733   0.83333   0.68508   0.00000  Uiso   1.00
O1332  O     0.95815   0.95764   0.69179   0.00000  Uiso   1.00
loop_
_geom_bond_atom_site_label_1
_geom_bond_atom_site_label_2
_geom_bond_distance
_geom_bond_site_symmetry_2
_ccdc_geom_bond_type
C1     O65     1.289   .     A
C1     C4      1.450   .     S
C1     O216    1.292   1_455 S
C2     C4      1.408   .     A
C2     O66     1.386   .     S
C2     C477    1.395   1_545 S
C3     C33     1.410   .     A
C3     C160    1.447   1_455 S
C3     C182    1.408   1_455 S
C4     C180    1.406   1_455 S
C5     C7      1.416   .     A
C5     H39     1.081   .     S
C5     N62     1.368   .     A
C6     N61     1.368   .     A
C6     C8      1.417   .     A
C6     H40     1.081   .     S
C7     N61     1.366   .     A
C7     H41     1.081   .     S
C8     H42     1.082   .     S
C8     N62     1.367   .     A
C9     O72     1.295   .     A
C9     C11     1.467   .     S
C9     O144    1.296   .     S
C10    C13     1.466   .     S
C10    O73     1.294   .     A
C10    O219    1.296   1_455 S
C11    C18     1.399   .     A
C11    C16     1.399   .     A
C12    O67     1.291   .     A
C12    C77     1.447   .     S
C12    O143    1.288   .     S
C13    C19     1.398   .     A
C13    C17     1.398   .     A
C14    C16     1.391   .     A
C14    C22     1.404   .     A
C14    H132    1.083   .     S
C15    C24     1.404   .     A
C15    C17     1.392   .     A
C15    H59     1.083   .     S
C16    H131    1.083   .     S
C17    H204    1.083   1_455 S
C18    H55     1.075   .     S
C18    C20     1.406   .     A
C19    C21     1.405   .     A
C19    H54     1.075   .     S
C20    C25     1.427   .     A
C20    C22     1.418   .     A
C21    C26     1.427   .     A
C21    C24     1.418   .     A
C22    C696    1.390   .     S
C23    C26     1.417   .     A
C23    H60     1.076   .     S
C23    C30     1.386   .     A
C24    C697    1.390   1_554 S
C25    C29     1.417   .     A
C25    C692    1.425   .     S
C26    C691    1.425   1_554 S
C27    O74     1.411   .     S
C27    H47     1.109   .     S
C27    H123    1.111   .     S
C27    H124    1.113   .     S
C28    H51     1.108   .     S
C28    O66     1.413   .     S
C28    H53     1.111   .     S
C28    H52     1.113   .     S
C29    H38     1.076   .     S
C29    C31     1.386   .     A
C30    H37     1.084   .     S
C30    C688    1.390   1_554 S
C31    H48     1.084   .     S
C31    C690    1.390   .     S
C32    N63     1.436   .     S
C32    C78     1.406   .     S
C32    C478    1.397   1_545 S
C33    N64     1.437   .     S
C33    C224    1.395   .     S
C34    O74     1.385   .     S
C34    C77     1.408   .     S
C34    C254    1.397   .     S
Cu35   O70     1.958   .     S
Cu35   N61     2.014   .     S
Cu35   O73     1.945   .     S
Cu35   O69     1.962   .     S
Cu35   O65     1.963   .     S
Cu35   Cu184   2.679   1_455 S
Cu36   O67     1.963   .     S
Cu36   N62     2.014   .     S
Cu36   O71     1.958   .     S
Cu36   O68     1.962   .     S
Cu36   O72     1.945   .     S
Cu36   Cu109   2.679   .     S
H43    N63     1.044   .     S
H44    N63     1.046   .     S
H45    N64     1.046   .     S
H46    N64     1.044   .     S
H49    C175    1.111   1_455 S
H50    C175    1.113   1_455 S
H56    C91     1.083   .     S
H57    C164    1.083   1_455 S
H58    C162    1.083   1_455 S
O68    C75     1.292   .     S
O69    C160    1.288   1_455 S
O70    C157    1.296   1_455 S
O71    C84     1.296   .     S
C75    O139    1.289   .     A
C75    C78     1.450   .     S
C76    C78     1.408   .     A
C76    O140    1.386   .     S
C76    C551    1.395   1_545 S
C77    C107    1.410   .     A
C79    C81     1.416   .     A
C79    H113    1.081   .     S
C79    N136    1.368   .     A
C80    N135    1.368   .     A
C80    C82     1.417   .     A
C80    H114    1.081   .     S
C81    N135    1.366   .     A
C81    H115    1.081   .     S
C82    H116    1.082   .     S
C82    N136    1.367   .     A
C83    O146    1.295   .     A
C83    C85     1.467   .     S
C83    O218    1.296   .     S
C84    C87     1.466   .     S
C84    O147    1.294   .     A
C85    C92     1.399   .     A
C85    C90     1.399   .     A
C86    O141    1.291   .     A
C86    C151    1.447   .     S
C86    O217    1.288   .     S
C87    C93     1.398   .     A
C87    C91     1.398   .     A
C88    C90     1.391   .     A
C88    C96     1.404   .     A
C88    H206    1.083   .     S
C89    C98     1.404   .     A
C89    C91     1.392   .     A
C89    H133    1.083   .     S
C90    H205    1.083   .     S
C92    H129    1.075   .     S
C92    C94     1.406   .     A
C93    C95     1.405   .     A
C93    H128    1.075   .     S
C94    C99     1.427   .     A
C94    C96     1.418   .     A
C95    C100    1.427   .     A
C95    C98     1.418   .     A
C96    C770    1.390   .     S
C97    C100    1.417   .     A
C97    H134    1.076   .     S
C97    C104    1.386   .     A
C98    C771    1.390   1_554 S
C99    C103    1.417   .     A
C99    C766    1.425   .     S
C100   C765    1.425   1_554 S
C101   O148    1.411   .     S
C101   H121    1.109   .     S
C101   H197    1.111   .     S
C101   H198    1.113   .     S
C102   H125    1.108   .     S
C102   O140    1.413   .     S
C102   H127    1.111   .     S
C102   H126    1.113   .     S
C103   H112    1.076   .     S
C103   C105    1.386   .     A
C104   H111    1.084   .     S
C104   C762    1.390   1_554 S
C105   H122    1.084   .     S
C105   C764    1.390   .     S
C106   N137    1.436   .     S
C106   C152    1.406   .     S
C106   C552    1.397   1_545 S
C107   N138    1.437   .     S
C107   C298    1.395   .     S
C108   O148    1.385   .     S
C108   C151    1.408   .     S
C108   C328    1.397   .     S
Cu109  O144    1.958   .     S
Cu109  N135    2.014   .     S
Cu109  O147    1.945   .     S
Cu109  O143    1.962   .     S
Cu109  O139    1.963   .     S
Cu110  O141    1.963   .     S
Cu110  N136    2.014   .     S
Cu110  O145    1.958   .     S
Cu110  O142    1.962   .     S
Cu110  O146    1.945   .     S
Cu110  Cu183   2.679   .     S
H117   N137    1.044   .     S
H118   N137    1.046   .     S
H119   N138    1.046   .     S
H120   N138    1.044   .     S
H130   C165    1.083   .     S
O142   C149    1.292   .     S
O145   C158    1.296   .     S
C149   O213    1.289   .     A
C149   C152    1.450   .     S
C150   C152    1.408   .     A
C150   O214    1.386   .     S
C150   C625    1.395   1_545 S
C151   C181    1.410   .     A
C153   C155    1.416   .     A
C153   H187    1.081   .     S
C153   N210    1.368   .     A
C154   N209    1.368   .     A
C154   C156    1.417   .     A
C154   H188    1.081   .     S
C155   N209    1.366   .     A
C155   H189    1.081   .     S
C156   H190    1.082   .     S
C156   N210    1.367   .     A
C157   O220    1.295   .     A
C157   C159    1.467   .     S
C157   O70     1.296   1_655 S
C158   C161    1.466   .     S
C158   O221    1.294   .     A
C159   C166    1.399   .     A
C159   C164    1.399   .     A
C160   O215    1.291   .     A
C160   C3      1.447   1_655 S
C160   O69     1.288   1_655 S
C161   C167    1.398   .     A
C161   C165    1.398   .     A
C162   C164    1.391   .     A
C162   C170    1.404   .     A
C162   H58     1.083   1_655 S
C163   C172    1.404   .     A
C163   C165    1.392   .     A
C163   H207    1.083   .     S
C164   H57     1.083   1_655 S
C166   H203    1.075   .     S
C166   C168    1.406   .     A
C167   C169    1.405   .     A
C167   H202    1.075   .     S
C168   C173    1.427   .     A
C168   C170    1.418   .     A
C169   C174    1.427   .     A
C169   C172    1.418   .     A
C170   C844    1.390   .     S
C171   C174    1.417   .     A
C171   H208    1.076   .     S
C171   C178    1.386   .     A
C172   C845    1.390   1_554 S
C173   C177    1.417   .     A
C173   C840    1.425   .     S
C174   C839    1.425   1_554 S
C175   O222    1.411   .     S
C175   H195    1.109   .     S
C175   H49     1.111   1_655 S
C175   H50     1.113   1_655 S
C176   H199    1.108   .     S
C176   O214    1.413   .     S
C176   H201    1.111   .     S
C176   H200    1.113   .     S
C177   H186    1.076   .     S
C177   C179    1.386   .     A
C178   H185    1.084   .     S
C178   C836    1.390   1_554 S
C179   H196    1.084   .     S
C179   C838    1.390   .     S
C180   N211    1.436   .     S
C180   C4      1.406   1_655 S
C180   C626    1.397   1_545 S
C181   N212    1.437   .     S
C181   C372    1.395   .     S
C182   O222    1.385   .     S
C182   C3      1.408   1_655 S
C182   C402    1.397   .     S
Cu183  O218    1.958   .     S
Cu183  N209    2.014   .     S
Cu183  O221    1.945   .     S
Cu183  O217    1.962   .     S
Cu183  O213    1.963   .     S
Cu184  O215    1.963   .     S
Cu184  N210    2.014   .     S
Cu184  O219    1.958   .     S
Cu184  O216    1.962   .     S
Cu184  O220    1.945   .     S
Cu184  Cu35    2.679   1_655 S
H191   N211    1.044   .     S
H192   N211    1.046   .     S
H193   N212    1.046   .     S
H194   N212    1.044   .     S
H204   C17     1.083   1_655 S
O216   C1      1.292   1_655 S
O219   C10     1.296   1_655 S
C223   O287    1.289   .     A
C223   C226    1.450   .     S
C223   O438    1.292   1_455 S
C224   C226    1.408   .     A
C224   O288    1.386   .     S
C225   C255    1.410   .     A
C225   C382    1.447   1_455 S
C225   C404    1.408   1_455 S
C226   C402    1.406   1_455 S
C227   C229    1.416   .     A
C227   H261    1.081   .     S
C227   N284    1.368   .     A
C228   N283    1.368   .     A
C228   C230    1.417   .     A
C228   H262    1.081   .     S
C229   N283    1.366   .     A
C229   H263    1.081   .     S
C230   H264    1.082   .     S
C230   N284    1.367   .     A
C231   O294    1.295   .     A
C231   C233    1.467   .     S
C231   O366    1.296   .     S
C232   C235    1.466   .     S
C232   O295    1.294   .     A
C232   O441    1.296   1_455 S
C233   C240    1.399   .     A
C233   C238    1.399   .     A
C234   O289    1.291   .     A
C234   C299    1.447   .     S
C234   O365    1.288   .     S
C235   C241    1.398   .     A
C235   C239    1.398   .     A
C236   C238    1.391   .     A
C236   C244    1.404   .     A
C236   H354    1.083   .     S
C237   C246    1.404   .     A
C237   C239    1.392   .     A
C237   H281    1.083   .     S
C238   H353    1.083   .     S
C239   H426    1.083   1_455 S
C240   H277    1.075   .     S
C240   C242    1.406   .     A
C241   C243    1.405   .     A
C241   H276    1.075   .     S
C242   C247    1.427   .     A
C242   C244    1.418   .     A
C243   C248    1.427   .     A
C243   C246    1.418   .     A
C244   C918    1.390   .     S
C245   C248    1.417   .     A
C245   H282    1.076   .     S
C245   C252    1.386   .     A
C246   C919    1.390   1_554 S
C247   C251    1.417   .     A
C247   C914    1.425   .     S
C248   C913    1.425   1_554 S
C249   O296    1.411   .     S
C249   H269    1.109   .     S
C249   H345    1.111   .     S
C249   H346    1.113   .     S
C250   H273    1.108   .     S
C250   O288    1.413   .     S
C250   H275    1.111   .     S
C250   H274    1.113   .     S
C251   H260    1.076   .     S
C251   C253    1.386   .     A
C252   H259    1.084   .     S
C252   C910    1.390   1_554 S
C253   H270    1.084   .     S
C253   C912    1.390   .     S
C254   N285    1.436   .     S
C254   C300    1.406   .     S
C255   N286    1.437   .     S
C255   C446    1.395   .     S
C256   O296    1.385   .     S
C256   C299    1.408   .     S
C256   C476    1.397   .     S
Cu257  O292    1.958   .     S
Cu257  N283    2.014   .     S
Cu257  O295    1.945   .     S
Cu257  O291    1.962   .     S
Cu257  O287    1.963   .     S
Cu257  Cu406   2.679   1_455 S
Cu258  O289    1.963   .     S
Cu258  N284    2.014   .     S
Cu258  O293    1.958   .     S
Cu258  O290    1.962   .     S
Cu258  O294    1.945   .     S
Cu258  Cu331   2.679   .     S
H265   N285    1.044   .     S
H266   N285    1.046   .     S
H267   N286    1.046   .     S
H268   N286    1.044   .     S
H271   C397    1.111   1_455 S
H272   C397    1.113   1_455 S
H278   C313    1.083   .     S
H279   C386    1.083   1_455 S
H280   C384    1.083   1_455 S
O290   C297    1.292   .     S
O291   C382    1.288   1_455 S
O292   C379    1.296   1_455 S
O293   C306    1.296   .     S
C297   O361    1.289   .     A
C297   C300    1.450   .     S
C298   C300    1.408   .     A
C298   O362    1.386   .     S
C299   C329    1.410   .     A
C301   C303    1.416   .     A
C301   H335    1.081   .     S
C301   N358    1.368   .     A
C302   N357    1.368   .     A
C302   C304    1.417   .     A
C302   H336    1.081   .     S
C303   N357    1.366   .     A
C303   H337    1.081   .     S
C304   H338    1.082   .     S
C304   N358    1.367   .     A
C305   O368    1.295   .     A
C305   C307    1.467   .     S
C305   O440    1.296   .     S
C306   C309    1.466   .     S
C306   O369    1.294   .     A
C307   C314    1.399   .     A
C307   C312    1.399   .     A
C308   O363    1.291   .     A
C308   C373    1.447   .     S
C308   O439    1.288   .     S
C309   C315    1.398   .     A
C309   C313    1.398   .     A
C310   C312    1.391   .     A
C310   C318    1.404   .     A
C310   H428    1.083   .     S
C311   C320    1.404   .     A
C311   C313    1.392   .     A
C311   H355    1.083   .     S
C312   H427    1.083   .     S
C314   H351    1.075   .     S
C314   C316    1.406   .     A
C315   C317    1.405   .     A
C315   H350    1.075   .     S
C316   C321    1.427   .     A
C316   C318    1.418   .     A
C317   C322    1.427   .     A
C317   C320    1.418   .     A
C318   C992    1.390   .     S
C319   C322    1.417   .     A
C319   H356    1.076   .     S
C319   C326    1.386   .     A
C320   C993    1.390   1_554 S
C321   C325    1.417   .     A
C321   C988    1.425   .     S
C322   C987    1.425   1_554 S
C323   O370    1.411   .     S
C323   H343    1.109   .     S
C323   H419    1.111   .     S
C323   H420    1.113   .     S
C324   H347    1.108   .     S
C324   O362    1.413   .     S
C324   H349    1.111   .     S
C324   H348    1.113   .     S
C325   H334    1.076   .     S
C325   C327    1.386   .     A
C326   H333    1.084   .     S
C326   C984    1.390   1_554 S
C327   H344    1.084   .     S
C327   C986    1.390   .     S
C328   N359    1.436   .     S
C328   C374    1.406   .     S
C329   N360    1.437   .     S
C329   C520    1.395   .     S
C330   O370    1.385   .     S
C330   C373    1.408   .     S
C330   C550    1.397   .     S
Cu331  O366    1.958   .     S
Cu331  N357    2.014   .     S
Cu331  O369    1.945   .     S
Cu331  O365    1.962   .     S
Cu331  O361    1.963   .     S
Cu332  O363    1.963   .     S
Cu332  N358    2.014   .     S
Cu332  O367    1.958   .     S
Cu332  O364    1.962   .     S
Cu332  O368    1.945   .     S
Cu332  Cu405   2.679   .     S
H339   N359    1.044   .     S
H340   N359    1.046   .     S
H341   N360    1.046   .     S
H342   N360    1.044   .     S
H352   C387    1.083   .     S
O364   C371    1.292   .     S
O367   C380    1.296   .     S
C371   O435    1.289   .     A
C371   C374    1.450   .     S
C372   C374    1.408   .     A
C372   O436    1.386   .     S
C373   C403    1.410   .     A
C375   C377    1.416   .     A
C375   H409    1.081   .     S
C375   N432    1.368   .     A
C376   N431    1.368   .     A
C376   C378    1.417   .     A
C376   H410    1.081   .     S
C377   N431    1.366   .     A
C377   H411    1.081   .     S
C378   H412    1.082   .     S
C378   N432    1.367   .     A
C379   O442    1.295   .     A
C379   C381    1.467   .     S
C379   O292    1.296   1_655 S
C380   C383    1.466   .     S
C380   O443    1.294   .     A
C381   C388    1.399   .     A
C381   C386    1.399   .     A
C382   O437    1.291   .     A
C382   C225    1.447   1_655 S
C382   O291    1.288   1_655 S
C383   C389    1.398   .     A
C383   C387    1.398   .     A
C384   C386    1.391   .     A
C384   C392    1.404   .     A
C384   H280    1.083   1_655 S
C385   C394    1.404   .     A
C385   C387    1.392   .     A
C385   H429    1.083   .     S
C386   H279    1.083   1_655 S
C388   H425    1.075   .     S
C388   C390    1.406   .     A
C389   C391    1.405   .     A
C389   H424    1.075   .     S
C390   C395    1.427   .     A
C390   C392    1.418   .     A
C391   C396    1.427   .     A
C391   C394    1.418   .     A
C392   C1066   1.390   .     S
C393   C396    1.417   .     A
C393   H430    1.076   .     S
C393   C400    1.386   .     A
C394   C1067   1.390   1_554 S
C395   C399    1.417   .     A
C395   C1062   1.425   .     S
C396   C1061   1.425   1_554 S
C397   O444    1.411   .     S
C397   H417    1.109   .     S
C397   H271    1.111   1_655 S
C397   H272    1.113   1_655 S
C398   H421    1.108   .     S
C398   O436    1.413   .     S
C398   H423    1.111   .     S
C398   H422    1.113   .     S
C399   H408    1.076   .     S
C399   C401    1.386   .     A
C400   H407    1.084   .     S
C400   C1058   1.390   1_554 S
C401   H418    1.084   .     S
C401   C1060   1.390   .     S
C402   N433    1.436   .     S
C402   C226    1.406   1_655 S
C403   N434    1.437   .     S
C403   C594    1.395   .     S
C404   O444    1.385   .     S
C404   C225    1.408   1_655 S
C404   C624    1.397   .     S
Cu405  O440    1.958   .     S
Cu405  N431    2.014   .     S
Cu405  O443    1.945   .     S
Cu405  O439    1.962   .     S
Cu405  O435    1.963   .     S
Cu406  O437    1.963   .     S
Cu406  N432    2.014   .     S
Cu406  O441    1.958   .     S
Cu406  O438    1.962   .     S
Cu406  O442    1.945   .     S
Cu406  Cu257   2.679   1_655 S
H413   N433    1.044   .     S
H414   N433    1.046   .     S
H415   N434    1.046   .     S
H416   N434    1.044   .     S
H426   C239    1.083   1_655 S
O438   C223    1.292   1_655 S
O441   C232    1.296   1_655 S
C445   O509    1.289   .     A
C445   C448    1.450   .     S
C445   O660    1.292   1_455 S
C446   C448    1.408   .     A
C446   O510    1.386   .     S
C447   C477    1.410   .     A
C447   C604    1.447   1_455 S
C447   C626    1.408   1_455 S
C448   C624    1.406   1_455 S
C449   C451    1.416   .     A
C449   H483    1.081   .     S
C449   N506    1.368   .     A
C450   N505    1.368   .     A
C450   C452    1.417   .     A
C450   H484    1.081   .     S
C451   N505    1.366   .     A
C451   H485    1.081   .     S
C452   H486    1.082   .     S
C452   N506    1.367   .     A
C453   O516    1.295   .     A
C453   C455    1.467   .     S
C453   O588    1.296   .     S
C454   C457    1.466   .     S
C454   O517    1.294   .     A
C454   O663    1.296   1_455 S
C455   C462    1.399   .     A
C455   C460    1.399   .     A
C456   O511    1.291   .     A
C456   C521    1.447   .     S
C456   O587    1.288   .     S
C457   C463    1.398   .     A
C457   C461    1.398   .     A
C458   C460    1.391   .     A
C458   C466    1.404   .     A
C458   H576    1.083   .     S
C459   C468    1.404   .     A
C459   C461    1.392   .     A
C459   H503    1.083   .     S
C460   H575    1.083   .     S
C461   H648    1.083   1_455 S
C462   H499    1.075   .     S
C462   C464    1.406   .     A
C463   C465    1.405   .     A
C463   H498    1.075   .     S
C464   C469    1.427   .     A
C464   C466    1.418   .     A
C465   C470    1.427   .     A
C465   C468    1.418   .     A
C466   C1140   1.390   .     S
C467   C470    1.417   .     A
C467   H504    1.076   .     S
C467   C474    1.386   .     A
C468   C1141   1.390   1_554 S
C469   C473    1.417   .     A
C469   C1136   1.425   .     S
C470   C1135   1.425   1_554 S
C471   O518    1.411   .     S
C471   H491    1.109   .     S
C471   H567    1.111   .     S
C471   H568    1.113   .     S
C472   H495    1.108   .     S
C472   O510    1.413   .     S
C472   H497    1.111   .     S
C472   H496    1.113   .     S
C473   H482    1.076   .     S
C473   C475    1.386   .     A
C474   H481    1.084   .     S
C474   C1132   1.390   1_554 S
C475   H492    1.084   .     S
C475   C1134   1.390   .     S
C476   N507    1.436   .     S
C476   C522    1.406   .     S
C477   N508    1.437   .     S
C477   C2      1.395   1_565 S
C478   O518    1.385   .     S
C478   C521    1.408   .     S
C478   C32     1.397   1_565 S
Cu479  O514    1.958   .     S
Cu479  N505    2.014   .     S
Cu479  O517    1.945   .     S
Cu479  O513    1.962   .     S
Cu479  O509    1.963   .     S
Cu479  Cu628   2.679   1_455 S
Cu480  O511    1.963   .     S
Cu480  N506    2.014   .     S
Cu480  O515    1.958   .     S
Cu480  O512    1.962   .     S
Cu480  O516    1.945   .     S
Cu480  Cu553   2.679   .     S
H487   N507    1.044   .     S
H488   N507    1.046   .     S
H489   N508    1.046   .     S
H490   N508    1.044   .     S
H493   C619    1.111   1_455 S
H494   C619    1.113   1_455 S
H500   C535    1.083   .     S
H501   C608    1.083   1_455 S
H502   C606    1.083   1_455 S
O512   C519    1.292   .     S
O513   C604    1.288   1_455 S
O514   C601    1.296   1_455 S
O515   C528    1.296   .     S
C519   O583    1.289   .     A
C519   C522    1.450   .     S
C520   C522    1.408   .     A
C520   O584    1.386   .     S
C521   C551    1.410   .     A
C523   C525    1.416   .     A
C523   H557    1.081   .     S
C523   N580    1.368   .     A
C524   N579    1.368   .     A
C524   C526    1.417   .     A
C524   H558    1.081   .     S
C525   N579    1.366   .     A
C525   H559    1.081   .     S
C526   H560    1.082   .     S
C526   N580    1.367   .     A
C527   O590    1.295   .     A
C527   C529    1.467   .     S
C527   O662    1.296   .     S
C528   C531    1.466   .     S
C528   O591    1.294   .     A
C529   C536    1.399   .     A
C529   C534    1.399   .     A
C530   O585    1.291   .     A
C530   C595    1.447   .     S
C530   O661    1.288   .     S
C531   C537    1.398   .     A
C531   C535    1.398   .     A
C532   C534    1.391   .     A
C532   C540    1.404   .     A
C532   H650    1.083   .     S
C533   C542    1.404   .     A
C533   C535    1.392   .     A
C533   H577    1.083   .     S
C534   H649    1.083   .     S
C536   H573    1.075   .     S
C536   C538    1.406   .     A
C537   C539    1.405   .     A
C537   H572    1.075   .     S
C538   C543    1.427   .     A
C538   C540    1.418   .     A
C539   C544    1.427   .     A
C539   C542    1.418   .     A
C540   C1214   1.390   .     S
C541   C544    1.417   .     A
C541   H578    1.076   .     S
C541   C548    1.386   .     A
C542   C1215   1.390   1_554 S
C543   C547    1.417   .     A
C543   C1210   1.425   .     S
C544   C1209   1.425   1_554 S
C545   O592    1.411   .     S
C545   H565    1.109   .     S
C545   H641    1.111   .     S
C545   H642    1.113   .     S
C546   H569    1.108   .     S
C546   O584    1.413   .     S
C546   H571    1.111   .     S
C546   H570    1.113   .     S
C547   H556    1.076   .     S
C547   C549    1.386   .     A
C548   H555    1.084   .     S
C548   C1206   1.390   1_554 S
C549   H566    1.084   .     S
C549   C1208   1.390   .     S
C550   N581    1.436   .     S
C550   C596    1.406   .     S
C551   N582    1.437   .     S
C551   C76     1.395   1_565 S
C552   O592    1.385   .     S
C552   C595    1.408   .     S
C552   C106    1.397   1_565 S
Cu553  O588    1.958   .     S
Cu553  N579    2.014   .     S
Cu553  O591    1.945   .     S
Cu553  O587    1.962   .     S
Cu553  O583    1.963   .     S
Cu554  O585    1.963   .     S
Cu554  N580    2.014   .     S
Cu554  O589    1.958   .     S
Cu554  O586    1.962   .     S
Cu554  O590    1.945   .     S
Cu554  Cu627   2.679   .     S
H561   N581    1.044   .     S
H562   N581    1.046   .     S
H563   N582    1.046   .     S
H564   N582    1.044   .     S
H574   C609    1.083   .     S
O586   C593    1.292   .     S
O589   C602    1.296   .     S
C593   O657    1.289   .     A
C593   C596    1.450   .     S
C594   C596    1.408   .     A
C594   O658    1.386   .     S
C595   C625    1.410   .     A
C597   C599    1.416   .     A
C597   H631    1.081   .     S
C597   N654    1.368   .     A
C598   N653    1.368   .     A
C598   C600    1.417   .     A
C598   H632    1.081   .     S
C599   N653    1.366   .     A
C599   H633    1.081   .     S
C600   H634    1.082   .     S
C600   N654    1.367   .     A
C601   O664    1.295   .     A
C601   C603    1.467   .     S
C601   O514    1.296   1_655 S
C602   C605    1.466   .     S
C602   O665    1.294   .     A
C603   C610    1.399   .     A
C603   C608    1.399   .     A
C604   O659    1.291   .     A
C604   C447    1.447   1_655 S
C604   O513    1.288   1_655 S
C605   C611    1.398   .     A
C605   C609    1.398   .     A
C606   C608    1.391   .     A
C606   C614    1.404   .     A
C606   H502    1.083   1_655 S
C607   C616    1.404   .     A
C607   C609    1.392   .     A
C607   H651    1.083   .     S
C608   H501    1.083   1_655 S
C610   H647    1.075   .     S
C610   C612    1.406   .     A
C611   C613    1.405   .     A
C611   H646    1.075   .     S
C612   C617    1.427   .     A
C612   C614    1.418   .     A
C613   C618    1.427   .     A
C613   C616    1.418   .     A
C614   C1288   1.390   .     S
C615   C618    1.417   .     A
C615   H652    1.076   .     S
C615   C622    1.386   .     A
C616   C1289   1.390   1_554 S
C617   C621    1.417   .     A
C617   C1284   1.425   .     S
C618   C1283   1.425   1_554 S
C619   O666    1.411   .     S
C619   H639    1.109   .     S
C619   H493    1.111   1_655 S
C619   H494    1.113   1_655 S
C620   H643    1.108   .     S
C620   O658    1.413   .     S
C620   H645    1.111   .     S
C620   H644    1.113   .     S
C621   H630    1.076   .     S
C621   C623    1.386   .     A
C622   H629    1.084   .     S
C622   C1280   1.390   1_554 S
C623   H640    1.084   .     S
C623   C1282   1.390   .     S
C624   N655    1.436   .     S
C624   C448    1.406   1_655 S
C625   N656    1.437   .     S
C625   C150    1.395   1_565 S
C626   O666    1.385   .     S
C626   C447    1.408   1_655 S
C626   C180    1.397   1_565 S
Cu627  O662    1.958   .     S
Cu627  N653    2.014   .     S
Cu627  O665    1.945   .     S
Cu627  O661    1.962   .     S
Cu627  O657    1.963   .     S
Cu628  O659    1.963   .     S
Cu628  N654    2.014   .     S
Cu628  O663    1.958   .     S
Cu628  O660    1.962   .     S
Cu628  O664    1.945   .     S
Cu628  Cu479   2.679   1_655 S
H635   N655    1.044   .     S
H636   N655    1.046   .     S
H637   N656    1.046   .     S
H638   N656    1.044   .     S
H648   C461    1.083   1_655 S
O660   C445    1.292   1_655 S
O663   C454    1.296   1_655 S
C667   O731    1.289   .     A
C667   C670    1.450   .     S
C667   O882    1.292   1_455 S
C668   C670    1.408   .     A
C668   O732    1.386   .     S
C668   C1143   1.395   1_545 S
C669   C699    1.410   .     A
C669   C826    1.447   1_455 S
C669   C848    1.408   1_455 S
C670   C846    1.406   1_455 S
C671   C673    1.416   .     A
C671   H705    1.081   .     S
C671   N728    1.368   .     A
C672   N727    1.368   .     A
C672   C674    1.417   .     A
C672   H706    1.081   .     S
C673   N727    1.366   .     A
C673   H707    1.081   .     S
C674   H708    1.082   .     S
C674   N728    1.367   .     A
C675   O738    1.295   .     A
C675   C677    1.467   .     S
C675   O810    1.296   .     S
C676   C679    1.466   .     S
C676   O739    1.294   .     A
C676   O885    1.296   1_455 S
C677   C684    1.399   .     A
C677   C682    1.399   .     A
C678   O733    1.291   .     A
C678   C743    1.447   .     S
C678   O809    1.288   .     S
C679   C685    1.398   .     A
C679   C683    1.398   .     A
C680   C682    1.391   .     A
C680   C688    1.404   .     A
C680   H798    1.083   .     S
C681   C690    1.404   .     A
C681   C683    1.392   .     A
C681   H725    1.083   .     S
C682   H797    1.083   .     S
C683   H870    1.083   1_455 S
C684   H721    1.075   .     S
C684   C686    1.406   .     A
C685   C687    1.405   .     A
C685   H720    1.075   .     S
C686   C691    1.427   .     A
C686   C688    1.418   .     A
C687   C692    1.427   .     A
C687   C690    1.418   .     A
C688   C30     1.390   1_556 S
C689   C692    1.417   .     A
C689   H726    1.076   .     S
C689   C696    1.386   .     A
C691   C695    1.417   .     A
C691   C26     1.425   1_556 S
C693   O740    1.411   .     S
C693   H713    1.109   .     S
C693   H789    1.111   .     S
C693   H790    1.113   .     S
C694   H717    1.108   .     S
C694   O732    1.413   .     S
C694   H719    1.111   .     S
C694   H718    1.113   .     S
C695   H704    1.076   .     S
C695   C697    1.386   .     A
C696   H703    1.084   .     S
C697   H714    1.084   .     S
C697   C24     1.390   1_556 S
C698   N729    1.436   .     S
C698   C744    1.406   .     S
C698   C1144   1.397   1_545 S
C699   N730    1.437   .     S
C699   C890    1.395   .     S
C700   O740    1.385   .     S
C700   C743    1.408   .     S
C700   C920    1.397   .     S
Cu701  O736    1.958   .     S
Cu701  N727    2.014   .     S
Cu701  O739    1.945   .     S
Cu701  O735    1.962   .     S
Cu701  O731    1.963   .     S
Cu701  Cu850   2.679   1_455 S
Cu702  O733    1.963   .     S
Cu702  N728    2.014   .     S
Cu702  O737    1.958   .     S
Cu702  O734    1.962   .     S
Cu702  O738    1.945   .     S
Cu702  Cu775   2.679   .     S
H709   N729    1.044   .     S
H710   N729    1.046   .     S
H711   N730    1.046   .     S
H712   N730    1.044   .     S
H715   C841    1.111   1_455 S
H716   C841    1.113   1_455 S
H722   C757    1.083   .     S
H723   C830    1.083   1_455 S
H724   C828    1.083   1_455 S
O734   C741    1.292   .     S
O735   C826    1.288   1_455 S
O736   C823    1.296   1_455 S
O737   C750    1.296   .     S
C741   O805    1.289   .     A
C741   C744    1.450   .     S
C742   C744    1.408   .     A
C742   O806    1.386   .     S
C742   C1217   1.395   1_545 S
C743   C773    1.410   .     A
C745   C747    1.416   .     A
C745   H779    1.081   .     S
C745   N802    1.368   .     A
C746   N801    1.368   .     A
C746   C748    1.417   .     A
C746   H780    1.081   .     S
C747   N801    1.366   .     A
C747   H781    1.081   .     S
C748   H782    1.082   .     S
C748   N802    1.367   .     A
C749   O812    1.295   .     A
C749   C751    1.467   .     S
C749   O884    1.296   .     S
C750   C753    1.466   .     S
C750   O813    1.294   .     A
C751   C758    1.399   .     A
C751   C756    1.399   .     A
C752   O807    1.291   .     A
C752   C817    1.447   .     S
C752   O883    1.288   .     S
C753   C759    1.398   .     A
C753   C757    1.398   .     A
C754   C756    1.391   .     A
C754   C762    1.404   .     A
C754   H872    1.083   .     S
C755   C764    1.404   .     A
C755   C757    1.392   .     A
C755   H799    1.083   .     S
C756   H871    1.083   .     S
C758   H795    1.075   .     S
C758   C760    1.406   .     A
C759   C761    1.405   .     A
C759   H794    1.075   .     S
C760   C765    1.427   .     A
C760   C762    1.418   .     A
C761   C766    1.427   .     A
C761   C764    1.418   .     A
C762   C104    1.390   1_556 S
C763   C766    1.417   .     A
C763   H800    1.076   .     S
C763   C770    1.386   .     A
C765   C769    1.417   .     A
C765   C100    1.425   1_556 S
C767   O814    1.411   .     S
C767   H787    1.109   .     S
C767   H863    1.111   .     S
C767   H864    1.113   .     S
C768   H791    1.108   .     S
C768   O806    1.413   .     S
C768   H793    1.111   .     S
C768   H792    1.113   .     S
C769   H778    1.076   .     S
C769   C771    1.386   .     A
C770   H777    1.084   .     S
C771   H788    1.084   .     S
C771   C98     1.390   1_556 S
C772   N803    1.436   .     S
C772   C818    1.406   .     S
C772   C1218   1.397   1_545 S
C773   N804    1.437   .     S
C773   C964    1.395   .     S
C774   O814    1.385   .     S
C774   C817    1.408   .     S
C774   C994    1.397   .     S
Cu775  O810    1.958   .     S
Cu775  N801    2.014   .     S
Cu775  O813    1.945   .     S
Cu775  O809    1.962   .     S
Cu775  O805    1.963   .     S
Cu776  O807    1.963   .     S
Cu776  N802    2.014   .     S
Cu776  O811    1.958   .     S
Cu776  O808    1.962   .     S
Cu776  O812    1.945   .     S
Cu776  Cu849   2.679   .     S
H783   N803    1.044   .     S
H784   N803    1.046   .     S
H785   N804    1.046   .     S
H786   N804    1.044   .     S
H796   C831    1.083   .     S
O808   C815    1.292   .     S
O811   C824    1.296   .     S
C815   O879    1.289   .     A
C815   C818    1.450   .     S
C816   C818    1.408   .     A
C816   O880    1.386   .     S
C816   C1291   1.395   1_545 S
C817   C847    1.410   .     A
C819   C821    1.416   .     A
C819   H853    1.081   .     S
C819   N876    1.368   .     A
C820   N875    1.368   .     A
C820   C822    1.417   .     A
C820   H854    1.081   .     S
C821   N875    1.366   .     A
C821   H855    1.081   .     S
C822   H856    1.082   .     S
C822   N876    1.367   .     A
C823   O886    1.295   .     A
C823   C825    1.467   .     S
C823   O736    1.296   1_655 S
C824   C827    1.466   .     S
C824   O887    1.294   .     A
C825   C832    1.399   .     A
C825   C830    1.399   .     A
C826   O881    1.291   .     A
C826   C669    1.447   1_655 S
C826   O735    1.288   1_655 S
C827   C833    1.398   .     A
C827   C831    1.398   .     A
C828   C830    1.391   .     A
C828   C836    1.404   .     A
C828   H724    1.083   1_655 S
C829   C838    1.404   .     A
C829   C831    1.392   .     A
C829   H873    1.083   .     S
C830   H723    1.083   1_655 S
C832   H869    1.075   .     S
C832   C834    1.406   .     A
C833   C835    1.405   .     A
C833   H868    1.075   .     S
C834   C839    1.427   .     A
C834   C836    1.418   .     A
C835   C840    1.427   .     A
C835   C838    1.418   .     A
C836   C178    1.390   1_556 S
C837   C840    1.417   .     A
C837   H874    1.076   .     S
C837   C844    1.386   .     A
C839   C843    1.417   .     A
C839   C174    1.425   1_556 S
C841   O888    1.411   .     S
C841   H861    1.109   .     S
C841   H715    1.111   1_655 S
C841   H716    1.113   1_655 S
C842   H865    1.108   .     S
C842   O880    1.413   .     S
C842   H867    1.111   .     S
C842   H866    1.113   .     S
C843   H852    1.076   .     S
C843   C845    1.386   .     A
C844   H851    1.084   .     S
C845   H862    1.084   .     S
C845   C172    1.390   1_556 S
C846   N877    1.436   .     S
C846   C670    1.406   1_655 S
C846   C1292   1.397   1_545 S
C847   N878    1.437   .     S
C847   C1038   1.395   .     S
C848   O888    1.385   .     S
C848   C669    1.408   1_655 S
C848   C1068   1.397   .     S
Cu849  O884    1.958   .     S
Cu849  N875    2.014   .     S
Cu849  O887    1.945   .     S
Cu849  O883    1.962   .     S
Cu849  O879    1.963   .     S
Cu850  O881    1.963   .     S
Cu850  N876    2.014   .     S
Cu850  O885    1.958   .     S
Cu850  O882    1.962   .     S
Cu850  O886    1.945   .     S
Cu850  Cu701   2.679   1_655 S
H857   N877    1.044   .     S
H858   N877    1.046   .     S
H859   N878    1.046   .     S
H860   N878    1.044   .     S
H870   C683    1.083   1_655 S
O882   C667    1.292   1_655 S
O885   C676    1.296   1_655 S
C889   O953    1.289   .     A
C889   C892    1.450   .     S
C889   O1104   1.292   1_455 S
C890   C892    1.408   .     A
C890   O954    1.386   .     S
C891   C921    1.410   .     A
C891   C1048   1.447   1_455 S
C891   C1070   1.408   1_455 S
C892   C1068   1.406   1_455 S
C893   C895    1.416   .     A
C893   H927    1.081   .     S
C893   N950    1.368   .     A
C894   N949    1.368   .     A
C894   C896    1.417   .     A
C894   H928    1.081   .     S
C895   N949    1.366   .     A
C895   H929    1.081   .     S
C896   H930    1.082   .     S
C896   N950    1.367   .     A
C897   O960    1.295   .     A
C897   C899    1.467   .     S
C897   O1032   1.296   .     S
C898   C901    1.466   .     S
C898   O961    1.294   .     A
C898   O1107   1.296   1_455 S
C899   C906    1.399   .     A
C899   C904    1.399   .     A
C900   O955    1.291   .     A
C900   C965    1.447   .     S
C900   O1031   1.288   .     S
C901   C907    1.398   .     A
C901   C905    1.398   .     A
C902   C904    1.391   .     A
C902   C910    1.404   .     A
C902   H1020   1.083   .     S
C903   C912    1.404   .     A
C903   C905    1.392   .     A
C903   H947    1.083   .     S
C904   H1019   1.083   .     S
C905   H1092   1.083   1_455 S
C906   H943    1.075   .     S
C906   C908    1.406   .     A
C907   C909    1.405   .     A
C907   H942    1.075   .     S
C908   C913    1.427   .     A
C908   C910    1.418   .     A
C909   C914    1.427   .     A
C909   C912    1.418   .     A
C910   C252    1.390   1_556 S
C911   C914    1.417   .     A
C911   H948    1.076   .     S
C911   C918    1.386   .     A
C913   C917    1.417   .     A
C913   C248    1.425   1_556 S
C915   O962    1.411   .     S
C915   H935    1.109   .     S
C915   H1011   1.111   .     S
C915   H1012   1.113   .     S
C916   H939    1.108   .     S
C916   O954    1.413   .     S
C916   H941    1.111   .     S
C916   H940    1.113   .     S
C917   H926    1.076   .     S
C917   C919    1.386   .     A
C918   H925    1.084   .     S
C919   H936    1.084   .     S
C919   C246    1.390   1_556 S
C920   N951    1.436   .     S
C920   C966    1.406   .     S
C921   N952    1.437   .     S
C921   C1112   1.395   .     S
C922   O962    1.385   .     S
C922   C965    1.408   .     S
C922   C1142   1.397   .     S
Cu923  O958    1.958   .     S
Cu923  N949    2.014   .     S
Cu923  O961    1.945   .     S
Cu923  O957    1.962   .     S
Cu923  O953    1.963   .     S
Cu923  Cu1072  2.679   1_455 S
Cu924  O955    1.963   .     S
Cu924  N950    2.014   .     S
Cu924  O959    1.958   .     S
Cu924  O956    1.962   .     S
Cu924  O960    1.945   .     S
Cu924  Cu997   2.679   .     S
H931   N951    1.044   .     S
H932   N951    1.046   .     S
H933   N952    1.046   .     S
H934   N952    1.044   .     S
H937   C1063   1.111   1_455 S
H938   C1063   1.113   1_455 S
H944   C979    1.083   .     S
H945   C1052   1.083   1_455 S
H946   C1050   1.083   1_455 S
O956   C963    1.292   .     S
O957   C1048   1.288   1_455 S
O958   C1045   1.296   1_455 S
O959   C972    1.296   .     S
C963   O1027   1.289   .     A
C963   C966    1.450   .     S
C964   C966    1.408   .     A
C964   O1028   1.386   .     S
C965   C995    1.410   .     A
C967   C969    1.416   .     A
C967   H1001   1.081   .     S
C967   N1024   1.368   .     A
C968   N1023   1.368   .     A
C968   C970    1.417   .     A
C968   H1002   1.081   .     S
C969   N1023   1.366   .     A
C969   H1003   1.081   .     S
C970   H1004   1.082   .     S
C970   N1024   1.367   .     A
C971   O1034   1.295   .     A
C971   C973    1.467   .     S
C971   O1106   1.296   .     S
C972   C975    1.466   .     S
C972   O1035   1.294   .     A
C973   C980    1.399   .     A
C973   C978    1.399   .     A
C974   O1029   1.291   .     A
C974   C1039   1.447   .     S
C974   O1105   1.288   .     S
C975   C981    1.398   .     A
C975   C979    1.398   .     A
C976   C978    1.391   .     A
C976   C984    1.404   .     A
C976   H1094   1.083   .     S
C977   C986    1.404   .     A
C977   C979    1.392   .     A
C977   H1021   1.083   .     S
C978   H1093   1.083   .     S
C980   H1017   1.075   .     S
C980   C982    1.406   .     A
C981   C983    1.405   .     A
C981   H1016   1.075   .     S
C982   C987    1.427   .     A
C982   C984    1.418   .     A
C983   C988    1.427   .     A
C983   C986    1.418   .     A
C984   C326    1.390   1_556 S
C985   C988    1.417   .     A
C985   H1022   1.076   .     S
C985   C992    1.386   .     A
C987   C991    1.417   .     A
C987   C322    1.425   1_556 S
C989   O1036   1.411   .     S
C989   H1009   1.109   .     S
C989   H1085   1.111   .     S
C989   H1086   1.113   .     S
C990   H1013   1.108   .     S
C990   O1028   1.413   .     S
C990   H1015   1.111   .     S
C990   H1014   1.113   .     S
C991   H1000   1.076   .     S
C991   C993    1.386   .     A
C992   H999    1.084   .     S
C993   H1010   1.084   .     S
C993   C320    1.390   1_556 S
C994   N1025   1.436   .     S
C994   C1040   1.406   .     S
C995   N1026   1.437   .     S
C995   C1186   1.395   .     S
C996   O1036   1.385   .     S
C996   C1039   1.408   .     S
C996   C1216   1.397   .     S
Cu997  O1032   1.958   .     S
Cu997  N1023   2.014   .     S
Cu997  O1035   1.945   .     S
Cu997  O1031   1.962   .     S
Cu997  O1027   1.963   .     S
Cu998  O1029   1.963   .     S
Cu998  N1024   2.014   .     S
Cu998  O1033   1.958   .     S
Cu998  O1030   1.962   .     S
Cu998  O1034   1.945   .     S
Cu998  Cu1071  2.679   .     S
H1005  N1025   1.044   .     S
H1006  N1025   1.046   .     S
H1007  N1026   1.046   .     S
H1008  N1026   1.044   .     S
H1018  C1053   1.083   .     S
O1030  C1037   1.292   .     S
O1033  C1046   1.296   .     S
C1037  O1101   1.289   .     A
C1037  C1040   1.450   .     S
C1038  C1040   1.408   .     A
C1038  O1102   1.386   .     S
C1039  C1069   1.410   .     A
C1041  C1043   1.416   .     A
C1041  H1075   1.081   .     S
C1041  N1098   1.368   .     A
C1042  N1097   1.368   .     A
C1042  C1044   1.417   .     A
C1042  H1076   1.081   .     S
C1043  N1097   1.366   .     A
C1043  H1077   1.081   .     S
C1044  H1078   1.082   .     S
C1044  N1098   1.367   .     A
C1045  O1108   1.295   .     A
C1045  C1047   1.467   .     S
C1045  O958    1.296   1_655 S
C1046  C1049   1.466   .     S
C1046  O1109   1.294   .     A
C1047  C1054   1.399   .     A
C1047  C1052   1.399   .     A
C1048  O1103   1.291   .     A
C1048  C891    1.447   1_655 S
C1048  O957    1.288   1_655 S
C1049  C1055   1.398   .     A
C1049  C1053   1.398   .     A
C1050  C1052   1.391   .     A
C1050  C1058   1.404   .     A
C1050  H946    1.083   1_655 S
C1051  C1060   1.404   .     A
C1051  C1053   1.392   .     A
C1051  H1095   1.083   .     S
C1052  H945    1.083   1_655 S
C1054  H1091   1.075   .     S
C1054  C1056   1.406   .     A
C1055  C1057   1.405   .     A
C1055  H1090   1.075   .     S
C1056  C1061   1.427   .     A
C1056  C1058   1.418   .     A
C1057  C1062   1.427   .     A
C1057  C1060   1.418   .     A
C1058  C400    1.390   1_556 S
C1059  C1062   1.417   .     A
C1059  H1096   1.076   .     S
C1059  C1066   1.386   .     A
C1061  C1065   1.417   .     A
C1061  C396    1.425   1_556 S
C1063  O1110   1.411   .     S
C1063  H1083   1.109   .     S
C1063  H937    1.111   1_655 S
C1063  H938    1.113   1_655 S
C1064  H1087   1.108   .     S
C1064  O1102   1.413   .     S
C1064  H1089   1.111   .     S
C1064  H1088   1.113   .     S
C1065  H1074   1.076   .     S
C1065  C1067   1.386   .     A
C1066  H1073   1.084   .     S
C1067  H1084   1.084   .     S
C1067  C394    1.390   1_556 S
C1068  N1099   1.436   .     S
C1068  C892    1.406   1_655 S
C1069  N1100   1.437   .     S
C1069  C1260   1.395   .     S
C1070  O1110   1.385   .     S
C1070  C891    1.408   1_655 S
C1070  C1290   1.397   .     S
Cu1071 O1106   1.958   .     S
Cu1071 N1097   2.014   .     S
Cu1071 O1109   1.945   .     S
Cu1071 O1105   1.962   .     S
Cu1071 O1101   1.963   .     S
Cu1072 O1103   1.963   .     S
Cu1072 N1098   2.014   .     S
Cu1072 O1107   1.958   .     S
Cu1072 O1104   1.962   .     S
Cu1072 O1108   1.945   .     S
Cu1072 Cu923   2.679   1_655 S
H1079  N1099   1.044   .     S
H1080  N1099   1.046   .     S
H1081  N1100   1.046   .     S
H1082  N1100   1.044   .     S
H1092  C905    1.083   1_655 S
O1104  C889    1.292   1_655 S
O1107  C898    1.296   1_655 S
C1111  O1175   1.289   .     A
C1111  C1114   1.450   .     S
C1111  O1326   1.292   1_455 S
C1112  C1114   1.408   .     A
C1112  O1176   1.386   .     S
C1113  C1143   1.410   .     A
C1113  C1270   1.447   1_455 S
C1113  C1292   1.408   1_455 S
C1114  C1290   1.406   1_455 S
C1115  C1117   1.416   .     A
C1115  H1149   1.081   .     S
C1115  N1172   1.368   .     A
C1116  N1171   1.368   .     A
C1116  C1118   1.417   .     A
C1116  H1150   1.081   .     S
C1117  N1171   1.366   .     A
C1117  H1151   1.081   .     S
C1118  H1152   1.082   .     S
C1118  N1172   1.367   .     A
C1119  O1182   1.295   .     A
C1119  C1121   1.467   .     S
C1119  O1254   1.296   .     S
C1120  C1123   1.466   .     S
C1120  O1183   1.294   .     A
C1120  O1329   1.296   1_455 S
C1121  C1128   1.399   .     A
C1121  C1126   1.399   .     A
C1122  O1177   1.291   .     A
C1122  C1187   1.447   .     S
C1122  O1253   1.288   .     S
C1123  C1129   1.398   .     A
C1123  C1127   1.398   .     A
C1124  C1126   1.391   .     A
C1124  C1132   1.404   .     A
C1124  H1242   1.083   .     S
C1125  C1134   1.404   .     A
C1125  C1127   1.392   .     A
C1125  H1169   1.083   .     S
C1126  H1241   1.083   .     S
C1127  H1314   1.083   1_455 S
C1128  H1165   1.075   .     S
C1128  C1130   1.406   .     A
C1129  C1131   1.405   .     A
C1129  H1164   1.075   .     S
C1130  C1135   1.427   .     A
C1130  C1132   1.418   .     A
C1131  C1136   1.427   .     A
C1131  C1134   1.418   .     A
C1132  C474    1.390   1_556 S
C1133  C1136   1.417   .     A
C1133  H1170   1.076   .     S
C1133  C1140   1.386   .     A
C1135  C1139   1.417   .     A
C1135  C470    1.425   1_556 S
C1137  O1184   1.411   .     S
C1137  H1157   1.109   .     S
C1137  H1233   1.111   .     S
C1137  H1234   1.113   .     S
C1138  H1161   1.108   .     S
C1138  O1176   1.413   .     S
C1138  H1163   1.111   .     S
C1138  H1162   1.113   .     S
C1139  H1148   1.076   .     S
C1139  C1141   1.386   .     A
C1140  H1147   1.084   .     S
C1141  H1158   1.084   .     S
C1141  C468    1.390   1_556 S
C1142  N1173   1.436   .     S
C1142  C1188   1.406   .     S
C1143  N1174   1.437   .     S
C1143  C668    1.395   1_565 S
C1144  O1184   1.385   .     S
C1144  C1187   1.408   .     S
C1144  C698    1.397   1_565 S
Cu1145 O1180   1.958   .     S
Cu1145 N1171   2.014   .     S
Cu1145 O1183   1.945   .     S
Cu1145 O1179   1.962   .     S
Cu1145 O1175   1.963   .     S
Cu1145 Cu1294  2.679   1_455 S
Cu1146 O1177   1.963   .     S
Cu1146 N1172   2.014   .     S
Cu1146 O1181   1.958   .     S
Cu1146 O1178   1.962   .     S
Cu1146 O1182   1.945   .     S
Cu1146 Cu1219  2.679   .     S
H1153  N1173   1.044   .     S
H1154  N1173   1.046   .     S
H1155  N1174   1.046   .     S
H1156  N1174   1.044   .     S
H1159  C1285   1.111   1_455 S
H1160  C1285   1.113   1_455 S
H1166  C1201   1.083   .     S
H1167  C1274   1.083   1_455 S
H1168  C1272   1.083   1_455 S
O1178  C1185   1.292   .     S
O1179  C1270   1.288   1_455 S
O1180  C1267   1.296   1_455 S
O1181  C1194   1.296   .     S
C1185  O1249   1.289   .     A
C1185  C1188   1.450   .     S
C1186  C1188   1.408   .     A
C1186  O1250   1.386   .     S
C1187  C1217   1.410   .     A
C1189  C1191   1.416   .     A
C1189  H1223   1.081   .     S
C1189  N1246   1.368   .     A
C1190  N1245   1.368   .     A
C1190  C1192   1.417   .     A
C1190  H1224   1.081   .     S
C1191  N1245   1.366   .     A
C1191  H1225   1.081   .     S
C1192  H1226   1.082   .     S
C1192  N1246   1.367   .     A
C1193  O1256   1.295   .     A
C1193  C1195   1.467   .     S
C1193  O1328   1.296   .     S
C1194  C1197   1.466   .     S
C1194  O1257   1.294   .     A
C1195  C1202   1.399   .     A
C1195  C1200   1.399   .     A
C1196  O1251   1.291   .     A
C1196  C1261   1.447   .     S
C1196  O1327   1.288   .     S
C1197  C1203   1.398   .     A
C1197  C1201   1.398   .     A
C1198  C1200   1.391   .     A
C1198  C1206   1.404   .     A
C1198  H1316   1.083   .     S
C1199  C1208   1.404   .     A
C1199  C1201   1.392   .     A
C1199  H1243   1.083   .     S
C1200  H1315   1.083   .     S
C1202  H1239   1.075   .     S
C1202  C1204   1.406   .     A
C1203  C1205   1.405   .     A
C1203  H1238   1.075   .     S
C1204  C1209   1.427   .     A
C1204  C1206   1.418   .     A
C1205  C1210   1.427   .     A
C1205  C1208   1.418   .     A
C1206  C548    1.390   1_556 S
C1207  C1210   1.417   .     A
C1207  H1244   1.076   .     S
C1207  C1214   1.386   .     A
C1209  C1213   1.417   .     A
C1209  C544    1.425   1_556 S
C1211  O1258   1.411   .     S
C1211  H1231   1.109   .     S
C1211  H1307   1.111   .     S
C1211  H1308   1.113   .     S
C1212  H1235   1.108   .     S
C1212  O1250   1.413   .     S
C1212  H1237   1.111   .     S
C1212  H1236   1.113   .     S
C1213  H1222   1.076   .     S
C1213  C1215   1.386   .     A
C1214  H1221   1.084   .     S
C1215  H1232   1.084   .     S
C1215  C542    1.390   1_556 S
C1216  N1247   1.436   .     S
C1216  C1262   1.406   .     S
C1217  N1248   1.437   .     S
C1217  C742    1.395   1_565 S
C1218  O1258   1.385   .     S
C1218  C1261   1.408   .     S
C1218  C772    1.397   1_565 S
Cu1219 O1254   1.958   .     S
Cu1219 N1245   2.014   .     S
Cu1219 O1257   1.945   .     S
Cu1219 O1253   1.962   .     S
Cu1219 O1249   1.963   .     S
Cu1220 O1251   1.963   .     S
Cu1220 N1246   2.014   .     S
Cu1220 O1255   1.958   .     S
Cu1220 O1252   1.962   .     S
Cu1220 O1256   1.945   .     S
Cu1220 Cu1293  2.679   .     S
H1227  N1247   1.044   .     S
H1228  N1247   1.046   .     S
H1229  N1248   1.046   .     S
H1230  N1248   1.044   .     S
H1240  C1275   1.083   .     S
O1252  C1259   1.292   .     S
O1255  C1268   1.296   .     S
C1259  O1323   1.289   .     A
C1259  C1262   1.450   .     S
C1260  C1262   1.408   .     A
C1260  O1324   1.386   .     S
C1261  C1291   1.410   .     A
C1263  C1265   1.416   .     A
C1263  H1297   1.081   .     S
C1263  N1320   1.368   .     A
C1264  N1319   1.368   .     A
C1264  C1266   1.417   .     A
C1264  H1298   1.081   .     S
C1265  N1319   1.366   .     A
C1265  H1299   1.081   .     S
C1266  H1300   1.082   .     S
C1266  N1320   1.367   .     A
C1267  O1330   1.295   .     A
C1267  C1269   1.467   .     S
C1267  O1180   1.296   1_655 S
C1268  C1271   1.466   .     S
C1268  O1331   1.294   .     A
C1269  C1276   1.399   .     A
C1269  C1274   1.399   .     A
C1270  O1325   1.291   .     A
C1270  C1113   1.447   1_655 S
C1270  O1179   1.288   1_655 S
C1271  C1277   1.398   .     A
C1271  C1275   1.398   .     A
C1272  C1274   1.391   .     A
C1272  C1280   1.404   .     A
C1272  H1168   1.083   1_655 S
C1273  C1282   1.404   .     A
C1273  C1275   1.392   .     A
C1273  H1317   1.083   .     S
C1274  H1167   1.083   1_655 S
C1276  H1313   1.075   .     S
C1276  C1278   1.406   .     A
C1277  C1279   1.405   .     A
C1277  H1312   1.075   .     S
C1278  C1283   1.427   .     A
C1278  C1280   1.418   .     A
C1279  C1284   1.427   .     A
C1279  C1282   1.418   .     A
C1280  C622    1.390   1_556 S
C1281  C1284   1.417   .     A
C1281  H1318   1.076   .     S
C1281  C1288   1.386   .     A
C1283  C1287   1.417   .     A
C1283  C618    1.425   1_556 S
C1285  O1332   1.411   .     S
C1285  H1305   1.109   .     S
C1285  H1159   1.111   1_655 S
C1285  H1160   1.113   1_655 S
C1286  H1309   1.108   .     S
C1286  O1324   1.413   .     S
C1286  H1311   1.111   .     S
C1286  H1310   1.113   .     S
C1287  H1296   1.076   .     S
C1287  C1289   1.386   .     A
C1288  H1295   1.084   .     S
C1289  H1306   1.084   .     S
C1289  C616    1.390   1_556 S
C1290  N1321   1.436   .     S
C1290  C1114   1.406   1_655 S
C1291  N1322   1.437   .     S
C1291  C816    1.395   1_565 S
C1292  O1332   1.385   .     S
C1292  C1113   1.408   1_655 S
C1292  C846    1.397   1_565 S
Cu1293 O1328   1.958   .     S
Cu1293 N1319   2.014   .     S
Cu1293 O1331   1.945   .     S
Cu1293 O1327   1.962   .     S
Cu1293 O1323   1.963   .     S
Cu1294 O1325   1.963   .     S
Cu1294 N1320   2.014   .     S
Cu1294 O1329   1.958   .     S
Cu1294 O1326   1.962   .     S
Cu1294 O1330   1.945   .     S
Cu1294 Cu1145  2.679   1_655 S
H1301  N1321   1.044   .     S
H1302  N1321   1.046   .     S
H1303  N1322   1.046   .     S
H1304  N1322   1.044   .     S
H1314  C1127   1.083   1_655 S
O1326  C1111   1.292   1_655 S
O1329  C1120   1.296   1_655 S
