data_str_m1_o1_o2_pcu_sym.91
_audit_creation_date              2020-01-03
_audit_creation_method            'Materials Studio'
_symmetry_space_group_name_H-M    'P1'
_symmetry_Int_Tables_number       1
_symmetry_cell_setting            triclinic
loop_
_symmetry_equiv_pos_as_xyz
  x,y,z
_cell_length_a                    36.6501
_cell_length_b                    36.6501
_cell_length_c                    34.6740
_cell_angle_alpha                 90.0000
_cell_angle_beta                  90.0000
_cell_angle_gamma                 90.0000
loop_
_atom_site_label
_atom_site_type_symbol
_atom_site_fract_x
_atom_site_fract_y
_atom_site_fract_z
_atom_site_U_iso_or_equiv
_atom_site_adp_type
_atom_site_occupancy
C1     C     0.22188   0.01797   0.04114   0.00000  Uiso   1.00
C2     C     0.02812   0.26797   0.45886   0.00000  Uiso   1.00
C3     C     0.34813   0.40187   0.75000   0.00000  Uiso   1.00
C4     C     0.40187   0.15187   0.25000   0.00000  Uiso   1.00
C5     C     0.09813   0.34813   0.75000   0.00000  Uiso   1.00
C6     C     0.34813   0.40187   0.25000   0.00000  Uiso   1.00
C7     C     0.15187   0.09813   0.75000   0.00000  Uiso   1.00
C8     C     0.09813   0.15187   0.75000   0.00000  Uiso   1.00
C9     C     0.40187   0.34813   0.25000   0.00000  Uiso   1.00
C10    C     0.15187   0.40187   0.75000   0.00000  Uiso   1.00
C11    C     0.34813   0.09813   0.25000   0.00000  Uiso   1.00
C12    C     0.40187   0.34813   0.75000   0.00000  Uiso   1.00
C13    C     0.23203   0.47188   0.54114   0.00000  Uiso   1.00
C14    C     0.09813   0.15187   0.25000   0.00000  Uiso   1.00
C15    C     0.34813   0.09813   0.75000   0.00000  Uiso   1.00
C16    C     0.15187   0.40187   0.25000   0.00000  Uiso   1.00
C17    C     0.25000   0.00000   0.10214   0.00000  Uiso   1.00
C18    C     0.25000   0.00000   0.89786   0.00000  Uiso   1.00
C19    C    -0.00000   0.25000   0.10214   0.00000  Uiso   1.00
C20    C    -0.00000   0.25000   0.89786   0.00000  Uiso   1.00
C21    C    -0.00000   0.25000   0.60214   0.00000  Uiso   1.00
C22    C     0.00000   0.25000   0.39786   0.00000  Uiso   1.00
C23    C     0.25000   0.00000   0.60214   0.00000  Uiso   1.00
C24    C     0.23203   0.02812   0.45886   0.00000  Uiso   1.00
C25    C     0.25000   0.00000   0.39786   0.00000  Uiso   1.00
C26    C     0.20184   0.06978   0.01114   0.00000  Uiso   1.00
C27    C     0.29816   0.06978   0.98886   0.00000  Uiso   1.00
C28    C     0.43022   0.20184   0.01114   0.00000  Uiso   1.00
C29    C     0.43022   0.29815   0.98886   0.00000  Uiso   1.00
C30    C     0.29816   0.43022   0.01114   0.00000  Uiso   1.00
C31    C     0.20184   0.43022   0.98886   0.00000  Uiso   1.00
C32    C     0.06978   0.29816   0.01114   0.00000  Uiso   1.00
C33    C     0.06978   0.20185   0.98886   0.00000  Uiso   1.00
C34    C     0.45184   0.31978   0.51114   0.00000  Uiso   1.00
C35    C     0.02812   0.23203   0.54114   0.00000  Uiso   1.00
C36    C     0.04816   0.31978   0.48886   0.00000  Uiso   1.00
C37    C     0.18022   0.45184   0.51114   0.00000  Uiso   1.00
C38    C     0.18022   0.04816   0.48886   0.00000  Uiso   1.00
C39    C     0.04816   0.18022   0.51114   0.00000  Uiso   1.00
C40    C     0.45184   0.18022   0.48886   0.00000  Uiso   1.00
C41    C     0.31978   0.04816   0.51114   0.00000  Uiso   1.00
C42    C     0.31978   0.45184   0.48886   0.00000  Uiso   1.00
C43    C     0.19377   0.04055   0.10213   0.00000  Uiso   1.00
C44    C     0.30623   0.04055   0.89787   0.00000  Uiso   1.00
C45    C     0.45946   0.19377   0.10213   0.00000  Uiso   1.00
C46    C     0.47188   0.23203   0.45886   0.00000  Uiso   1.00
C47    C     0.45945   0.30623   0.89787   0.00000  Uiso   1.00
C48    C     0.30623   0.45946   0.10213   0.00000  Uiso   1.00
C49    C     0.19377   0.45945   0.89787   0.00000  Uiso   1.00
C50    C     0.04054   0.30623   0.10213   0.00000  Uiso   1.00
C51    C     0.04055   0.19377   0.89787   0.00000  Uiso   1.00
C52    C     0.44377   0.29055   0.60213   0.00000  Uiso   1.00
C53    C     0.05623   0.29055   0.39787   0.00000  Uiso   1.00
C54    C     0.20945   0.44377   0.60213   0.00000  Uiso   1.00
C55    C     0.20945   0.05623   0.39787   0.00000  Uiso   1.00
C56    C     0.05623   0.20945   0.60213   0.00000  Uiso   1.00
C57    C     0.26797   0.02812   0.54114   0.00000  Uiso   1.00
C58    C     0.44377   0.20945   0.39787   0.00000  Uiso   1.00
C59    C     0.29055   0.05623   0.60213   0.00000  Uiso   1.00
C60    C     0.29054   0.44377   0.39787   0.00000  Uiso   1.00
C61    C     0.26797   0.47188   0.45886   0.00000  Uiso   1.00
C62    C     0.22196   0.01855   0.08166   0.00000  Uiso   1.00
C63    C     0.27804   0.01855   0.91834   0.00000  Uiso   1.00
C64    C     0.48145   0.22196   0.08166   0.00000  Uiso   1.00
C65    C     0.27812   0.01797   0.95886   0.00000  Uiso   1.00
C66    C     0.48145   0.27804   0.91834   0.00000  Uiso   1.00
C67    C     0.27804   0.48145   0.08166   0.00000  Uiso   1.00
C68    C     0.22196   0.48145   0.91834   0.00000  Uiso   1.00
C69    C     0.01855   0.27804   0.08166   0.00000  Uiso   1.00
C70    C     0.01855   0.22196   0.91834   0.00000  Uiso   1.00
C71    C     0.47196   0.26855   0.58166   0.00000  Uiso   1.00
C72    C     0.02804   0.26855   0.41834   0.00000  Uiso   1.00
C73    C     0.23145   0.47196   0.58166   0.00000  Uiso   1.00
C74    C     0.23145   0.02804   0.41834   0.00000  Uiso   1.00
C75    C     0.02804   0.23145   0.58166   0.00000  Uiso   1.00
C76    C     0.48203   0.22188   0.04114   0.00000  Uiso   1.00
C77    C     0.47196   0.23145   0.41834   0.00000  Uiso   1.00
C78    C     0.26855   0.02804   0.58166   0.00000  Uiso   1.00
C79    C     0.26855   0.47196   0.41834   0.00000  Uiso   1.00
C80    C     0.25000   0.00000   0.02116   0.00000  Uiso   1.00
C81    C     0.25000   0.00000   0.97884   0.00000  Uiso   1.00
C82    C    -0.00000   0.25000   0.02116   0.00000  Uiso   1.00
C83    C    -0.00000   0.25000   0.97884   0.00000  Uiso   1.00
C84    C     0.00000   0.25000   0.52116   0.00000  Uiso   1.00
C85    C    -0.00000   0.25000   0.47884   0.00000  Uiso   1.00
C86    C     0.25000   0.00000   0.52116   0.00000  Uiso   1.00
C87    C     0.48202   0.27812   0.95886   0.00000  Uiso   1.00
C88    C     0.25000   0.00000   0.47884   0.00000  Uiso   1.00
C89    C     0.25000   0.00000   0.35525   0.00000  Uiso   1.00
C90    C     0.25000   0.00000   0.64475   0.00000  Uiso   1.00
C91    C     0.00000   0.25000   0.35525   0.00000  Uiso   1.00
C92    C    -0.00000   0.25000   0.64475   0.00000  Uiso   1.00
C93    C     0.00000   0.25000   0.85525   0.00000  Uiso   1.00
C94    C     0.00000   0.25000   0.14475   0.00000  Uiso   1.00
C95    C     0.25000   0.00000   0.85525   0.00000  Uiso   1.00
C96    C     0.25000   0.00000   0.14475   0.00000  Uiso   1.00
C97    C     0.17994   0.07006   0.25000   0.00000  Uiso   1.00
C98    C     0.27812   0.48203   0.04114   0.00000  Uiso   1.00
C99    C     0.32006   0.42994   0.75000   0.00000  Uiso   1.00
C100   C     0.42994   0.17994   0.25000   0.00000  Uiso   1.00
C101   C     0.07006   0.32006   0.75000   0.00000  Uiso   1.00
C102   C     0.32006   0.42994   0.25000   0.00000  Uiso   1.00
C103   C     0.17994   0.07006   0.75000   0.00000  Uiso   1.00
C104   C     0.07006   0.32006   0.25000   0.00000  Uiso   1.00
C105   C     0.42994   0.17994   0.75000   0.00000  Uiso   1.00
C106   C     0.17994   0.42994   0.75000   0.00000  Uiso   1.00
C107   C     0.32006   0.07006   0.25000   0.00000  Uiso   1.00
C108   C     0.42994   0.32006   0.75000   0.00000  Uiso   1.00
C109   C     0.22188   0.48203   0.95886   0.00000  Uiso   1.00
C110   C     0.07006   0.17994   0.25000   0.00000  Uiso   1.00
C111   C     0.32006   0.07006   0.75000   0.00000  Uiso   1.00
C112   C     0.17994   0.42994   0.25000   0.00000  Uiso   1.00
C113   C     0.07006   0.17994   0.75000   0.00000  Uiso   1.00
C114   C     0.42994   0.32006   0.25000   0.00000  Uiso   1.00
C115   C     0.12231   0.40442   0.22450   0.00000  Uiso   1.00
C116   C     0.37768   0.09557   0.77551   0.00000  Uiso   1.00
C117   C     0.09558   0.12231   0.22450   0.00000  Uiso   1.00
C118   C     0.40443   0.37768   0.77551   0.00000  Uiso   1.00
C119   C     0.37769   0.09558   0.22450   0.00000  Uiso   1.00
C120   C     0.01797   0.27812   0.04114   0.00000  Uiso   1.00
C121   C     0.12232   0.40443   0.77551   0.00000  Uiso   1.00
C122   C     0.40442   0.37769   0.22450   0.00000  Uiso   1.00
C123   C     0.09557   0.12232   0.77551   0.00000  Uiso   1.00
C124   C     0.12231   0.09558   0.77551   0.00000  Uiso   1.00
C125   C     0.37768   0.40443   0.22449   0.00000  Uiso   1.00
C126   C     0.09558   0.37769   0.77551   0.00000  Uiso   1.00
C127   C     0.40443   0.12232   0.22449   0.00000  Uiso   1.00
C128   C     0.37769   0.40442   0.77551   0.00000  Uiso   1.00
C129   C     0.12232   0.09557   0.22449   0.00000  Uiso   1.00
C130   C     0.40442   0.12231   0.77551   0.00000  Uiso   1.00
C131   C     0.01797   0.22188   0.95886   0.00000  Uiso   1.00
C132   C     0.09557   0.37768   0.22449   0.00000  Uiso   1.00
C133   C     0.37231   0.15442   0.72450   0.00000  Uiso   1.00
C134   C     0.12768   0.34557   0.27551   0.00000  Uiso   1.00
C135   C     0.34558   0.37231   0.72450   0.00000  Uiso   1.00
C136   C     0.15443   0.12768   0.27551   0.00000  Uiso   1.00
C137   C     0.12769   0.34558   0.72450   0.00000  Uiso   1.00
C138   C     0.37232   0.15443   0.27551   0.00000  Uiso   1.00
C139   C     0.15442   0.12769   0.72450   0.00000  Uiso   1.00
C140   C     0.34557   0.37232   0.27551   0.00000  Uiso   1.00
C141   C     0.37231   0.34558   0.27551   0.00000  Uiso   1.00
C142   C     0.47188   0.26797   0.54114   0.00000  Uiso   1.00
C143   C     0.12768   0.15443   0.72449   0.00000  Uiso   1.00
C144   C     0.34558   0.12769   0.27551   0.00000  Uiso   1.00
C145   C     0.15443   0.37232   0.72449   0.00000  Uiso   1.00
C146   C     0.12769   0.15442   0.27551   0.00000  Uiso   1.00
C147   C     0.37232   0.34557   0.72449   0.00000  Uiso   1.00
C148   C     0.15442   0.37231   0.27551   0.00000  Uiso   1.00
C149   C     0.34557   0.12768   0.72449   0.00000  Uiso   1.00
C150   C     0.09813   0.34813   0.25000   0.00000  Uiso   1.00
C151   C     0.40187   0.15187   0.75000   0.00000  Uiso   1.00
C152   C     0.15187   0.09813   0.25000   0.00000  Uiso   1.00
H153   H     0.11981   0.42702   0.20453   0.00000  Uiso   1.00
H154   H     0.38016   0.42701   0.20451   0.00000  Uiso   1.00
H155   H     0.07298   0.38019   0.79547   0.00000  Uiso   1.00
H156   H     0.42701   0.11984   0.20451   0.00000  Uiso   1.00
H157   H     0.38019   0.42702   0.79547   0.00000  Uiso   1.00
H158   H     0.11984   0.07299   0.20451   0.00000  Uiso   1.00
H159   H     0.42702   0.11981   0.79547   0.00000  Uiso   1.00
H160   H     0.07299   0.38016   0.20451   0.00000  Uiso   1.00
H161   H     0.36981   0.17702   0.70453   0.00000  Uiso   1.00
H162   H     0.13016   0.32299   0.29549   0.00000  Uiso   1.00
H163   H     0.32298   0.36981   0.70453   0.00000  Uiso   1.00
H164   H     0.38016   0.07299   0.79549   0.00000  Uiso   1.00
H165   H     0.17701   0.13016   0.29549   0.00000  Uiso   1.00
H166   H     0.13019   0.32298   0.70453   0.00000  Uiso   1.00
H167   H     0.36984   0.17701   0.29549   0.00000  Uiso   1.00
H168   H     0.17702   0.13019   0.70453   0.00000  Uiso   1.00
H169   H     0.32299   0.36984   0.29549   0.00000  Uiso   1.00
H170   H     0.36981   0.32298   0.29547   0.00000  Uiso   1.00
H171   H     0.13016   0.17701   0.70451   0.00000  Uiso   1.00
H172   H     0.32298   0.13019   0.29547   0.00000  Uiso   1.00
H173   H     0.17701   0.36984   0.70451   0.00000  Uiso   1.00
H174   H     0.13019   0.17702   0.29547   0.00000  Uiso   1.00
H175   H     0.07298   0.11981   0.20453   0.00000  Uiso   1.00
H176   H     0.36984   0.32299   0.70451   0.00000  Uiso   1.00
H177   H     0.17702   0.36981   0.29547   0.00000  Uiso   1.00
H178   H     0.32299   0.13016   0.70451   0.00000  Uiso   1.00
H179   H     0.21958   0.07037   0.98523   0.00000  Uiso   1.00
H180   H     0.21470   0.08509   0.03536   0.00000  Uiso   1.00
H181   H     0.17624   0.08423   0.00358   0.00000  Uiso   1.00
H182   H     0.28042   0.07037   0.01477   0.00000  Uiso   1.00
H183   H     0.28530   0.08509   0.96464   0.00000  Uiso   1.00
H184   H     0.32376   0.08423   0.99642   0.00000  Uiso   1.00
H185   H     0.42963   0.21958   0.98523   0.00000  Uiso   1.00
H186   H     0.42701   0.38016   0.79549   0.00000  Uiso   1.00
H187   H     0.41491   0.21470   0.03536   0.00000  Uiso   1.00
H188   H     0.41577   0.17623   0.00358   0.00000  Uiso   1.00
H189   H     0.42962   0.28042   0.01477   0.00000  Uiso   1.00
H190   H     0.41490   0.28529   0.96464   0.00000  Uiso   1.00
H191   H     0.41577   0.32376   0.99642   0.00000  Uiso   1.00
H192   H     0.28042   0.42963   0.98523   0.00000  Uiso   1.00
H193   H     0.28530   0.41491   0.03536   0.00000  Uiso   1.00
H194   H     0.32376   0.41577   0.00358   0.00000  Uiso   1.00
H195   H     0.21958   0.42963   0.01477   0.00000  Uiso   1.00
H196   H     0.21470   0.41491   0.96464   0.00000  Uiso   1.00
H197   H     0.38019   0.07298   0.20453   0.00000  Uiso   1.00
H198   H     0.17624   0.41577   0.99642   0.00000  Uiso   1.00
H199   H     0.07037   0.28042   0.98523   0.00000  Uiso   1.00
H200   H     0.08509   0.28530   0.03536   0.00000  Uiso   1.00
H201   H     0.08423   0.32377   0.00358   0.00000  Uiso   1.00
H202   H     0.07038   0.21958   0.01477   0.00000  Uiso   1.00
H203   H     0.08509   0.21471   0.96464   0.00000  Uiso   1.00
H204   H     0.08423   0.17624   0.99642   0.00000  Uiso   1.00
H205   H     0.46958   0.32037   0.48523   0.00000  Uiso   1.00
H206   H     0.46470   0.33509   0.53536   0.00000  Uiso   1.00
H207   H     0.42624   0.33423   0.50358   0.00000  Uiso   1.00
H208   H     0.11984   0.42701   0.79549   0.00000  Uiso   1.00
H209   H     0.03042   0.32037   0.51477   0.00000  Uiso   1.00
H210   H     0.03530   0.33509   0.46464   0.00000  Uiso   1.00
H211   H     0.07376   0.33423   0.49642   0.00000  Uiso   1.00
H212   H     0.17963   0.46958   0.48524   0.00000  Uiso   1.00
H213   H     0.16491   0.46470   0.53536   0.00000  Uiso   1.00
H214   H     0.16577   0.42624   0.50358   0.00000  Uiso   1.00
H215   H     0.17963   0.03042   0.51477   0.00000  Uiso   1.00
H216   H     0.16491   0.03530   0.46464   0.00000  Uiso   1.00
H217   H     0.16577   0.07376   0.49642   0.00000  Uiso   1.00
H218   H     0.03042   0.17963   0.48524   0.00000  Uiso   1.00
H219   H     0.42702   0.38019   0.20453   0.00000  Uiso   1.00
H220   H     0.03530   0.16491   0.53536   0.00000  Uiso   1.00
H221   H     0.07376   0.16577   0.50358   0.00000  Uiso   1.00
H222   H     0.46958   0.17963   0.51477   0.00000  Uiso   1.00
H223   H     0.46470   0.16491   0.46464   0.00000  Uiso   1.00
H224   H     0.42624   0.16577   0.49642   0.00000  Uiso   1.00
H225   H     0.32037   0.03042   0.48523   0.00000  Uiso   1.00
H226   H     0.33509   0.03530   0.53536   0.00000  Uiso   1.00
H227   H     0.33423   0.07376   0.50358   0.00000  Uiso   1.00
H228   H     0.32037   0.46958   0.51477   0.00000  Uiso   1.00
H229   H     0.33509   0.46470   0.46464   0.00000  Uiso   1.00
H230   H     0.07299   0.11984   0.79549   0.00000  Uiso   1.00
H231   H     0.33423   0.42624   0.49642   0.00000  Uiso   1.00
H232   H     0.20065   0.05508   0.12839   0.00000  Uiso   1.00
H233   H     0.29935   0.05508   0.87161   0.00000  Uiso   1.00
H234   H     0.44492   0.20064   0.12839   0.00000  Uiso   1.00
H235   H     0.44491   0.29935   0.87161   0.00000  Uiso   1.00
H236   H     0.29935   0.44492   0.12839   0.00000  Uiso   1.00
H237   H     0.20065   0.44492   0.87161   0.00000  Uiso   1.00
H238   H     0.05508   0.29936   0.12839   0.00000  Uiso   1.00
H239   H     0.05509   0.20065   0.87161   0.00000  Uiso   1.00
H240   H     0.45065   0.30508   0.62839   0.00000  Uiso   1.00
H241   H     0.11981   0.07298   0.79547   0.00000  Uiso   1.00
H242   H     0.04935   0.30508   0.37161   0.00000  Uiso   1.00
H243   H     0.19492   0.45065   0.62839   0.00000  Uiso   1.00
H244   H     0.19492   0.04935   0.37161   0.00000  Uiso   1.00
H245   H     0.04935   0.19492   0.62839   0.00000  Uiso   1.00
H246   H     0.45065   0.19492   0.37161   0.00000  Uiso   1.00
H247   H     0.30508   0.04935   0.62839   0.00000  Uiso   1.00
H248   H     0.30508   0.45065   0.37161   0.00000  Uiso   1.00
O249   O     0.25000   0.00000   0.25000   0.00000  Uiso   1.00
O250   O     0.25000   0.46964   0.66317   0.00000  Uiso   1.00
O251   O     0.46964   0.25000   0.33683   0.00000  Uiso   1.00
O252   O     0.03036   0.25000   0.66317   0.00000  Uiso   1.00
O253   O     0.00000   0.21964   0.83683   0.00000  Uiso   1.00
O254   O     0.00000   0.28036   0.16317   0.00000  Uiso   1.00
O255   O     0.28036   0.00000   0.83683   0.00000  Uiso   1.00
O256   O     0.21964   0.00000   0.16317   0.00000  Uiso   1.00
O257   O     0.00000   0.28036   0.83683   0.00000  Uiso   1.00
O258   O     0.00000   0.21964   0.16317   0.00000  Uiso   1.00
O259   O     0.21964   0.00000   0.83683   0.00000  Uiso   1.00
O260   O     0.25000   0.00000   0.75000   0.00000  Uiso   1.00
O261   O     0.28036   0.00000   0.16317   0.00000  Uiso   1.00
O262   O     0.20725   0.07307   0.27282   0.00000  Uiso   1.00
O263   O     0.29274   0.42693   0.72718   0.00000  Uiso   1.00
O264   O     0.42693   0.20726   0.27282   0.00000  Uiso   1.00
O265   O     0.07307   0.29274   0.72718   0.00000  Uiso   1.00
O266   O     0.29274   0.42693   0.27282   0.00000  Uiso   1.00
O267   O     0.20725   0.07307   0.72718   0.00000  Uiso   1.00
O268   O     0.07307   0.29274   0.27282   0.00000  Uiso   1.00
O269   O     0.42693   0.20726   0.72718   0.00000  Uiso   1.00
O270   O     0.20725   0.42693   0.72718   0.00000  Uiso   1.00
O271   O    -0.00000   0.25000   0.25000   0.00000  Uiso   1.00
O272   O     0.29274   0.07307   0.27282   0.00000  Uiso   1.00
O273   O     0.42693   0.29275   0.72718   0.00000  Uiso   1.00
O274   O     0.07307   0.20725   0.27282   0.00000  Uiso   1.00
O275   O     0.29274   0.07307   0.72718   0.00000  Uiso   1.00
O276   O     0.20725   0.42693   0.27282   0.00000  Uiso   1.00
O277   O     0.07307   0.20725   0.72718   0.00000  Uiso   1.00
O278   O     0.42693   0.29275   0.27282   0.00000  Uiso   1.00
O279   O     0.45725   0.32307   0.77282   0.00000  Uiso   1.00
O280   O     0.04274   0.17693   0.22718   0.00000  Uiso   1.00
O281   O     0.17693   0.45725   0.77282   0.00000  Uiso   1.00
O282   O    -0.00000   0.25000   0.75000   0.00000  Uiso   1.00
O283   O     0.32307   0.04275   0.22718   0.00000  Uiso   1.00
O284   O     0.04274   0.17693   0.77282   0.00000  Uiso   1.00
O285   O     0.45725   0.32307   0.22718   0.00000  Uiso   1.00
O286   O     0.32307   0.04275   0.77282   0.00000  Uiso   1.00
O287   O     0.17693   0.45725   0.22718   0.00000  Uiso   1.00
O288   O     0.45725   0.17693   0.22718   0.00000  Uiso   1.00
O289   O     0.04274   0.32307   0.77282   0.00000  Uiso   1.00
O290   O     0.17693   0.04275   0.22718   0.00000  Uiso   1.00
O291   O     0.32307   0.45726   0.77282   0.00000  Uiso   1.00
O292   O     0.04274   0.32307   0.22718   0.00000  Uiso   1.00
O293   O     0.25000   0.46964   0.33683   0.00000  Uiso   1.00
O294   O     0.45725   0.17693   0.77282   0.00000  Uiso   1.00
O295   O     0.32307   0.45726   0.22718   0.00000  Uiso   1.00
O296   O     0.17693   0.04275   0.77282   0.00000  Uiso   1.00
O297   O     0.19309   0.03349   0.02100   0.00000  Uiso   1.00
O298   O     0.30691   0.03349   0.97900   0.00000  Uiso   1.00
O299   O     0.46652   0.19309   0.02100   0.00000  Uiso   1.00
O300   O     0.46651   0.30691   0.97900   0.00000  Uiso   1.00
O301   O     0.30691   0.46651   0.02100   0.00000  Uiso   1.00
O302   O     0.19309   0.46651   0.97900   0.00000  Uiso   1.00
O303   O     0.03348   0.30691   0.02100   0.00000  Uiso   1.00
O304   O     0.25000   0.03036   0.66317   0.00000  Uiso   1.00
O305   O     0.03349   0.19309   0.97900   0.00000  Uiso   1.00
O306   O     0.44309   0.28349   0.52100   0.00000  Uiso   1.00
O307   O     0.05691   0.28349   0.47900   0.00000  Uiso   1.00
O308   O     0.21651   0.44309   0.52100   0.00000  Uiso   1.00
O309   O     0.21651   0.05691   0.47900   0.00000  Uiso   1.00
O310   O     0.05691   0.21651   0.52100   0.00000  Uiso   1.00
O311   O     0.44309   0.21651   0.47900   0.00000  Uiso   1.00
O312   O     0.28349   0.05691   0.52100   0.00000  Uiso   1.00
O313   O     0.28349   0.44309   0.47900   0.00000  Uiso   1.00
O314   O     0.16258   0.04266   0.08995   0.00000  Uiso   1.00
O315   O     0.03036   0.25000   0.33683   0.00000  Uiso   1.00
O316   O     0.33742   0.04266   0.91005   0.00000  Uiso   1.00
O317   O     0.45735   0.16258   0.08995   0.00000  Uiso   1.00
O318   O     0.45734   0.33742   0.91005   0.00000  Uiso   1.00
O319   O     0.33742   0.45734   0.08995   0.00000  Uiso   1.00
O320   O     0.16258   0.45734   0.91005   0.00000  Uiso   1.00
O321   O     0.04265   0.33742   0.08995   0.00000  Uiso   1.00
O322   O     0.04266   0.16258   0.91005   0.00000  Uiso   1.00
O323   O     0.41258   0.29266   0.58995   0.00000  Uiso   1.00
O324   O     0.08742   0.29266   0.41005   0.00000  Uiso   1.00
O325   O     0.20734   0.41258   0.58995   0.00000  Uiso   1.00
O326   O     0.46964   0.25000   0.66317   0.00000  Uiso   1.00
O327   O     0.20734   0.08742   0.41005   0.00000  Uiso   1.00
O328   O     0.08742   0.20734   0.58995   0.00000  Uiso   1.00
O329   O     0.41258   0.20734   0.41005   0.00000  Uiso   1.00
O330   O     0.29266   0.08742   0.58995   0.00000  Uiso   1.00
O331   O     0.29266   0.41258   0.41005   0.00000  Uiso   1.00
O332   O     0.25000   0.03036   0.33683   0.00000  Uiso   1.00
Zn333  Zn    0.20660   0.00000   0.21760   0.00000  Uiso   1.00
Zn334  Zn    0.04340   0.25000   0.28240   0.00000  Uiso   1.00
Zn335  Zn    0.25000   0.45660   0.71760   0.00000  Uiso   1.00
Zn336  Zn    0.25000   0.04340   0.28240   0.00000  Uiso   1.00
Zn337  Zn    0.04340   0.25000   0.71760   0.00000  Uiso   1.00
Zn338  Zn    0.45660   0.25000   0.28240   0.00000  Uiso   1.00
Zn339  Zn    0.25000   0.04340   0.71760   0.00000  Uiso   1.00
Zn340  Zn    0.25000   0.45660   0.28240   0.00000  Uiso   1.00
Zn341  Zn    0.29340   0.00000   0.78240   0.00000  Uiso   1.00
Zn342  Zn   -0.00000   0.20660   0.21760   0.00000  Uiso   1.00
Zn343  Zn   -0.00000   0.29340   0.78240   0.00000  Uiso   1.00
Zn344  Zn    0.29340   0.00000   0.21760   0.00000  Uiso   1.00
Zn345  Zn    0.20660   0.00000   0.78240   0.00000  Uiso   1.00
Zn346  Zn   -0.00000   0.29340   0.21760   0.00000  Uiso   1.00
Zn347  Zn    0.00000   0.20660   0.78240   0.00000  Uiso   1.00
Zn348  Zn    0.45660   0.25000   0.71760   0.00000  Uiso   1.00
C349   C     0.72188   0.01797   0.04114   0.00000  Uiso   1.00
C350   C     0.52812   0.26797   0.45886   0.00000  Uiso   1.00
C351   C     0.84813   0.40187   0.75000   0.00000  Uiso   1.00
C352   C     0.90187   0.15187   0.25000   0.00000  Uiso   1.00
C353   C     0.59813   0.34813   0.75000   0.00000  Uiso   1.00
C354   C     0.84813   0.40187   0.25000   0.00000  Uiso   1.00
C355   C     0.65187   0.09813   0.75000   0.00000  Uiso   1.00
C356   C     0.59813   0.15187   0.75000   0.00000  Uiso   1.00
C357   C     0.90187   0.34813   0.25000   0.00000  Uiso   1.00
C358   C     0.65187   0.40187   0.75000   0.00000  Uiso   1.00
C359   C     0.84813   0.09813   0.25000   0.00000  Uiso   1.00
C360   C     0.90187   0.34813   0.75000   0.00000  Uiso   1.00
C361   C     0.73203   0.47188   0.54114   0.00000  Uiso   1.00
C362   C     0.59813   0.15187   0.25000   0.00000  Uiso   1.00
C363   C     0.84813   0.09813   0.75000   0.00000  Uiso   1.00
C364   C     0.65187   0.40187   0.25000   0.00000  Uiso   1.00
C365   C     0.75000   0.00000   0.10214   0.00000  Uiso   1.00
C366   C     0.75000   0.00000   0.89786   0.00000  Uiso   1.00
C367   C     0.50000   0.25000   0.10214   0.00000  Uiso   1.00
C368   C     0.50000   0.25000   0.89786   0.00000  Uiso   1.00
C369   C     0.50000   0.25000   0.60214   0.00000  Uiso   1.00
C370   C     0.50000   0.25000   0.39786   0.00000  Uiso   1.00
C371   C     0.75000   0.00000   0.60214   0.00000  Uiso   1.00
C372   C     0.73203   0.02812   0.45886   0.00000  Uiso   1.00
C373   C     0.75000   0.00000   0.39786   0.00000  Uiso   1.00
C374   C     0.70184   0.06978   0.01114   0.00000  Uiso   1.00
C375   C     0.79816   0.06978   0.98886   0.00000  Uiso   1.00
C376   C     0.93022   0.20184   0.01114   0.00000  Uiso   1.00
C377   C     0.93022   0.29815   0.98886   0.00000  Uiso   1.00
C378   C     0.79816   0.43022   0.01114   0.00000  Uiso   1.00
C379   C     0.70184   0.43022   0.98886   0.00000  Uiso   1.00
C380   C     0.56978   0.29816   0.01114   0.00000  Uiso   1.00
C381   C     0.56978   0.20185   0.98886   0.00000  Uiso   1.00
C382   C     0.95184   0.31978   0.51114   0.00000  Uiso   1.00
C383   C     0.52812   0.23203   0.54114   0.00000  Uiso   1.00
C384   C     0.54816   0.31978   0.48886   0.00000  Uiso   1.00
C385   C     0.68022   0.45184   0.51114   0.00000  Uiso   1.00
C386   C     0.68022   0.04816   0.48886   0.00000  Uiso   1.00
C387   C     0.54816   0.18022   0.51114   0.00000  Uiso   1.00
C388   C     0.95184   0.18022   0.48886   0.00000  Uiso   1.00
C389   C     0.81978   0.04816   0.51114   0.00000  Uiso   1.00
C390   C     0.81978   0.45184   0.48886   0.00000  Uiso   1.00
C391   C     0.69377   0.04055   0.10213   0.00000  Uiso   1.00
C392   C     0.80623   0.04055   0.89787   0.00000  Uiso   1.00
C393   C     0.95946   0.19377   0.10213   0.00000  Uiso   1.00
C394   C     0.97188   0.23203   0.45886   0.00000  Uiso   1.00
C395   C     0.95945   0.30623   0.89787   0.00000  Uiso   1.00
C396   C     0.80623   0.45946   0.10213   0.00000  Uiso   1.00
C397   C     0.69377   0.45945   0.89787   0.00000  Uiso   1.00
C398   C     0.54054   0.30623   0.10213   0.00000  Uiso   1.00
C399   C     0.54055   0.19377   0.89787   0.00000  Uiso   1.00
C400   C     0.94377   0.29055   0.60213   0.00000  Uiso   1.00
C401   C     0.55623   0.29055   0.39787   0.00000  Uiso   1.00
C402   C     0.70945   0.44377   0.60213   0.00000  Uiso   1.00
C403   C     0.70945   0.05623   0.39787   0.00000  Uiso   1.00
C404   C     0.55623   0.20945   0.60213   0.00000  Uiso   1.00
C405   C     0.76797   0.02812   0.54114   0.00000  Uiso   1.00
C406   C     0.94377   0.20945   0.39787   0.00000  Uiso   1.00
C407   C     0.79055   0.05623   0.60213   0.00000  Uiso   1.00
C408   C     0.79054   0.44377   0.39787   0.00000  Uiso   1.00
C409   C     0.76797   0.47188   0.45886   0.00000  Uiso   1.00
C410   C     0.72196   0.01855   0.08166   0.00000  Uiso   1.00
C411   C     0.77804   0.01855   0.91834   0.00000  Uiso   1.00
C412   C     0.98145   0.22196   0.08166   0.00000  Uiso   1.00
C413   C     0.77812   0.01797   0.95886   0.00000  Uiso   1.00
C414   C     0.98145   0.27804   0.91834   0.00000  Uiso   1.00
C415   C     0.77804   0.48145   0.08166   0.00000  Uiso   1.00
C416   C     0.72196   0.48145   0.91834   0.00000  Uiso   1.00
C417   C     0.51855   0.27804   0.08166   0.00000  Uiso   1.00
C418   C     0.51855   0.22196   0.91834   0.00000  Uiso   1.00
C419   C     0.97196   0.26855   0.58166   0.00000  Uiso   1.00
C420   C     0.52804   0.26855   0.41834   0.00000  Uiso   1.00
C421   C     0.73145   0.47196   0.58166   0.00000  Uiso   1.00
C422   C     0.73145   0.02804   0.41834   0.00000  Uiso   1.00
C423   C     0.52804   0.23145   0.58166   0.00000  Uiso   1.00
C424   C     0.98203   0.22188   0.04114   0.00000  Uiso   1.00
C425   C     0.97196   0.23145   0.41834   0.00000  Uiso   1.00
C426   C     0.76855   0.02804   0.58166   0.00000  Uiso   1.00
C427   C     0.76855   0.47196   0.41834   0.00000  Uiso   1.00
C428   C     0.75000   0.00000   0.02116   0.00000  Uiso   1.00
C429   C     0.75000   0.00000   0.97884   0.00000  Uiso   1.00
C430   C     0.50000   0.25000   0.02116   0.00000  Uiso   1.00
C431   C     0.50000   0.25000   0.97884   0.00000  Uiso   1.00
C432   C     0.50000   0.25000   0.52116   0.00000  Uiso   1.00
C433   C     0.50000   0.25000   0.47884   0.00000  Uiso   1.00
C434   C     0.75000   0.00000   0.52116   0.00000  Uiso   1.00
C435   C     0.98202   0.27812   0.95886   0.00000  Uiso   1.00
C436   C     0.75000   0.00000   0.47884   0.00000  Uiso   1.00
C437   C     0.75000   0.00000   0.35525   0.00000  Uiso   1.00
C438   C     0.75000   0.00000   0.64475   0.00000  Uiso   1.00
C439   C     0.50000   0.25000   0.35525   0.00000  Uiso   1.00
C440   C     0.50000   0.25000   0.64475   0.00000  Uiso   1.00
C441   C     0.50000   0.25000   0.85525   0.00000  Uiso   1.00
C442   C     0.50000   0.25000   0.14475   0.00000  Uiso   1.00
C443   C     0.75000   0.00000   0.85525   0.00000  Uiso   1.00
C444   C     0.75000   0.00000   0.14475   0.00000  Uiso   1.00
C445   C     0.67994   0.07006   0.25000   0.00000  Uiso   1.00
C446   C     0.77812   0.48203   0.04114   0.00000  Uiso   1.00
C447   C     0.82006   0.42994   0.75000   0.00000  Uiso   1.00
C448   C     0.92994   0.17994   0.25000   0.00000  Uiso   1.00
C449   C     0.57006   0.32006   0.75000   0.00000  Uiso   1.00
C450   C     0.82006   0.42994   0.25000   0.00000  Uiso   1.00
C451   C     0.67994   0.07006   0.75000   0.00000  Uiso   1.00
C452   C     0.57006   0.32006   0.25000   0.00000  Uiso   1.00
C453   C     0.92994   0.17994   0.75000   0.00000  Uiso   1.00
C454   C     0.67994   0.42994   0.75000   0.00000  Uiso   1.00
C455   C     0.82006   0.07006   0.25000   0.00000  Uiso   1.00
C456   C     0.92994   0.32006   0.75000   0.00000  Uiso   1.00
C457   C     0.72188   0.48203   0.95886   0.00000  Uiso   1.00
C458   C     0.57006   0.17994   0.25000   0.00000  Uiso   1.00
C459   C     0.82006   0.07006   0.75000   0.00000  Uiso   1.00
C460   C     0.67994   0.42994   0.25000   0.00000  Uiso   1.00
C461   C     0.57006   0.17994   0.75000   0.00000  Uiso   1.00
C462   C     0.92994   0.32006   0.25000   0.00000  Uiso   1.00
C463   C     0.62231   0.40442   0.22450   0.00000  Uiso   1.00
C464   C     0.87768   0.09557   0.77551   0.00000  Uiso   1.00
C465   C     0.59558   0.12231   0.22450   0.00000  Uiso   1.00
C466   C     0.90443   0.37768   0.77551   0.00000  Uiso   1.00
C467   C     0.87769   0.09558   0.22450   0.00000  Uiso   1.00
C468   C     0.51797   0.27812   0.04114   0.00000  Uiso   1.00
C469   C     0.62232   0.40443   0.77551   0.00000  Uiso   1.00
C470   C     0.90442   0.37769   0.22450   0.00000  Uiso   1.00
C471   C     0.59557   0.12232   0.77551   0.00000  Uiso   1.00
C472   C     0.62231   0.09558   0.77551   0.00000  Uiso   1.00
C473   C     0.87768   0.40443   0.22449   0.00000  Uiso   1.00
C474   C     0.59558   0.37769   0.77551   0.00000  Uiso   1.00
C475   C     0.90443   0.12232   0.22449   0.00000  Uiso   1.00
C476   C     0.87769   0.40442   0.77551   0.00000  Uiso   1.00
C477   C     0.62232   0.09557   0.22449   0.00000  Uiso   1.00
C478   C     0.90442   0.12231   0.77551   0.00000  Uiso   1.00
C479   C     0.51797   0.22188   0.95886   0.00000  Uiso   1.00
C480   C     0.59557   0.37768   0.22449   0.00000  Uiso   1.00
C481   C     0.87231   0.15442   0.72450   0.00000  Uiso   1.00
C482   C     0.62768   0.34557   0.27551   0.00000  Uiso   1.00
C483   C     0.84558   0.37231   0.72450   0.00000  Uiso   1.00
C484   C     0.65443   0.12768   0.27551   0.00000  Uiso   1.00
C485   C     0.62769   0.34558   0.72450   0.00000  Uiso   1.00
C486   C     0.87232   0.15443   0.27551   0.00000  Uiso   1.00
C487   C     0.65442   0.12769   0.72450   0.00000  Uiso   1.00
C488   C     0.84557   0.37232   0.27551   0.00000  Uiso   1.00
C489   C     0.87231   0.34558   0.27551   0.00000  Uiso   1.00
C490   C     0.97188   0.26797   0.54114   0.00000  Uiso   1.00
C491   C     0.62768   0.15443   0.72449   0.00000  Uiso   1.00
C492   C     0.84558   0.12769   0.27551   0.00000  Uiso   1.00
C493   C     0.65443   0.37232   0.72449   0.00000  Uiso   1.00
C494   C     0.62769   0.15442   0.27551   0.00000  Uiso   1.00
C495   C     0.87232   0.34557   0.72449   0.00000  Uiso   1.00
C496   C     0.65442   0.37231   0.27551   0.00000  Uiso   1.00
C497   C     0.84557   0.12768   0.72449   0.00000  Uiso   1.00
C498   C     0.59813   0.34813   0.25000   0.00000  Uiso   1.00
C499   C     0.90187   0.15187   0.75000   0.00000  Uiso   1.00
C500   C     0.65187   0.09813   0.25000   0.00000  Uiso   1.00
H501   H     0.61981   0.42702   0.20453   0.00000  Uiso   1.00
H502   H     0.88016   0.42701   0.20451   0.00000  Uiso   1.00
H503   H     0.57298   0.38019   0.79547   0.00000  Uiso   1.00
H504   H     0.92701   0.11984   0.20451   0.00000  Uiso   1.00
H505   H     0.88019   0.42702   0.79547   0.00000  Uiso   1.00
H506   H     0.61984   0.07299   0.20451   0.00000  Uiso   1.00
H507   H     0.92702   0.11981   0.79547   0.00000  Uiso   1.00
H508   H     0.57299   0.38016   0.20451   0.00000  Uiso   1.00
H509   H     0.86981   0.17702   0.70453   0.00000  Uiso   1.00
H510   H     0.63016   0.32299   0.29549   0.00000  Uiso   1.00
H511   H     0.82298   0.36981   0.70453   0.00000  Uiso   1.00
H512   H     0.88016   0.07299   0.79549   0.00000  Uiso   1.00
H513   H     0.67701   0.13016   0.29549   0.00000  Uiso   1.00
H514   H     0.63019   0.32298   0.70453   0.00000  Uiso   1.00
H515   H     0.86984   0.17701   0.29549   0.00000  Uiso   1.00
H516   H     0.67702   0.13019   0.70453   0.00000  Uiso   1.00
H517   H     0.82299   0.36984   0.29549   0.00000  Uiso   1.00
H518   H     0.86981   0.32298   0.29547   0.00000  Uiso   1.00
H519   H     0.63016   0.17701   0.70451   0.00000  Uiso   1.00
H520   H     0.82298   0.13019   0.29547   0.00000  Uiso   1.00
H521   H     0.67701   0.36984   0.70451   0.00000  Uiso   1.00
H522   H     0.63019   0.17702   0.29547   0.00000  Uiso   1.00
H523   H     0.57298   0.11981   0.20453   0.00000  Uiso   1.00
H524   H     0.86984   0.32299   0.70451   0.00000  Uiso   1.00
H525   H     0.67702   0.36981   0.29547   0.00000  Uiso   1.00
H526   H     0.82299   0.13016   0.70451   0.00000  Uiso   1.00
H527   H     0.71958   0.07037   0.98523   0.00000  Uiso   1.00
H528   H     0.71470   0.08509   0.03536   0.00000  Uiso   1.00
H529   H     0.67624   0.08423   0.00358   0.00000  Uiso   1.00
H530   H     0.78042   0.07037   0.01477   0.00000  Uiso   1.00
H531   H     0.78530   0.08509   0.96464   0.00000  Uiso   1.00
H532   H     0.82376   0.08423   0.99642   0.00000  Uiso   1.00
H533   H     0.92963   0.21958   0.98523   0.00000  Uiso   1.00
H534   H     0.92701   0.38016   0.79549   0.00000  Uiso   1.00
H535   H     0.91491   0.21470   0.03536   0.00000  Uiso   1.00
H536   H     0.91577   0.17623   0.00358   0.00000  Uiso   1.00
H537   H     0.92962   0.28042   0.01477   0.00000  Uiso   1.00
H538   H     0.91490   0.28529   0.96464   0.00000  Uiso   1.00
H539   H     0.91577   0.32376   0.99642   0.00000  Uiso   1.00
H540   H     0.78042   0.42963   0.98523   0.00000  Uiso   1.00
H541   H     0.78530   0.41491   0.03536   0.00000  Uiso   1.00
H542   H     0.82376   0.41577   0.00358   0.00000  Uiso   1.00
H543   H     0.71958   0.42963   0.01477   0.00000  Uiso   1.00
H544   H     0.71470   0.41491   0.96464   0.00000  Uiso   1.00
H545   H     0.88019   0.07298   0.20453   0.00000  Uiso   1.00
H546   H     0.67624   0.41577   0.99642   0.00000  Uiso   1.00
H547   H     0.57037   0.28042   0.98523   0.00000  Uiso   1.00
H548   H     0.58509   0.28530   0.03536   0.00000  Uiso   1.00
H549   H     0.58423   0.32377   0.00358   0.00000  Uiso   1.00
H550   H     0.57038   0.21958   0.01477   0.00000  Uiso   1.00
H551   H     0.58509   0.21471   0.96464   0.00000  Uiso   1.00
H552   H     0.58423   0.17624   0.99642   0.00000  Uiso   1.00
H553   H     0.96958   0.32037   0.48523   0.00000  Uiso   1.00
H554   H     0.96470   0.33509   0.53536   0.00000  Uiso   1.00
H555   H     0.92624   0.33423   0.50358   0.00000  Uiso   1.00
H556   H     0.61984   0.42701   0.79549   0.00000  Uiso   1.00
H557   H     0.53042   0.32037   0.51477   0.00000  Uiso   1.00
H558   H     0.53530   0.33509   0.46464   0.00000  Uiso   1.00
H559   H     0.57376   0.33423   0.49642   0.00000  Uiso   1.00
H560   H     0.67963   0.46958   0.48524   0.00000  Uiso   1.00
H561   H     0.66491   0.46470   0.53536   0.00000  Uiso   1.00
H562   H     0.66577   0.42624   0.50358   0.00000  Uiso   1.00
H563   H     0.67963   0.03042   0.51477   0.00000  Uiso   1.00
H564   H     0.66491   0.03530   0.46464   0.00000  Uiso   1.00
H565   H     0.66577   0.07376   0.49642   0.00000  Uiso   1.00
H566   H     0.53042   0.17963   0.48524   0.00000  Uiso   1.00
H567   H     0.92702   0.38019   0.20453   0.00000  Uiso   1.00
H568   H     0.53530   0.16491   0.53536   0.00000  Uiso   1.00
H569   H     0.57376   0.16577   0.50358   0.00000  Uiso   1.00
H570   H     0.96958   0.17963   0.51477   0.00000  Uiso   1.00
H571   H     0.96470   0.16491   0.46464   0.00000  Uiso   1.00
H572   H     0.92624   0.16577   0.49642   0.00000  Uiso   1.00
H573   H     0.82037   0.03042   0.48523   0.00000  Uiso   1.00
H574   H     0.83509   0.03530   0.53536   0.00000  Uiso   1.00
H575   H     0.83423   0.07376   0.50358   0.00000  Uiso   1.00
H576   H     0.82037   0.46958   0.51477   0.00000  Uiso   1.00
H577   H     0.83509   0.46470   0.46464   0.00000  Uiso   1.00
H578   H     0.57299   0.11984   0.79549   0.00000  Uiso   1.00
H579   H     0.83423   0.42624   0.49642   0.00000  Uiso   1.00
H580   H     0.70065   0.05508   0.12839   0.00000  Uiso   1.00
H581   H     0.79935   0.05508   0.87161   0.00000  Uiso   1.00
H582   H     0.94492   0.20064   0.12839   0.00000  Uiso   1.00
H583   H     0.94491   0.29935   0.87161   0.00000  Uiso   1.00
H584   H     0.79935   0.44492   0.12839   0.00000  Uiso   1.00
H585   H     0.70065   0.44492   0.87161   0.00000  Uiso   1.00
H586   H     0.55508   0.29936   0.12839   0.00000  Uiso   1.00
H587   H     0.55509   0.20065   0.87161   0.00000  Uiso   1.00
H588   H     0.95065   0.30508   0.62839   0.00000  Uiso   1.00
H589   H     0.61981   0.07298   0.79547   0.00000  Uiso   1.00
H590   H     0.54935   0.30508   0.37161   0.00000  Uiso   1.00
H591   H     0.69492   0.45065   0.62839   0.00000  Uiso   1.00
H592   H     0.69492   0.04935   0.37161   0.00000  Uiso   1.00
H593   H     0.54935   0.19492   0.62839   0.00000  Uiso   1.00
H594   H     0.95065   0.19492   0.37161   0.00000  Uiso   1.00
H595   H     0.80508   0.04935   0.62839   0.00000  Uiso   1.00
H596   H     0.80508   0.45065   0.37161   0.00000  Uiso   1.00
O597   O     0.75000   0.00000   0.25000   0.00000  Uiso   1.00
O598   O     0.75000   0.46964   0.66317   0.00000  Uiso   1.00
O599   O     0.96964   0.25000   0.33683   0.00000  Uiso   1.00
O600   O     0.53036   0.25000   0.66317   0.00000  Uiso   1.00
O601   O     0.50000   0.21964   0.83683   0.00000  Uiso   1.00
O602   O     0.50000   0.28036   0.16317   0.00000  Uiso   1.00
O603   O     0.78036   0.00000   0.83683   0.00000  Uiso   1.00
O604   O     0.71964   0.00000   0.16317   0.00000  Uiso   1.00
O605   O     0.50000   0.28036   0.83683   0.00000  Uiso   1.00
O606   O     0.50000   0.21964   0.16317   0.00000  Uiso   1.00
O607   O     0.71964   0.00000   0.83683   0.00000  Uiso   1.00
O608   O     0.75000   0.00000   0.75000   0.00000  Uiso   1.00
O609   O     0.78036   0.00000   0.16317   0.00000  Uiso   1.00
O610   O     0.70725   0.07307   0.27282   0.00000  Uiso   1.00
O611   O     0.79274   0.42693   0.72718   0.00000  Uiso   1.00
O612   O     0.92693   0.20726   0.27282   0.00000  Uiso   1.00
O613   O     0.57307   0.29274   0.72718   0.00000  Uiso   1.00
O614   O     0.79274   0.42693   0.27282   0.00000  Uiso   1.00
O615   O     0.70725   0.07307   0.72718   0.00000  Uiso   1.00
O616   O     0.57307   0.29274   0.27282   0.00000  Uiso   1.00
O617   O     0.92693   0.20726   0.72718   0.00000  Uiso   1.00
O618   O     0.70725   0.42693   0.72718   0.00000  Uiso   1.00
O619   O     0.50000   0.25000   0.25000   0.00000  Uiso   1.00
O620   O     0.79274   0.07307   0.27282   0.00000  Uiso   1.00
O621   O     0.92693   0.29275   0.72718   0.00000  Uiso   1.00
O622   O     0.57307   0.20725   0.27282   0.00000  Uiso   1.00
O623   O     0.79274   0.07307   0.72718   0.00000  Uiso   1.00
O624   O     0.70725   0.42693   0.27282   0.00000  Uiso   1.00
O625   O     0.57307   0.20725   0.72718   0.00000  Uiso   1.00
O626   O     0.92693   0.29275   0.27282   0.00000  Uiso   1.00
O627   O     0.95725   0.32307   0.77282   0.00000  Uiso   1.00
O628   O     0.54274   0.17693   0.22718   0.00000  Uiso   1.00
O629   O     0.67693   0.45725   0.77282   0.00000  Uiso   1.00
O630   O     0.50000   0.25000   0.75000   0.00000  Uiso   1.00
O631   O     0.82307   0.04275   0.22718   0.00000  Uiso   1.00
O632   O     0.54274   0.17693   0.77282   0.00000  Uiso   1.00
O633   O     0.95725   0.32307   0.22718   0.00000  Uiso   1.00
O634   O     0.82307   0.04275   0.77282   0.00000  Uiso   1.00
O635   O     0.67693   0.45725   0.22718   0.00000  Uiso   1.00
O636   O     0.95725   0.17693   0.22718   0.00000  Uiso   1.00
O637   O     0.54274   0.32307   0.77282   0.00000  Uiso   1.00
O638   O     0.67693   0.04275   0.22718   0.00000  Uiso   1.00
O639   O     0.82307   0.45726   0.77282   0.00000  Uiso   1.00
O640   O     0.54274   0.32307   0.22718   0.00000  Uiso   1.00
O641   O     0.75000   0.46964   0.33683   0.00000  Uiso   1.00
O642   O     0.95725   0.17693   0.77282   0.00000  Uiso   1.00
O643   O     0.82307   0.45726   0.22718   0.00000  Uiso   1.00
O644   O     0.67693   0.04275   0.77282   0.00000  Uiso   1.00
O645   O     0.69309   0.03349   0.02100   0.00000  Uiso   1.00
O646   O     0.80691   0.03349   0.97900   0.00000  Uiso   1.00
O647   O     0.96652   0.19309   0.02100   0.00000  Uiso   1.00
O648   O     0.96651   0.30691   0.97900   0.00000  Uiso   1.00
O649   O     0.80691   0.46651   0.02100   0.00000  Uiso   1.00
O650   O     0.69309   0.46651   0.97900   0.00000  Uiso   1.00
O651   O     0.53348   0.30691   0.02100   0.00000  Uiso   1.00
O652   O     0.75000   0.03036   0.66317   0.00000  Uiso   1.00
O653   O     0.53349   0.19309   0.97900   0.00000  Uiso   1.00
O654   O     0.94309   0.28349   0.52100   0.00000  Uiso   1.00
O655   O     0.55691   0.28349   0.47900   0.00000  Uiso   1.00
O656   O     0.71651   0.44309   0.52100   0.00000  Uiso   1.00
O657   O     0.71651   0.05691   0.47900   0.00000  Uiso   1.00
O658   O     0.55691   0.21651   0.52100   0.00000  Uiso   1.00
O659   O     0.94309   0.21651   0.47900   0.00000  Uiso   1.00
O660   O     0.78349   0.05691   0.52100   0.00000  Uiso   1.00
O661   O     0.78349   0.44309   0.47900   0.00000  Uiso   1.00
O662   O     0.66258   0.04266   0.08995   0.00000  Uiso   1.00
O663   O     0.53036   0.25000   0.33683   0.00000  Uiso   1.00
O664   O     0.83742   0.04266   0.91005   0.00000  Uiso   1.00
O665   O     0.95735   0.16258   0.08995   0.00000  Uiso   1.00
O666   O     0.95734   0.33742   0.91005   0.00000  Uiso   1.00
O667   O     0.83742   0.45734   0.08995   0.00000  Uiso   1.00
O668   O     0.66258   0.45734   0.91005   0.00000  Uiso   1.00
O669   O     0.54265   0.33742   0.08995   0.00000  Uiso   1.00
O670   O     0.54266   0.16258   0.91005   0.00000  Uiso   1.00
O671   O     0.91258   0.29266   0.58995   0.00000  Uiso   1.00
O672   O     0.58742   0.29266   0.41005   0.00000  Uiso   1.00
O673   O     0.70734   0.41258   0.58995   0.00000  Uiso   1.00
O674   O     0.96964   0.25000   0.66317   0.00000  Uiso   1.00
O675   O     0.70734   0.08742   0.41005   0.00000  Uiso   1.00
O676   O     0.58742   0.20734   0.58995   0.00000  Uiso   1.00
O677   O     0.91258   0.20734   0.41005   0.00000  Uiso   1.00
O678   O     0.79266   0.08742   0.58995   0.00000  Uiso   1.00
O679   O     0.79266   0.41258   0.41005   0.00000  Uiso   1.00
O680   O     0.75000   0.03036   0.33683   0.00000  Uiso   1.00
Zn681  Zn    0.70660   0.00000   0.21760   0.00000  Uiso   1.00
Zn682  Zn    0.54340   0.25000   0.28240   0.00000  Uiso   1.00
Zn683  Zn    0.75000   0.45660   0.71760   0.00000  Uiso   1.00
Zn684  Zn    0.75000   0.04340   0.28240   0.00000  Uiso   1.00
Zn685  Zn    0.54340   0.25000   0.71760   0.00000  Uiso   1.00
Zn686  Zn    0.95660   0.25000   0.28240   0.00000  Uiso   1.00
Zn687  Zn    0.75000   0.04340   0.71760   0.00000  Uiso   1.00
Zn688  Zn    0.75000   0.45660   0.28240   0.00000  Uiso   1.00
Zn689  Zn    0.79340   0.00000   0.78240   0.00000  Uiso   1.00
Zn690  Zn    0.50000   0.20660   0.21760   0.00000  Uiso   1.00
Zn691  Zn    0.50000   0.29340   0.78240   0.00000  Uiso   1.00
Zn692  Zn    0.79340   0.00000   0.21760   0.00000  Uiso   1.00
Zn693  Zn    0.70660   0.00000   0.78240   0.00000  Uiso   1.00
Zn694  Zn    0.50000   0.29340   0.21760   0.00000  Uiso   1.00
Zn695  Zn    0.50000   0.20660   0.78240   0.00000  Uiso   1.00
Zn696  Zn    0.95660   0.25000   0.71760   0.00000  Uiso   1.00
C697   C     0.22188   0.51797   0.04114   0.00000  Uiso   1.00
C698   C     0.02812   0.76797   0.45886   0.00000  Uiso   1.00
C699   C     0.34813   0.90187   0.75000   0.00000  Uiso   1.00
C700   C     0.40187   0.65187   0.25000   0.00000  Uiso   1.00
C701   C     0.09813   0.84813   0.75000   0.00000  Uiso   1.00
C702   C     0.34813   0.90187   0.25000   0.00000  Uiso   1.00
C703   C     0.15187   0.59813   0.75000   0.00000  Uiso   1.00
C704   C     0.09813   0.65187   0.75000   0.00000  Uiso   1.00
C705   C     0.40187   0.84813   0.25000   0.00000  Uiso   1.00
C706   C     0.15187   0.90187   0.75000   0.00000  Uiso   1.00
C707   C     0.34813   0.59813   0.25000   0.00000  Uiso   1.00
C708   C     0.40187   0.84813   0.75000   0.00000  Uiso   1.00
C709   C     0.23203   0.97188   0.54114   0.00000  Uiso   1.00
C710   C     0.09813   0.65187   0.25000   0.00000  Uiso   1.00
C711   C     0.34813   0.59813   0.75000   0.00000  Uiso   1.00
C712   C     0.15187   0.90187   0.25000   0.00000  Uiso   1.00
C713   C     0.25000   0.50000   0.10214   0.00000  Uiso   1.00
C714   C     0.25000   0.50000   0.89786   0.00000  Uiso   1.00
C715   C    -0.00000   0.75000   0.10214   0.00000  Uiso   1.00
C716   C    -0.00000   0.75000   0.89786   0.00000  Uiso   1.00
C717   C    -0.00000   0.75000   0.60214   0.00000  Uiso   1.00
C718   C     0.00000   0.75000   0.39786   0.00000  Uiso   1.00
C719   C     0.25000   0.50000   0.60214   0.00000  Uiso   1.00
C720   C     0.23203   0.52812   0.45886   0.00000  Uiso   1.00
C721   C     0.25000   0.50000   0.39786   0.00000  Uiso   1.00
C722   C     0.20184   0.56978   0.01114   0.00000  Uiso   1.00
C723   C     0.29816   0.56978   0.98886   0.00000  Uiso   1.00
C724   C     0.43022   0.70184   0.01114   0.00000  Uiso   1.00
C725   C     0.43022   0.79815   0.98886   0.00000  Uiso   1.00
C726   C     0.29816   0.93022   0.01114   0.00000  Uiso   1.00
C727   C     0.20184   0.93022   0.98886   0.00000  Uiso   1.00
C728   C     0.06978   0.79816   0.01114   0.00000  Uiso   1.00
C729   C     0.06978   0.70185   0.98886   0.00000  Uiso   1.00
C730   C     0.45184   0.81978   0.51114   0.00000  Uiso   1.00
C731   C     0.02812   0.73203   0.54114   0.00000  Uiso   1.00
C732   C     0.04816   0.81978   0.48886   0.00000  Uiso   1.00
C733   C     0.18022   0.95184   0.51114   0.00000  Uiso   1.00
C734   C     0.18022   0.54816   0.48886   0.00000  Uiso   1.00
C735   C     0.04816   0.68022   0.51114   0.00000  Uiso   1.00
C736   C     0.45184   0.68022   0.48886   0.00000  Uiso   1.00
C737   C     0.31978   0.54816   0.51114   0.00000  Uiso   1.00
C738   C     0.31978   0.95184   0.48886   0.00000  Uiso   1.00
C739   C     0.19377   0.54055   0.10213   0.00000  Uiso   1.00
C740   C     0.30623   0.54055   0.89787   0.00000  Uiso   1.00
C741   C     0.45946   0.69377   0.10213   0.00000  Uiso   1.00
C742   C     0.47188   0.73203   0.45886   0.00000  Uiso   1.00
C743   C     0.45945   0.80623   0.89787   0.00000  Uiso   1.00
C744   C     0.30623   0.95946   0.10213   0.00000  Uiso   1.00
C745   C     0.19377   0.95945   0.89787   0.00000  Uiso   1.00
C746   C     0.04054   0.80623   0.10213   0.00000  Uiso   1.00
C747   C     0.04055   0.69377   0.89787   0.00000  Uiso   1.00
C748   C     0.44377   0.79055   0.60213   0.00000  Uiso   1.00
C749   C     0.05623   0.79055   0.39787   0.00000  Uiso   1.00
C750   C     0.20945   0.94377   0.60213   0.00000  Uiso   1.00
C751   C     0.20945   0.55623   0.39787   0.00000  Uiso   1.00
C752   C     0.05623   0.70945   0.60213   0.00000  Uiso   1.00
C753   C     0.26797   0.52812   0.54114   0.00000  Uiso   1.00
C754   C     0.44377   0.70945   0.39787   0.00000  Uiso   1.00
C755   C     0.29055   0.55623   0.60213   0.00000  Uiso   1.00
C756   C     0.29054   0.94377   0.39787   0.00000  Uiso   1.00
C757   C     0.26797   0.97188   0.45886   0.00000  Uiso   1.00
C758   C     0.22196   0.51855   0.08166   0.00000  Uiso   1.00
C759   C     0.27804   0.51855   0.91834   0.00000  Uiso   1.00
C760   C     0.48145   0.72196   0.08166   0.00000  Uiso   1.00
C761   C     0.27812   0.51797   0.95886   0.00000  Uiso   1.00
C762   C     0.48145   0.77804   0.91834   0.00000  Uiso   1.00
C763   C     0.27804   0.98145   0.08166   0.00000  Uiso   1.00
C764   C     0.22196   0.98145   0.91834   0.00000  Uiso   1.00
C765   C     0.01855   0.77804   0.08166   0.00000  Uiso   1.00
C766   C     0.01855   0.72196   0.91834   0.00000  Uiso   1.00
C767   C     0.47196   0.76855   0.58166   0.00000  Uiso   1.00
C768   C     0.02804   0.76855   0.41834   0.00000  Uiso   1.00
C769   C     0.23145   0.97196   0.58166   0.00000  Uiso   1.00
C770   C     0.23145   0.52804   0.41834   0.00000  Uiso   1.00
C771   C     0.02804   0.73145   0.58166   0.00000  Uiso   1.00
C772   C     0.48203   0.72188   0.04114   0.00000  Uiso   1.00
C773   C     0.47196   0.73145   0.41834   0.00000  Uiso   1.00
C774   C     0.26855   0.52804   0.58166   0.00000  Uiso   1.00
C775   C     0.26855   0.97196   0.41834   0.00000  Uiso   1.00
C776   C     0.25000   0.50000   0.02116   0.00000  Uiso   1.00
C777   C     0.25000   0.50000   0.97884   0.00000  Uiso   1.00
C778   C    -0.00000   0.75000   0.02116   0.00000  Uiso   1.00
C779   C    -0.00000   0.75000   0.97884   0.00000  Uiso   1.00
C780   C     0.00000   0.75000   0.52116   0.00000  Uiso   1.00
C781   C    -0.00000   0.75000   0.47884   0.00000  Uiso   1.00
C782   C     0.25000   0.50000   0.52116   0.00000  Uiso   1.00
C783   C     0.48202   0.77812   0.95886   0.00000  Uiso   1.00
C784   C     0.25000   0.50000   0.47884   0.00000  Uiso   1.00
C785   C     0.25000   0.50000   0.35525   0.00000  Uiso   1.00
C786   C     0.25000   0.50000   0.64475   0.00000  Uiso   1.00
C787   C     0.00000   0.75000   0.35525   0.00000  Uiso   1.00
C788   C    -0.00000   0.75000   0.64475   0.00000  Uiso   1.00
C789   C     0.00000   0.75000   0.85525   0.00000  Uiso   1.00
C790   C     0.00000   0.75000   0.14475   0.00000  Uiso   1.00
C791   C     0.25000   0.50000   0.85525   0.00000  Uiso   1.00
C792   C     0.25000   0.50000   0.14475   0.00000  Uiso   1.00
C793   C     0.17994   0.57006   0.25000   0.00000  Uiso   1.00
C794   C     0.27812   0.98203   0.04114   0.00000  Uiso   1.00
C795   C     0.32006   0.92994   0.75000   0.00000  Uiso   1.00
C796   C     0.42994   0.67994   0.25000   0.00000  Uiso   1.00
C797   C     0.07006   0.82006   0.75000   0.00000  Uiso   1.00
C798   C     0.32006   0.92994   0.25000   0.00000  Uiso   1.00
C799   C     0.17994   0.57006   0.75000   0.00000  Uiso   1.00
C800   C     0.07006   0.82006   0.25000   0.00000  Uiso   1.00
C801   C     0.42994   0.67994   0.75000   0.00000  Uiso   1.00
C802   C     0.17994   0.92994   0.75000   0.00000  Uiso   1.00
C803   C     0.32006   0.57006   0.25000   0.00000  Uiso   1.00
C804   C     0.42994   0.82006   0.75000   0.00000  Uiso   1.00
C805   C     0.22188   0.98203   0.95886   0.00000  Uiso   1.00
C806   C     0.07006   0.67994   0.25000   0.00000  Uiso   1.00
C807   C     0.32006   0.57006   0.75000   0.00000  Uiso   1.00
C808   C     0.17994   0.92994   0.25000   0.00000  Uiso   1.00
C809   C     0.07006   0.67994   0.75000   0.00000  Uiso   1.00
C810   C     0.42994   0.82006   0.25000   0.00000  Uiso   1.00
C811   C     0.12231   0.90442   0.22450   0.00000  Uiso   1.00
C812   C     0.37768   0.59557   0.77551   0.00000  Uiso   1.00
C813   C     0.09558   0.62231   0.22450   0.00000  Uiso   1.00
C814   C     0.40443   0.87768   0.77551   0.00000  Uiso   1.00
C815   C     0.37769   0.59558   0.22450   0.00000  Uiso   1.00
C816   C     0.01797   0.77812   0.04114   0.00000  Uiso   1.00
C817   C     0.12232   0.90443   0.77551   0.00000  Uiso   1.00
C818   C     0.40442   0.87769   0.22450   0.00000  Uiso   1.00
C819   C     0.09557   0.62232   0.77551   0.00000  Uiso   1.00
C820   C     0.12231   0.59558   0.77551   0.00000  Uiso   1.00
C821   C     0.37768   0.90443   0.22449   0.00000  Uiso   1.00
C822   C     0.09558   0.87769   0.77551   0.00000  Uiso   1.00
C823   C     0.40443   0.62232   0.22449   0.00000  Uiso   1.00
C824   C     0.37769   0.90442   0.77551   0.00000  Uiso   1.00
C825   C     0.12232   0.59557   0.22449   0.00000  Uiso   1.00
C826   C     0.40442   0.62231   0.77551   0.00000  Uiso   1.00
C827   C     0.01797   0.72188   0.95886   0.00000  Uiso   1.00
C828   C     0.09557   0.87768   0.22449   0.00000  Uiso   1.00
C829   C     0.37231   0.65442   0.72450   0.00000  Uiso   1.00
C830   C     0.12768   0.84557   0.27551   0.00000  Uiso   1.00
C831   C     0.34558   0.87231   0.72450   0.00000  Uiso   1.00
C832   C     0.15443   0.62768   0.27551   0.00000  Uiso   1.00
C833   C     0.12769   0.84558   0.72450   0.00000  Uiso   1.00
C834   C     0.37232   0.65443   0.27551   0.00000  Uiso   1.00
C835   C     0.15442   0.62769   0.72450   0.00000  Uiso   1.00
C836   C     0.34557   0.87232   0.27551   0.00000  Uiso   1.00
C837   C     0.37231   0.84558   0.27551   0.00000  Uiso   1.00
C838   C     0.47188   0.76797   0.54114   0.00000  Uiso   1.00
C839   C     0.12768   0.65443   0.72449   0.00000  Uiso   1.00
C840   C     0.34558   0.62769   0.27551   0.00000  Uiso   1.00
C841   C     0.15443   0.87232   0.72449   0.00000  Uiso   1.00
C842   C     0.12769   0.65442   0.27551   0.00000  Uiso   1.00
C843   C     0.37232   0.84557   0.72449   0.00000  Uiso   1.00
C844   C     0.15442   0.87231   0.27551   0.00000  Uiso   1.00
C845   C     0.34557   0.62768   0.72449   0.00000  Uiso   1.00
C846   C     0.09813   0.84813   0.25000   0.00000  Uiso   1.00
C847   C     0.40187   0.65187   0.75000   0.00000  Uiso   1.00
C848   C     0.15187   0.59813   0.25000   0.00000  Uiso   1.00
H849   H     0.11981   0.92702   0.20453   0.00000  Uiso   1.00
H850   H     0.38016   0.92701   0.20451   0.00000  Uiso   1.00
H851   H     0.07298   0.88019   0.79547   0.00000  Uiso   1.00
H852   H     0.42701   0.61984   0.20451   0.00000  Uiso   1.00
H853   H     0.38019   0.92702   0.79547   0.00000  Uiso   1.00
H854   H     0.11984   0.57299   0.20451   0.00000  Uiso   1.00
H855   H     0.42702   0.61981   0.79547   0.00000  Uiso   1.00
H856   H     0.07299   0.88016   0.20451   0.00000  Uiso   1.00
H857   H     0.36981   0.67702   0.70453   0.00000  Uiso   1.00
H858   H     0.13016   0.82299   0.29549   0.00000  Uiso   1.00
H859   H     0.32298   0.86981   0.70453   0.00000  Uiso   1.00
H860   H     0.38016   0.57299   0.79549   0.00000  Uiso   1.00
H861   H     0.17701   0.63016   0.29549   0.00000  Uiso   1.00
H862   H     0.13019   0.82298   0.70453   0.00000  Uiso   1.00
H863   H     0.36984   0.67701   0.29549   0.00000  Uiso   1.00
H864   H     0.17702   0.63019   0.70453   0.00000  Uiso   1.00
H865   H     0.32299   0.86984   0.29549   0.00000  Uiso   1.00
H866   H     0.36981   0.82298   0.29547   0.00000  Uiso   1.00
H867   H     0.13016   0.67701   0.70451   0.00000  Uiso   1.00
H868   H     0.32298   0.63019   0.29547   0.00000  Uiso   1.00
H869   H     0.17701   0.86984   0.70451   0.00000  Uiso   1.00
H870   H     0.13019   0.67702   0.29547   0.00000  Uiso   1.00
H871   H     0.07298   0.61981   0.20453   0.00000  Uiso   1.00
H872   H     0.36984   0.82299   0.70451   0.00000  Uiso   1.00
H873   H     0.17702   0.86981   0.29547   0.00000  Uiso   1.00
H874   H     0.32299   0.63016   0.70451   0.00000  Uiso   1.00
H875   H     0.21958   0.57037   0.98523   0.00000  Uiso   1.00
H876   H     0.21470   0.58509   0.03536   0.00000  Uiso   1.00
H877   H     0.17624   0.58423   0.00358   0.00000  Uiso   1.00
H878   H     0.28042   0.57037   0.01477   0.00000  Uiso   1.00
H879   H     0.28530   0.58509   0.96464   0.00000  Uiso   1.00
H880   H     0.32376   0.58423   0.99642   0.00000  Uiso   1.00
H881   H     0.42963   0.71958   0.98523   0.00000  Uiso   1.00
H882   H     0.42701   0.88016   0.79549   0.00000  Uiso   1.00
H883   H     0.41491   0.71470   0.03536   0.00000  Uiso   1.00
H884   H     0.41577   0.67623   0.00358   0.00000  Uiso   1.00
H885   H     0.42962   0.78042   0.01477   0.00000  Uiso   1.00
H886   H     0.41490   0.78529   0.96464   0.00000  Uiso   1.00
H887   H     0.41577   0.82376   0.99642   0.00000  Uiso   1.00
H888   H     0.28042   0.92963   0.98523   0.00000  Uiso   1.00
H889   H     0.28530   0.91491   0.03536   0.00000  Uiso   1.00
H890   H     0.32376   0.91577   0.00358   0.00000  Uiso   1.00
H891   H     0.21958   0.92963   0.01477   0.00000  Uiso   1.00
H892   H     0.21470   0.91491   0.96464   0.00000  Uiso   1.00
H893   H     0.38019   0.57298   0.20453   0.00000  Uiso   1.00
H894   H     0.17624   0.91577   0.99642   0.00000  Uiso   1.00
H895   H     0.07037   0.78042   0.98523   0.00000  Uiso   1.00
H896   H     0.08509   0.78530   0.03536   0.00000  Uiso   1.00
H897   H     0.08423   0.82377   0.00358   0.00000  Uiso   1.00
H898   H     0.07038   0.71958   0.01477   0.00000  Uiso   1.00
H899   H     0.08509   0.71471   0.96464   0.00000  Uiso   1.00
H900   H     0.08423   0.67624   0.99642   0.00000  Uiso   1.00
H901   H     0.46958   0.82037   0.48523   0.00000  Uiso   1.00
H902   H     0.46470   0.83509   0.53536   0.00000  Uiso   1.00
H903   H     0.42624   0.83423   0.50358   0.00000  Uiso   1.00
H904   H     0.11984   0.92701   0.79549   0.00000  Uiso   1.00
H905   H     0.03042   0.82037   0.51477   0.00000  Uiso   1.00
H906   H     0.03530   0.83509   0.46464   0.00000  Uiso   1.00
H907   H     0.07376   0.83423   0.49642   0.00000  Uiso   1.00
H908   H     0.17963   0.96958   0.48524   0.00000  Uiso   1.00
H909   H     0.16491   0.96470   0.53536   0.00000  Uiso   1.00
H910   H     0.16577   0.92624   0.50358   0.00000  Uiso   1.00
H911   H     0.17963   0.53042   0.51477   0.00000  Uiso   1.00
H912   H     0.16491   0.53530   0.46464   0.00000  Uiso   1.00
H913   H     0.16577   0.57376   0.49642   0.00000  Uiso   1.00
H914   H     0.03042   0.67963   0.48524   0.00000  Uiso   1.00
H915   H     0.42702   0.88019   0.20453   0.00000  Uiso   1.00
H916   H     0.03530   0.66491   0.53536   0.00000  Uiso   1.00
H917   H     0.07376   0.66577   0.50358   0.00000  Uiso   1.00
H918   H     0.46958   0.67963   0.51477   0.00000  Uiso   1.00
H919   H     0.46470   0.66491   0.46464   0.00000  Uiso   1.00
H920   H     0.42624   0.66577   0.49642   0.00000  Uiso   1.00
H921   H     0.32037   0.53042   0.48523   0.00000  Uiso   1.00
H922   H     0.33509   0.53530   0.53536   0.00000  Uiso   1.00
H923   H     0.33423   0.57376   0.50358   0.00000  Uiso   1.00
H924   H     0.32037   0.96958   0.51477   0.00000  Uiso   1.00
H925   H     0.33509   0.96470   0.46464   0.00000  Uiso   1.00
H926   H     0.07299   0.61984   0.79549   0.00000  Uiso   1.00
H927   H     0.33423   0.92624   0.49642   0.00000  Uiso   1.00
H928   H     0.20065   0.55508   0.12839   0.00000  Uiso   1.00
H929   H     0.29935   0.55508   0.87161   0.00000  Uiso   1.00
H930   H     0.44492   0.70064   0.12839   0.00000  Uiso   1.00
H931   H     0.44491   0.79935   0.87161   0.00000  Uiso   1.00
H932   H     0.29935   0.94492   0.12839   0.00000  Uiso   1.00
H933   H     0.20065   0.94492   0.87161   0.00000  Uiso   1.00
H934   H     0.05508   0.79936   0.12839   0.00000  Uiso   1.00
H935   H     0.05509   0.70065   0.87161   0.00000  Uiso   1.00
H936   H     0.45065   0.80508   0.62839   0.00000  Uiso   1.00
H937   H     0.11981   0.57298   0.79547   0.00000  Uiso   1.00
H938   H     0.04935   0.80508   0.37161   0.00000  Uiso   1.00
H939   H     0.19492   0.95065   0.62839   0.00000  Uiso   1.00
H940   H     0.19492   0.54935   0.37161   0.00000  Uiso   1.00
H941   H     0.04935   0.69492   0.62839   0.00000  Uiso   1.00
H942   H     0.45065   0.69492   0.37161   0.00000  Uiso   1.00
H943   H     0.30508   0.54935   0.62839   0.00000  Uiso   1.00
H944   H     0.30508   0.95065   0.37161   0.00000  Uiso   1.00
O945   O     0.25000   0.50000   0.25000   0.00000  Uiso   1.00
O946   O     0.25000   0.96964   0.66317   0.00000  Uiso   1.00
O947   O     0.46964   0.75000   0.33683   0.00000  Uiso   1.00
O948   O     0.03036   0.75000   0.66317   0.00000  Uiso   1.00
O949   O     0.00000   0.71964   0.83683   0.00000  Uiso   1.00
O950   O     0.00000   0.78036   0.16317   0.00000  Uiso   1.00
O951   O     0.28036   0.50000   0.83683   0.00000  Uiso   1.00
O952   O     0.21964   0.50000   0.16317   0.00000  Uiso   1.00
O953   O     0.00000   0.78036   0.83683   0.00000  Uiso   1.00
O954   O     0.00000   0.71964   0.16317   0.00000  Uiso   1.00
O955   O     0.21964   0.50000   0.83683   0.00000  Uiso   1.00
O956   O     0.25000   0.50000   0.75000   0.00000  Uiso   1.00
O957   O     0.28036   0.50000   0.16317   0.00000  Uiso   1.00
O958   O     0.20725   0.57307   0.27282   0.00000  Uiso   1.00
O959   O     0.29274   0.92693   0.72718   0.00000  Uiso   1.00
O960   O     0.42693   0.70726   0.27282   0.00000  Uiso   1.00
O961   O     0.07307   0.79274   0.72718   0.00000  Uiso   1.00
O962   O     0.29274   0.92693   0.27282   0.00000  Uiso   1.00
O963   O     0.20725   0.57307   0.72718   0.00000  Uiso   1.00
O964   O     0.07307   0.79274   0.27282   0.00000  Uiso   1.00
O965   O     0.42693   0.70726   0.72718   0.00000  Uiso   1.00
O966   O     0.20725   0.92693   0.72718   0.00000  Uiso   1.00
O967   O    -0.00000   0.75000   0.25000   0.00000  Uiso   1.00
O968   O     0.29274   0.57307   0.27282   0.00000  Uiso   1.00
O969   O     0.42693   0.79275   0.72718   0.00000  Uiso   1.00
O970   O     0.07307   0.70725   0.27282   0.00000  Uiso   1.00
O971   O     0.29274   0.57307   0.72718   0.00000  Uiso   1.00
O972   O     0.20725   0.92693   0.27282   0.00000  Uiso   1.00
O973   O     0.07307   0.70725   0.72718   0.00000  Uiso   1.00
O974   O     0.42693   0.79275   0.27282   0.00000  Uiso   1.00
O975   O     0.45725   0.82307   0.77282   0.00000  Uiso   1.00
O976   O     0.04274   0.67693   0.22718   0.00000  Uiso   1.00
O977   O     0.17693   0.95725   0.77282   0.00000  Uiso   1.00
O978   O    -0.00000   0.75000   0.75000   0.00000  Uiso   1.00
O979   O     0.32307   0.54275   0.22718   0.00000  Uiso   1.00
O980   O     0.04274   0.67693   0.77282   0.00000  Uiso   1.00
O981   O     0.45725   0.82307   0.22718   0.00000  Uiso   1.00
O982   O     0.32307   0.54275   0.77282   0.00000  Uiso   1.00
O983   O     0.17693   0.95725   0.22718   0.00000  Uiso   1.00
O984   O     0.45725   0.67693   0.22718   0.00000  Uiso   1.00
O985   O     0.04274   0.82307   0.77282   0.00000  Uiso   1.00
O986   O     0.17693   0.54275   0.22718   0.00000  Uiso   1.00
O987   O     0.32307   0.95726   0.77282   0.00000  Uiso   1.00
O988   O     0.04274   0.82307   0.22718   0.00000  Uiso   1.00
O989   O     0.25000   0.96964   0.33683   0.00000  Uiso   1.00
O990   O     0.45725   0.67693   0.77282   0.00000  Uiso   1.00
O991   O     0.32307   0.95726   0.22718   0.00000  Uiso   1.00
O992   O     0.17693   0.54275   0.77282   0.00000  Uiso   1.00
O993   O     0.19309   0.53349   0.02100   0.00000  Uiso   1.00
O994   O     0.30691   0.53349   0.97900   0.00000  Uiso   1.00
O995   O     0.46652   0.69309   0.02100   0.00000  Uiso   1.00
O996   O     0.46651   0.80691   0.97900   0.00000  Uiso   1.00
O997   O     0.30691   0.96651   0.02100   0.00000  Uiso   1.00
O998   O     0.19309   0.96651   0.97900   0.00000  Uiso   1.00
O999   O     0.03348   0.80691   0.02100   0.00000  Uiso   1.00
O1000  O     0.25000   0.53036   0.66317   0.00000  Uiso   1.00
O1001  O     0.03349   0.69309   0.97900   0.00000  Uiso   1.00
O1002  O     0.44309   0.78349   0.52100   0.00000  Uiso   1.00
O1003  O     0.05691   0.78349   0.47900   0.00000  Uiso   1.00
O1004  O     0.21651   0.94309   0.52100   0.00000  Uiso   1.00
O1005  O     0.21651   0.55691   0.47900   0.00000  Uiso   1.00
O1006  O     0.05691   0.71651   0.52100   0.00000  Uiso   1.00
O1007  O     0.44309   0.71651   0.47900   0.00000  Uiso   1.00
O1008  O     0.28349   0.55691   0.52100   0.00000  Uiso   1.00
O1009  O     0.28349   0.94309   0.47900   0.00000  Uiso   1.00
O1010  O     0.16258   0.54266   0.08995   0.00000  Uiso   1.00
O1011  O     0.03036   0.75000   0.33683   0.00000  Uiso   1.00
O1012  O     0.33742   0.54266   0.91005   0.00000  Uiso   1.00
O1013  O     0.45735   0.66258   0.08995   0.00000  Uiso   1.00
O1014  O     0.45734   0.83742   0.91005   0.00000  Uiso   1.00
O1015  O     0.33742   0.95734   0.08995   0.00000  Uiso   1.00
O1016  O     0.16258   0.95734   0.91005   0.00000  Uiso   1.00
O1017  O     0.04265   0.83742   0.08995   0.00000  Uiso   1.00
O1018  O     0.04266   0.66258   0.91005   0.00000  Uiso   1.00
O1019  O     0.41258   0.79266   0.58995   0.00000  Uiso   1.00
O1020  O     0.08742   0.79266   0.41005   0.00000  Uiso   1.00
O1021  O     0.20734   0.91258   0.58995   0.00000  Uiso   1.00
O1022  O     0.46964   0.75000   0.66317   0.00000  Uiso   1.00
O1023  O     0.20734   0.58742   0.41005   0.00000  Uiso   1.00
O1024  O     0.08742   0.70734   0.58995   0.00000  Uiso   1.00
O1025  O     0.41258   0.70734   0.41005   0.00000  Uiso   1.00
O1026  O     0.29266   0.58742   0.58995   0.00000  Uiso   1.00
O1027  O     0.29266   0.91258   0.41005   0.00000  Uiso   1.00
O1028  O     0.25000   0.53036   0.33683   0.00000  Uiso   1.00
Zn1029 Zn    0.20660   0.50000   0.21760   0.00000  Uiso   1.00
Zn1030 Zn    0.04340   0.75000   0.28240   0.00000  Uiso   1.00
Zn1031 Zn    0.25000   0.95660   0.71760   0.00000  Uiso   1.00
Zn1032 Zn    0.25000   0.54340   0.28240   0.00000  Uiso   1.00
Zn1033 Zn    0.04340   0.75000   0.71760   0.00000  Uiso   1.00
Zn1034 Zn    0.45660   0.75000   0.28240   0.00000  Uiso   1.00
Zn1035 Zn    0.25000   0.54340   0.71760   0.00000  Uiso   1.00
Zn1036 Zn    0.25000   0.95660   0.28240   0.00000  Uiso   1.00
Zn1037 Zn    0.29340   0.50000   0.78240   0.00000  Uiso   1.00
Zn1038 Zn   -0.00000   0.70660   0.21760   0.00000  Uiso   1.00
Zn1039 Zn   -0.00000   0.79340   0.78240   0.00000  Uiso   1.00
Zn1040 Zn    0.29340   0.50000   0.21760   0.00000  Uiso   1.00
Zn1041 Zn    0.20660   0.50000   0.78240   0.00000  Uiso   1.00
Zn1042 Zn   -0.00000   0.79340   0.21760   0.00000  Uiso   1.00
Zn1043 Zn    0.00000   0.70660   0.78240   0.00000  Uiso   1.00
Zn1044 Zn    0.45660   0.75000   0.71760   0.00000  Uiso   1.00
C1045  C     0.72188   0.51797   0.04114   0.00000  Uiso   1.00
C1046  C     0.52812   0.76797   0.45886   0.00000  Uiso   1.00
C1047  C     0.84813   0.90187   0.75000   0.00000  Uiso   1.00
C1048  C     0.90187   0.65187   0.25000   0.00000  Uiso   1.00
C1049  C     0.59813   0.84813   0.75000   0.00000  Uiso   1.00
C1050  C     0.84813   0.90187   0.25000   0.00000  Uiso   1.00
C1051  C     0.65187   0.59813   0.75000   0.00000  Uiso   1.00
C1052  C     0.59813   0.65187   0.75000   0.00000  Uiso   1.00
C1053  C     0.90187   0.84813   0.25000   0.00000  Uiso   1.00
C1054  C     0.65187   0.90187   0.75000   0.00000  Uiso   1.00
C1055  C     0.84813   0.59813   0.25000   0.00000  Uiso   1.00
C1056  C     0.90187   0.84813   0.75000   0.00000  Uiso   1.00
C1057  C     0.73203   0.97188   0.54114   0.00000  Uiso   1.00
C1058  C     0.59813   0.65187   0.25000   0.00000  Uiso   1.00
C1059  C     0.84813   0.59813   0.75000   0.00000  Uiso   1.00
C1060  C     0.65187   0.90187   0.25000   0.00000  Uiso   1.00
C1061  C     0.75000   0.50000   0.10214   0.00000  Uiso   1.00
C1062  C     0.75000   0.50000   0.89786   0.00000  Uiso   1.00
C1063  C     0.50000   0.75000   0.10214   0.00000  Uiso   1.00
C1064  C     0.50000   0.75000   0.89786   0.00000  Uiso   1.00
C1065  C     0.50000   0.75000   0.60214   0.00000  Uiso   1.00
C1066  C     0.50000   0.75000   0.39786   0.00000  Uiso   1.00
C1067  C     0.75000   0.50000   0.60214   0.00000  Uiso   1.00
C1068  C     0.73203   0.52812   0.45886   0.00000  Uiso   1.00
C1069  C     0.75000   0.50000   0.39786   0.00000  Uiso   1.00
C1070  C     0.70184   0.56978   0.01114   0.00000  Uiso   1.00
C1071  C     0.79816   0.56978   0.98886   0.00000  Uiso   1.00
C1072  C     0.93022   0.70184   0.01114   0.00000  Uiso   1.00
C1073  C     0.93022   0.79815   0.98886   0.00000  Uiso   1.00
C1074  C     0.79816   0.93022   0.01114   0.00000  Uiso   1.00
C1075  C     0.70184   0.93022   0.98886   0.00000  Uiso   1.00
C1076  C     0.56978   0.79816   0.01114   0.00000  Uiso   1.00
C1077  C     0.56978   0.70185   0.98886   0.00000  Uiso   1.00
C1078  C     0.95184   0.81978   0.51114   0.00000  Uiso   1.00
C1079  C     0.52812   0.73203   0.54114   0.00000  Uiso   1.00
C1080  C     0.54816   0.81978   0.48886   0.00000  Uiso   1.00
C1081  C     0.68022   0.95184   0.51114   0.00000  Uiso   1.00
C1082  C     0.68022   0.54816   0.48886   0.00000  Uiso   1.00
C1083  C     0.54816   0.68022   0.51114   0.00000  Uiso   1.00
C1084  C     0.95184   0.68022   0.48886   0.00000  Uiso   1.00
C1085  C     0.81978   0.54816   0.51114   0.00000  Uiso   1.00
C1086  C     0.81978   0.95184   0.48886   0.00000  Uiso   1.00
C1087  C     0.69377   0.54055   0.10213   0.00000  Uiso   1.00
C1088  C     0.80623   0.54055   0.89787   0.00000  Uiso   1.00
C1089  C     0.95946   0.69377   0.10213   0.00000  Uiso   1.00
C1090  C     0.97188   0.73203   0.45886   0.00000  Uiso   1.00
C1091  C     0.95945   0.80623   0.89787   0.00000  Uiso   1.00
C1092  C     0.80623   0.95946   0.10213   0.00000  Uiso   1.00
C1093  C     0.69377   0.95945   0.89787   0.00000  Uiso   1.00
C1094  C     0.54054   0.80623   0.10213   0.00000  Uiso   1.00
C1095  C     0.54055   0.69377   0.89787   0.00000  Uiso   1.00
C1096  C     0.94377   0.79055   0.60213   0.00000  Uiso   1.00
C1097  C     0.55623   0.79055   0.39787   0.00000  Uiso   1.00
C1098  C     0.70945   0.94377   0.60213   0.00000  Uiso   1.00
C1099  C     0.70945   0.55623   0.39787   0.00000  Uiso   1.00
C1100  C     0.55623   0.70945   0.60213   0.00000  Uiso   1.00
C1101  C     0.76797   0.52812   0.54114   0.00000  Uiso   1.00
C1102  C     0.94377   0.70945   0.39787   0.00000  Uiso   1.00
C1103  C     0.79055   0.55623   0.60213   0.00000  Uiso   1.00
C1104  C     0.79054   0.94377   0.39787   0.00000  Uiso   1.00
C1105  C     0.76797   0.97188   0.45886   0.00000  Uiso   1.00
C1106  C     0.72196   0.51855   0.08166   0.00000  Uiso   1.00
C1107  C     0.77804   0.51855   0.91834   0.00000  Uiso   1.00
C1108  C     0.98145   0.72196   0.08166   0.00000  Uiso   1.00
C1109  C     0.77812   0.51797   0.95886   0.00000  Uiso   1.00
C1110  C     0.98145   0.77804   0.91834   0.00000  Uiso   1.00
C1111  C     0.77804   0.98145   0.08166   0.00000  Uiso   1.00
C1112  C     0.72196   0.98145   0.91834   0.00000  Uiso   1.00
C1113  C     0.51855   0.77804   0.08166   0.00000  Uiso   1.00
C1114  C     0.51855   0.72196   0.91834   0.00000  Uiso   1.00
C1115  C     0.97196   0.76855   0.58166   0.00000  Uiso   1.00
C1116  C     0.52804   0.76855   0.41834   0.00000  Uiso   1.00
C1117  C     0.73145   0.97196   0.58166   0.00000  Uiso   1.00
C1118  C     0.73145   0.52804   0.41834   0.00000  Uiso   1.00
C1119  C     0.52804   0.73145   0.58166   0.00000  Uiso   1.00
C1120  C     0.98203   0.72188   0.04114   0.00000  Uiso   1.00
C1121  C     0.97196   0.73145   0.41834   0.00000  Uiso   1.00
C1122  C     0.76855   0.52804   0.58166   0.00000  Uiso   1.00
C1123  C     0.76855   0.97196   0.41834   0.00000  Uiso   1.00
C1124  C     0.75000   0.50000   0.02116   0.00000  Uiso   1.00
C1125  C     0.75000   0.50000   0.97884   0.00000  Uiso   1.00
C1126  C     0.50000   0.75000   0.02116   0.00000  Uiso   1.00
C1127  C     0.50000   0.75000   0.97884   0.00000  Uiso   1.00
C1128  C     0.50000   0.75000   0.52116   0.00000  Uiso   1.00
C1129  C     0.50000   0.75000   0.47884   0.00000  Uiso   1.00
C1130  C     0.75000   0.50000   0.52116   0.00000  Uiso   1.00
C1131  C     0.98202   0.77812   0.95886   0.00000  Uiso   1.00
C1132  C     0.75000   0.50000   0.47884   0.00000  Uiso   1.00
C1133  C     0.75000   0.50000   0.35525   0.00000  Uiso   1.00
C1134  C     0.75000   0.50000   0.64475   0.00000  Uiso   1.00
C1135  C     0.50000   0.75000   0.35525   0.00000  Uiso   1.00
C1136  C     0.50000   0.75000   0.64475   0.00000  Uiso   1.00
C1137  C     0.50000   0.75000   0.85525   0.00000  Uiso   1.00
C1138  C     0.50000   0.75000   0.14475   0.00000  Uiso   1.00
C1139  C     0.75000   0.50000   0.85525   0.00000  Uiso   1.00
C1140  C     0.75000   0.50000   0.14475   0.00000  Uiso   1.00
C1141  C     0.67994   0.57006   0.25000   0.00000  Uiso   1.00
C1142  C     0.77812   0.98203   0.04114   0.00000  Uiso   1.00
C1143  C     0.82006   0.92994   0.75000   0.00000  Uiso   1.00
C1144  C     0.92994   0.67994   0.25000   0.00000  Uiso   1.00
C1145  C     0.57006   0.82006   0.75000   0.00000  Uiso   1.00
C1146  C     0.82006   0.92994   0.25000   0.00000  Uiso   1.00
C1147  C     0.67994   0.57006   0.75000   0.00000  Uiso   1.00
C1148  C     0.57006   0.82006   0.25000   0.00000  Uiso   1.00
C1149  C     0.92994   0.67994   0.75000   0.00000  Uiso   1.00
C1150  C     0.67994   0.92994   0.75000   0.00000  Uiso   1.00
C1151  C     0.82006   0.57006   0.25000   0.00000  Uiso   1.00
C1152  C     0.92994   0.82006   0.75000   0.00000  Uiso   1.00
C1153  C     0.72188   0.98203   0.95886   0.00000  Uiso   1.00
C1154  C     0.57006   0.67994   0.25000   0.00000  Uiso   1.00
C1155  C     0.82006   0.57006   0.75000   0.00000  Uiso   1.00
C1156  C     0.67994   0.92994   0.25000   0.00000  Uiso   1.00
C1157  C     0.57006   0.67994   0.75000   0.00000  Uiso   1.00
C1158  C     0.92994   0.82006   0.25000   0.00000  Uiso   1.00
C1159  C     0.62231   0.90442   0.22450   0.00000  Uiso   1.00
C1160  C     0.87768   0.59557   0.77551   0.00000  Uiso   1.00
C1161  C     0.59558   0.62231   0.22450   0.00000  Uiso   1.00
C1162  C     0.90443   0.87768   0.77551   0.00000  Uiso   1.00
C1163  C     0.87769   0.59558   0.22450   0.00000  Uiso   1.00
C1164  C     0.51797   0.77812   0.04114   0.00000  Uiso   1.00
C1165  C     0.62232   0.90443   0.77551   0.00000  Uiso   1.00
C1166  C     0.90442   0.87769   0.22450   0.00000  Uiso   1.00
C1167  C     0.59557   0.62232   0.77551   0.00000  Uiso   1.00
C1168  C     0.62231   0.59558   0.77551   0.00000  Uiso   1.00
C1169  C     0.87768   0.90443   0.22449   0.00000  Uiso   1.00
C1170  C     0.59558   0.87769   0.77551   0.00000  Uiso   1.00
C1171  C     0.90443   0.62232   0.22449   0.00000  Uiso   1.00
C1172  C     0.87769   0.90442   0.77551   0.00000  Uiso   1.00
C1173  C     0.62232   0.59557   0.22449   0.00000  Uiso   1.00
C1174  C     0.90442   0.62231   0.77551   0.00000  Uiso   1.00
C1175  C     0.51797   0.72188   0.95886   0.00000  Uiso   1.00
C1176  C     0.59557   0.87768   0.22449   0.00000  Uiso   1.00
C1177  C     0.87231   0.65442   0.72450   0.00000  Uiso   1.00
C1178  C     0.62768   0.84557   0.27551   0.00000  Uiso   1.00
C1179  C     0.84558   0.87231   0.72450   0.00000  Uiso   1.00
C1180  C     0.65443   0.62768   0.27551   0.00000  Uiso   1.00
C1181  C     0.62769   0.84558   0.72450   0.00000  Uiso   1.00
C1182  C     0.87232   0.65443   0.27551   0.00000  Uiso   1.00
C1183  C     0.65442   0.62769   0.72450   0.00000  Uiso   1.00
C1184  C     0.84557   0.87232   0.27551   0.00000  Uiso   1.00
C1185  C     0.87231   0.84558   0.27551   0.00000  Uiso   1.00
C1186  C     0.97188   0.76797   0.54114   0.00000  Uiso   1.00
C1187  C     0.62768   0.65443   0.72449   0.00000  Uiso   1.00
C1188  C     0.84558   0.62769   0.27551   0.00000  Uiso   1.00
C1189  C     0.65443   0.87232   0.72449   0.00000  Uiso   1.00
C1190  C     0.62769   0.65442   0.27551   0.00000  Uiso   1.00
C1191  C     0.87232   0.84557   0.72449   0.00000  Uiso   1.00
C1192  C     0.65442   0.87231   0.27551   0.00000  Uiso   1.00
C1193  C     0.84557   0.62768   0.72449   0.00000  Uiso   1.00
C1194  C     0.59813   0.84813   0.25000   0.00000  Uiso   1.00
C1195  C     0.90187   0.65187   0.75000   0.00000  Uiso   1.00
C1196  C     0.65187   0.59813   0.25000   0.00000  Uiso   1.00
H1197  H     0.61981   0.92702   0.20453   0.00000  Uiso   1.00
H1198  H     0.88016   0.92701   0.20451   0.00000  Uiso   1.00
H1199  H     0.57298   0.88019   0.79547   0.00000  Uiso   1.00
H1200  H     0.92701   0.61984   0.20451   0.00000  Uiso   1.00
H1201  H     0.88019   0.92702   0.79547   0.00000  Uiso   1.00
H1202  H     0.61984   0.57299   0.20451   0.00000  Uiso   1.00
H1203  H     0.92702   0.61981   0.79547   0.00000  Uiso   1.00
H1204  H     0.57299   0.88016   0.20451   0.00000  Uiso   1.00
H1205  H     0.86981   0.67702   0.70453   0.00000  Uiso   1.00
H1206  H     0.63016   0.82299   0.29549   0.00000  Uiso   1.00
H1207  H     0.82298   0.86981   0.70453   0.00000  Uiso   1.00
H1208  H     0.88016   0.57299   0.79549   0.00000  Uiso   1.00
H1209  H     0.67701   0.63016   0.29549   0.00000  Uiso   1.00
H1210  H     0.63019   0.82298   0.70453   0.00000  Uiso   1.00
H1211  H     0.86984   0.67701   0.29549   0.00000  Uiso   1.00
H1212  H     0.67702   0.63019   0.70453   0.00000  Uiso   1.00
H1213  H     0.82299   0.86984   0.29549   0.00000  Uiso   1.00
H1214  H     0.86981   0.82298   0.29547   0.00000  Uiso   1.00
H1215  H     0.63016   0.67701   0.70451   0.00000  Uiso   1.00
H1216  H     0.82298   0.63019   0.29547   0.00000  Uiso   1.00
H1217  H     0.67701   0.86984   0.70451   0.00000  Uiso   1.00
H1218  H     0.63019   0.67702   0.29547   0.00000  Uiso   1.00
H1219  H     0.57298   0.61981   0.20453   0.00000  Uiso   1.00
H1220  H     0.86984   0.82299   0.70451   0.00000  Uiso   1.00
H1221  H     0.67702   0.86981   0.29547   0.00000  Uiso   1.00
H1222  H     0.82299   0.63016   0.70451   0.00000  Uiso   1.00
H1223  H     0.71958   0.57037   0.98523   0.00000  Uiso   1.00
H1224  H     0.71470   0.58509   0.03536   0.00000  Uiso   1.00
H1225  H     0.67624   0.58423   0.00358   0.00000  Uiso   1.00
H1226  H     0.78042   0.57037   0.01477   0.00000  Uiso   1.00
H1227  H     0.78530   0.58509   0.96464   0.00000  Uiso   1.00
H1228  H     0.82376   0.58423   0.99642   0.00000  Uiso   1.00
H1229  H     0.92963   0.71958   0.98523   0.00000  Uiso   1.00
H1230  H     0.92701   0.88016   0.79549   0.00000  Uiso   1.00
H1231  H     0.91491   0.71470   0.03536   0.00000  Uiso   1.00
H1232  H     0.91577   0.67623   0.00358   0.00000  Uiso   1.00
H1233  H     0.92962   0.78042   0.01477   0.00000  Uiso   1.00
H1234  H     0.91490   0.78529   0.96464   0.00000  Uiso   1.00
H1235  H     0.91577   0.82376   0.99642   0.00000  Uiso   1.00
H1236  H     0.78042   0.92963   0.98523   0.00000  Uiso   1.00
H1237  H     0.78530   0.91491   0.03536   0.00000  Uiso   1.00
H1238  H     0.82376   0.91577   0.00358   0.00000  Uiso   1.00
H1239  H     0.71958   0.92963   0.01477   0.00000  Uiso   1.00
H1240  H     0.71470   0.91491   0.96464   0.00000  Uiso   1.00
H1241  H     0.88019   0.57298   0.20453   0.00000  Uiso   1.00
H1242  H     0.67624   0.91577   0.99642   0.00000  Uiso   1.00
H1243  H     0.57037   0.78042   0.98523   0.00000  Uiso   1.00
H1244  H     0.58509   0.78530   0.03536   0.00000  Uiso   1.00
H1245  H     0.58423   0.82377   0.00358   0.00000  Uiso   1.00
H1246  H     0.57038   0.71958   0.01477   0.00000  Uiso   1.00
H1247  H     0.58509   0.71471   0.96464   0.00000  Uiso   1.00
H1248  H     0.58423   0.67624   0.99642   0.00000  Uiso   1.00
H1249  H     0.96958   0.82037   0.48523   0.00000  Uiso   1.00
H1250  H     0.96470   0.83509   0.53536   0.00000  Uiso   1.00
H1251  H     0.92624   0.83423   0.50358   0.00000  Uiso   1.00
H1252  H     0.61984   0.92701   0.79549   0.00000  Uiso   1.00
H1253  H     0.53042   0.82037   0.51477   0.00000  Uiso   1.00
H1254  H     0.53530   0.83509   0.46464   0.00000  Uiso   1.00
H1255  H     0.57376   0.83423   0.49642   0.00000  Uiso   1.00
H1256  H     0.67963   0.96958   0.48524   0.00000  Uiso   1.00
H1257  H     0.66491   0.96470   0.53536   0.00000  Uiso   1.00
H1258  H     0.66577   0.92624   0.50358   0.00000  Uiso   1.00
H1259  H     0.67963   0.53042   0.51477   0.00000  Uiso   1.00
H1260  H     0.66491   0.53530   0.46464   0.00000  Uiso   1.00
H1261  H     0.66577   0.57376   0.49642   0.00000  Uiso   1.00
H1262  H     0.53042   0.67963   0.48524   0.00000  Uiso   1.00
H1263  H     0.92702   0.88019   0.20453   0.00000  Uiso   1.00
H1264  H     0.53530   0.66491   0.53536   0.00000  Uiso   1.00
H1265  H     0.57376   0.66577   0.50358   0.00000  Uiso   1.00
H1266  H     0.96958   0.67963   0.51477   0.00000  Uiso   1.00
H1267  H     0.96470   0.66491   0.46464   0.00000  Uiso   1.00
H1268  H     0.92624   0.66577   0.49642   0.00000  Uiso   1.00
H1269  H     0.82037   0.53042   0.48523   0.00000  Uiso   1.00
H1270  H     0.83509   0.53530   0.53536   0.00000  Uiso   1.00
H1271  H     0.83423   0.57376   0.50358   0.00000  Uiso   1.00
H1272  H     0.82037   0.96958   0.51477   0.00000  Uiso   1.00
H1273  H     0.83509   0.96470   0.46464   0.00000  Uiso   1.00
H1274  H     0.57299   0.61984   0.79549   0.00000  Uiso   1.00
H1275  H     0.83423   0.92624   0.49642   0.00000  Uiso   1.00
H1276  H     0.70065   0.55508   0.12839   0.00000  Uiso   1.00
H1277  H     0.79935   0.55508   0.87161   0.00000  Uiso   1.00
H1278  H     0.94492   0.70064   0.12839   0.00000  Uiso   1.00
H1279  H     0.94491   0.79935   0.87161   0.00000  Uiso   1.00
H1280  H     0.79935   0.94492   0.12839   0.00000  Uiso   1.00
H1281  H     0.70065   0.94492   0.87161   0.00000  Uiso   1.00
H1282  H     0.55508   0.79936   0.12839   0.00000  Uiso   1.00
H1283  H     0.55509   0.70065   0.87161   0.00000  Uiso   1.00
H1284  H     0.95065   0.80508   0.62839   0.00000  Uiso   1.00
H1285  H     0.61981   0.57298   0.79547   0.00000  Uiso   1.00
H1286  H     0.54935   0.80508   0.37161   0.00000  Uiso   1.00
H1287  H     0.69492   0.95065   0.62839   0.00000  Uiso   1.00
H1288  H     0.69492   0.54935   0.37161   0.00000  Uiso   1.00
H1289  H     0.54935   0.69492   0.62839   0.00000  Uiso   1.00
H1290  H     0.95065   0.69492   0.37161   0.00000  Uiso   1.00
H1291  H     0.80508   0.54935   0.62839   0.00000  Uiso   1.00
H1292  H     0.80508   0.95065   0.37161   0.00000  Uiso   1.00
O1293  O     0.75000   0.50000   0.25000   0.00000  Uiso   1.00
O1294  O     0.75000   0.96964   0.66317   0.00000  Uiso   1.00
O1295  O     0.96964   0.75000   0.33683   0.00000  Uiso   1.00
O1296  O     0.53036   0.75000   0.66317   0.00000  Uiso   1.00
O1297  O     0.50000   0.71964   0.83683   0.00000  Uiso   1.00
O1298  O     0.50000   0.78036   0.16317   0.00000  Uiso   1.00
O1299  O     0.78036   0.50000   0.83683   0.00000  Uiso   1.00
O1300  O     0.71964   0.50000   0.16317   0.00000  Uiso   1.00
O1301  O     0.50000   0.78036   0.83683   0.00000  Uiso   1.00
O1302  O     0.50000   0.71964   0.16317   0.00000  Uiso   1.00
O1303  O     0.71964   0.50000   0.83683   0.00000  Uiso   1.00
O1304  O     0.75000   0.50000   0.75000   0.00000  Uiso   1.00
O1305  O     0.78036   0.50000   0.16317   0.00000  Uiso   1.00
O1306  O     0.70725   0.57307   0.27282   0.00000  Uiso   1.00
O1307  O     0.79274   0.92693   0.72718   0.00000  Uiso   1.00
O1308  O     0.92693   0.70726   0.27282   0.00000  Uiso   1.00
O1309  O     0.57307   0.79274   0.72718   0.00000  Uiso   1.00
O1310  O     0.79274   0.92693   0.27282   0.00000  Uiso   1.00
O1311  O     0.70725   0.57307   0.72718   0.00000  Uiso   1.00
O1312  O     0.57307   0.79274   0.27282   0.00000  Uiso   1.00
O1313  O     0.92693   0.70726   0.72718   0.00000  Uiso   1.00
O1314  O     0.70725   0.92693   0.72718   0.00000  Uiso   1.00
O1315  O     0.50000   0.75000   0.25000   0.00000  Uiso   1.00
O1316  O     0.79274   0.57307   0.27282   0.00000  Uiso   1.00
O1317  O     0.92693   0.79275   0.72718   0.00000  Uiso   1.00
O1318  O     0.57307   0.70725   0.27282   0.00000  Uiso   1.00
O1319  O     0.79274   0.57307   0.72718   0.00000  Uiso   1.00
O1320  O     0.70725   0.92693   0.27282   0.00000  Uiso   1.00
O1321  O     0.57307   0.70725   0.72718   0.00000  Uiso   1.00
O1322  O     0.92693   0.79275   0.27282   0.00000  Uiso   1.00
O1323  O     0.95725   0.82307   0.77282   0.00000  Uiso   1.00
O1324  O     0.54274   0.67693   0.22718   0.00000  Uiso   1.00
O1325  O     0.67693   0.95725   0.77282   0.00000  Uiso   1.00
O1326  O     0.50000   0.75000   0.75000   0.00000  Uiso   1.00
O1327  O     0.82307   0.54275   0.22718   0.00000  Uiso   1.00
O1328  O     0.54274   0.67693   0.77282   0.00000  Uiso   1.00
O1329  O     0.95725   0.82307   0.22718   0.00000  Uiso   1.00
O1330  O     0.82307   0.54275   0.77282   0.00000  Uiso   1.00
O1331  O     0.67693   0.95725   0.22718   0.00000  Uiso   1.00
O1332  O     0.95725   0.67693   0.22718   0.00000  Uiso   1.00
O1333  O     0.54274   0.82307   0.77282   0.00000  Uiso   1.00
O1334  O     0.67693   0.54275   0.22718   0.00000  Uiso   1.00
O1335  O     0.82307   0.95726   0.77282   0.00000  Uiso   1.00
O1336  O     0.54274   0.82307   0.22718   0.00000  Uiso   1.00
O1337  O     0.75000   0.96964   0.33683   0.00000  Uiso   1.00
O1338  O     0.95725   0.67693   0.77282   0.00000  Uiso   1.00
O1339  O     0.82307   0.95726   0.22718   0.00000  Uiso   1.00
O1340  O     0.67693   0.54275   0.77282   0.00000  Uiso   1.00
O1341  O     0.69309   0.53349   0.02100   0.00000  Uiso   1.00
O1342  O     0.80691   0.53349   0.97900   0.00000  Uiso   1.00
O1343  O     0.96652   0.69309   0.02100   0.00000  Uiso   1.00
O1344  O     0.96651   0.80691   0.97900   0.00000  Uiso   1.00
O1345  O     0.80691   0.96651   0.02100   0.00000  Uiso   1.00
O1346  O     0.69309   0.96651   0.97900   0.00000  Uiso   1.00
O1347  O     0.53348   0.80691   0.02100   0.00000  Uiso   1.00
O1348  O     0.75000   0.53036   0.66317   0.00000  Uiso   1.00
O1349  O     0.53349   0.69309   0.97900   0.00000  Uiso   1.00
O1350  O     0.94309   0.78349   0.52100   0.00000  Uiso   1.00
O1351  O     0.55691   0.78349   0.47900   0.00000  Uiso   1.00
O1352  O     0.71651   0.94309   0.52100   0.00000  Uiso   1.00
O1353  O     0.71651   0.55691   0.47900   0.00000  Uiso   1.00
O1354  O     0.55691   0.71651   0.52100   0.00000  Uiso   1.00
O1355  O     0.94309   0.71651   0.47900   0.00000  Uiso   1.00
O1356  O     0.78349   0.55691   0.52100   0.00000  Uiso   1.00
O1357  O     0.78349   0.94309   0.47900   0.00000  Uiso   1.00
O1358  O     0.66258   0.54266   0.08995   0.00000  Uiso   1.00
O1359  O     0.53036   0.75000   0.33683   0.00000  Uiso   1.00
O1360  O     0.83742   0.54266   0.91005   0.00000  Uiso   1.00
O1361  O     0.95735   0.66258   0.08995   0.00000  Uiso   1.00
O1362  O     0.95734   0.83742   0.91005   0.00000  Uiso   1.00
O1363  O     0.83742   0.95734   0.08995   0.00000  Uiso   1.00
O1364  O     0.66258   0.95734   0.91005   0.00000  Uiso   1.00
O1365  O     0.54265   0.83742   0.08995   0.00000  Uiso   1.00
O1366  O     0.54266   0.66258   0.91005   0.00000  Uiso   1.00
O1367  O     0.91258   0.79266   0.58995   0.00000  Uiso   1.00
O1368  O     0.58742   0.79266   0.41005   0.00000  Uiso   1.00
O1369  O     0.70734   0.91258   0.58995   0.00000  Uiso   1.00
O1370  O     0.96964   0.75000   0.66317   0.00000  Uiso   1.00
O1371  O     0.70734   0.58742   0.41005   0.00000  Uiso   1.00
O1372  O     0.58742   0.70734   0.58995   0.00000  Uiso   1.00
O1373  O     0.91258   0.70734   0.41005   0.00000  Uiso   1.00
O1374  O     0.79266   0.58742   0.58995   0.00000  Uiso   1.00
O1375  O     0.79266   0.91258   0.41005   0.00000  Uiso   1.00
O1376  O     0.75000   0.53036   0.33683   0.00000  Uiso   1.00
Zn1377 Zn    0.70660   0.50000   0.21760   0.00000  Uiso   1.00
Zn1378 Zn    0.54340   0.75000   0.28240   0.00000  Uiso   1.00
Zn1379 Zn    0.75000   0.95660   0.71760   0.00000  Uiso   1.00
Zn1380 Zn    0.75000   0.54340   0.28240   0.00000  Uiso   1.00
Zn1381 Zn    0.54340   0.75000   0.71760   0.00000  Uiso   1.00
Zn1382 Zn    0.95660   0.75000   0.28240   0.00000  Uiso   1.00
Zn1383 Zn    0.75000   0.54340   0.71760   0.00000  Uiso   1.00
Zn1384 Zn    0.75000   0.95660   0.28240   0.00000  Uiso   1.00
Zn1385 Zn    0.79340   0.50000   0.78240   0.00000  Uiso   1.00
Zn1386 Zn    0.50000   0.70660   0.21760   0.00000  Uiso   1.00
Zn1387 Zn    0.50000   0.79340   0.78240   0.00000  Uiso   1.00
Zn1388 Zn    0.79340   0.50000   0.21760   0.00000  Uiso   1.00
Zn1389 Zn    0.70660   0.50000   0.78240   0.00000  Uiso   1.00
Zn1390 Zn    0.50000   0.79340   0.21760   0.00000  Uiso   1.00
Zn1391 Zn    0.50000   0.70660   0.78240   0.00000  Uiso   1.00
Zn1392 Zn    0.95660   0.75000   0.71760   0.00000  Uiso   1.00
loop_
_geom_bond_atom_site_label_1
_geom_bond_atom_site_label_2
_geom_bond_distance
_geom_bond_site_symmetry_2
_ccdc_geom_bond_type
C1     O297    1.387   .     S
C1     C62     1.405   .     A
C1     C80     1.406   .     A
C2     O307    1.387   .     S
C2     C72     1.405   .     A
C2     C85     1.406   .     S
C3     C128    1.402   .     A
C3     C99     1.455   .     S
C3     C135    1.402   .     A
C4     C127    1.402   .     A
C4     C138    1.402   .     A
C4     C100    1.455   .     S
C5     C126    1.402   .     A
C5     C101    1.455   .     S
C5     C137    1.402   .     A
C6     C125    1.402   .     A
C6     C102    1.455   .     S
C6     C140    1.402   .     A
C7     C103    1.455   .     S
C7     C124    1.402   .     A
C7     C139    1.402   .     A
C8     C123    1.402   .     A
C8     C143    1.402   .     A
C8     C113    1.455   .     S
C9     C114    1.455   .     S
C9     C122    1.402   .     A
C9     C141    1.402   .     A
C10    C106    1.455   .     S
C10    C121    1.402   .     A
C10    C145    1.402   .     A
C11    C119    1.402   .     A
C11    C144    1.402   .     A
C11    C107    1.455   .     S
C12    C108    1.455   .     S
C12    C147    1.402   .     A
C12    C118    1.402   .     A
C13    C73     1.405   .     A
C13    O308    1.387   .     S
C13    C782    1.406   .     A
C14    C117    1.402   .     A
C14    C110    1.455   .     S
C14    C146    1.402   .     A
C15    C149    1.402   .     A
C15    C116    1.402   .     A
C15    C111    1.455   .     S
C16    C115    1.402   .     A
C16    C112    1.455   .     S
C16    C148    1.402   .     A
C17    C62     1.422   .     A
C17    C763    1.422   1_545 S
C17    C96     1.478   .     S
C18    C95     1.478   .     S
C18    C63     1.422   .     A
C18    C764    1.422   1_545 S
C19    C412    1.422   1_455 A
C19    C69     1.422   .     S
C19    C94     1.478   .     S
C20    C414    1.422   1_455 A
C20    C70     1.422   .     S
C20    C93     1.478   .     S
C21    C92     1.478   .     S
C21    C419    1.422   1_455 A
C21    C75     1.422   .     S
C22    C91     1.478   .     S
C22    C72     1.422   .     A
C22    C425    1.422   1_455 S
C23    C78     1.422   .     A
C23    C769    1.422   1_545 S
C23    C90     1.478   .     S
C24    C88     1.406   .     A
C24    C74     1.405   .     A
C24    O309    1.387   .     S
C25    C74     1.422   .     A
C25    C89     1.478   .     S
C25    C775    1.422   1_545 S
C26    O297    1.410   .     S
C26    H180    1.115   .     S
C26    H181    1.109   .     S
C26    H179    1.109   1_554 S
C27    H183    1.115   .     S
C27    H184    1.109   .     S
C27    O298    1.410   .     S
C27    H182    1.109   1_556 S
C28    O299    1.410   .     S
C28    H187    1.115   .     S
C28    H188    1.109   .     S
C28    H185    1.109   1_554 S
C29    H191    1.109   .     S
C29    H190    1.115   .     S
C29    O300    1.410   .     S
C29    H189    1.109   1_556 S
C30    H193    1.115   .     S
C30    O301    1.410   .     S
C30    H194    1.109   .     S
C30    H192    1.109   1_554 S
C31    H198    1.109   .     S
C31    H196    1.115   .     S
C31    O302    1.410   .     S
C31    H195    1.109   1_556 S
C32    H201    1.109   .     S
C32    H200    1.115   .     S
C32    O303    1.410   .     S
C32    H199    1.109   1_554 S
C33    H203    1.115   .     S
C33    H204    1.109   .     S
C33    O305    1.410   .     S
C33    H202    1.109   1_556 S
C34    H207    1.109   .     S
C34    O306    1.410   .     S
C34    H205    1.109   .     S
C34    H206    1.115   .     S
C35    C84     1.406   .     A
C35    C75     1.405   .     A
C35    O310    1.387   .     S
C36    O307    1.410   .     S
C36    H209    1.109   .     S
C36    H211    1.109   .     S
C36    H210    1.115   .     S
C37    H214    1.109   .     S
C37    H213    1.115   .     S
C37    H212    1.109   .     S
C37    O308    1.410   .     S
C38    H215    1.109   .     S
C38    H217    1.109   .     S
C38    O309    1.410   .     S
C38    H216    1.115   .     S
C39    H218    1.109   .     S
C39    H221    1.109   .     S
C39    H220    1.115   .     S
C39    O310    1.410   .     S
C40    H223    1.115   .     S
C40    H222    1.109   .     S
C40    O311    1.410   .     S
C40    H224    1.109   .     S
C41    H225    1.109   .     S
C41    H226    1.115   .     S
C41    H227    1.109   .     S
C41    O312    1.410   .     S
C42    H231    1.109   .     S
C42    H228    1.109   .     S
C42    H229    1.115   .     S
C42    O313    1.410   .     S
C43    H232    1.085   .     S
C43    O314    1.221   .     D
C43    C62     1.490   .     S
C44    O316    1.221   .     D
C44    H233    1.085   .     S
C44    C63     1.490   .     S
C45    O317    1.221   .     D
C45    H234    1.085   .     S
C45    C64     1.490   .     S
C46    C77     1.405   .     A
C46    C433    1.406   .     A
C46    O311    1.387   .     S
C47    H235    1.085   .     S
C47    C66     1.490   .     S
C47    O318    1.221   .     D
C48    C67     1.490   .     S
C48    O319    1.221   .     D
C48    H236    1.085   .     S
C49    H237    1.085   .     S
C49    C68     1.490   .     S
C49    O320    1.221   .     D
C50    C69     1.490   .     S
C50    O321    1.221   .     D
C50    H238    1.085   .     S
C51    O322    1.221   .     D
C51    H239    1.085   .     S
C51    C70     1.490   .     S
C52    H240    1.085   .     S
C52    C71     1.490   .     S
C52    O323    1.221   .     D
C53    O324    1.221   .     D
C53    C72     1.490   .     S
C53    H242    1.085   .     S
C54    O325    1.221   .     D
C54    H243    1.085   .     S
C54    C73     1.490   .     S
C55    C74     1.490   .     S
C55    H244    1.085   .     S
C55    O327    1.221   .     D
C56    C75     1.490   .     S
C56    H245    1.085   .     S
C56    O328    1.221   .     D
C57    C78     1.405   .     A
C57    O312    1.387   .     S
C57    C86     1.406   .     S
C58    O329    1.221   .     D
C58    C77     1.490   .     S
C58    H246    1.085   .     S
C59    O330    1.221   .     D
C59    C78     1.490   .     S
C59    H247    1.085   .     S
C60    C79     1.490   .     S
C60    O331    1.221   .     D
C60    H248    1.085   .     S
C61    C79     1.405   .     A
C61    O313    1.387   .     S
C61    C784    1.406   .     S
C63    C65     1.405   .     A
C64    C367    1.422   .     A
C64    C76     1.405   .     A
C65    O298    1.387   .     S
C65    C81     1.406   .     S
C66    C368    1.422   .     A
C66    C87     1.405   .     A
C67    C98     1.405   .     A
C67    C713    1.422   .     S
C68    C109    1.405   .     A
C68    C714    1.422   .     S
C69    C120    1.405   .     A
C70    C131    1.405   .     A
C71    C142    1.405   .     A
C71    C369    1.422   .     A
C73    C719    1.422   .     S
C76    C430    1.406   .     A
C76    O299    1.387   .     S
C77    C370    1.422   .     S
C79    C721    1.422   .     S
C80    C81     1.468   1_554 S
C80    C794    1.406   1_545 S
C81    C805    1.406   1_545 A
C81    C80     1.468   1_556 S
C82    C424    1.406   1_455 A
C82    C83     1.468   1_554 S
C82    C120    1.406   .     S
C83    C435    1.406   1_455 A
C83    C82     1.468   1_556 S
C83    C131    1.406   .     S
C84    C85     1.468   .     S
C84    C490    1.406   1_455 S
C85    C394    1.406   1_455 A
C86    C709    1.406   1_545 A
C86    C88     1.468   .     S
C87    C431    1.406   .     A
C87    O300    1.387   .     S
C88    C757    1.406   1_545 S
C89    O332    1.283   .     A
C89    O989    1.283   1_545 S
C90    O946    1.283   1_545 A
C90    O304    1.283   .     S
C91    O315    1.283   .     A
C91    O599    1.283   1_455 S
C92    O674    1.283   1_455 A
C92    O252    1.283   .     S
C93    O257    1.283   .     A
C93    O253    1.283   .     A
C94    O254    1.283   .     A
C94    O258    1.283   .     A
C95    O259    1.283   .     A
C95    O255    1.283   .     A
C96    O256    1.283   .     S
C96    O261    1.283   .     S
C97    C152    1.455   .     S
C97    O262    1.281   .     A
C97    O290    1.281   .     A
C98    O301    1.387   .     S
C98    C776    1.406   .     S
C99    O263    1.281   .     A
C99    O291    1.281   .     A
C100   O264    1.281   .     A
C100   O288    1.281   .     A
C101   O289    1.281   .     A
C101   O265    1.281   .     A
C102   O295    1.281   .     A
C102   O266    1.281   .     A
C103   O296    1.281   .     A
C103   O267    1.281   .     A
C104   O292    1.281   .     A
C104   C150    1.455   .     S
C104   O268    1.281   .     A
C105   C151    1.455   .     S
C105   O269    1.281   .     A
C105   O294    1.281   .     A
C106   O270    1.281   .     A
C106   O281    1.281   .     A
C107   O272    1.281   .     A
C107   O283    1.281   .     A
C108   O273    1.281   .     A
C108   O279    1.281   .     A
C109   O302    1.387   .     S
C109   C777    1.406   .     A
C110   O274    1.281   .     A
C110   O280    1.281   .     A
C111   O286    1.281   .     A
C111   O275    1.281   .     A
C112   O287    1.281   .     A
C112   O276    1.281   .     A
C113   O284    1.281   .     A
C113   O277    1.281   .     A
C114   O285    1.281   .     A
C114   O278    1.281   .     A
C115   H153    1.083   .     S
C115   C132    1.386   .     A
C116   C130    1.386   .     A
C116   H164    1.083   .     S
C117   C129    1.386   .     A
C117   H175    1.083   .     S
C118   H186    1.083   .     S
C118   C128    1.386   .     A
C119   C127    1.386   .     A
C119   H197    1.083   .     S
C120   O303    1.387   .     S
C121   H208    1.083   .     S
C121   C126    1.386   .     A
C122   H219    1.083   .     S
C122   C125    1.386   .     A
C123   C124    1.386   .     A
C123   H230    1.083   .     S
C124   H241    1.083   .     S
C125   H154    1.083   .     S
C126   H155    1.083   .     S
C127   H156    1.083   .     S
C128   H157    1.083   .     S
C129   C152    1.402   .     A
C129   H158    1.083   .     S
C130   H159    1.083   .     S
C130   C151    1.402   .     A
C131   O305    1.387   .     S
C132   C150    1.402   .     A
C132   H160    1.083   .     S
C133   C151    1.402   .     A
C133   C149    1.386   .     A
C133   H161    1.083   .     S
C134   C150    1.402   .     A
C134   H162    1.083   .     S
C134   C148    1.386   .     A
C135   H163    1.083   .     S
C135   C147    1.386   .     A
C136   C152    1.402   .     A
C136   C146    1.386   .     A
C136   H165    1.083   .     S
C137   H166    1.083   .     S
C137   C145    1.386   .     A
C138   C144    1.386   .     A
C138   H167    1.083   .     S
C139   C143    1.386   .     A
C139   H168    1.083   .     S
C140   C141    1.386   .     A
C140   H169    1.083   .     S
C141   H170    1.083   .     S
C142   O306    1.387   .     S
C142   C432    1.406   .     S
C143   H171    1.083   .     S
C144   H172    1.083   .     S
C145   H173    1.083   .     S
C146   H174    1.083   .     S
C147   H176    1.083   .     S
C148   H177    1.083   .     S
C149   H178    1.083   .     S
H179   C26     1.109   1_556 S
H182   C27     1.109   1_554 S
H185   C28     1.109   1_556 S
H189   C29     1.109   1_554 S
H192   C30     1.109   1_556 S
H195   C31     1.109   1_554 S
H199   C32     1.109   1_556 S
H202   C33     1.109   1_554 S
O249   Zn1036  1.947   1_545 S
O249   Zn333   1.947   .     S
O249   Zn336   1.947   .     S
O249   Zn344   1.947   .     S
O250   C786    1.283   .     A
O250   Zn335   1.947   .     S
O251   Zn338   1.947   .     S
O251   C439    1.283   .     S
O252   Zn337   1.947   .     S
O253   Zn347   1.947   .     S
O254   Zn346   1.947   .     S
O255   Zn341   1.947   .     S
O256   Zn333   1.947   .     S
O257   Zn343   1.947   .     S
O258   Zn342   1.947   .     S
O259   Zn345   1.947   .     S
O260   Zn1031  1.947   1_545 S
O260   Zn339   1.947   .     S
O260   Zn341   1.947   .     S
O260   Zn345   1.947   .     S
O261   Zn344   1.947   .     S
O262   Zn336   1.936   .     S
O263   Zn335   1.936   .     S
O264   Zn338   1.936   .     S
O265   Zn337   1.936   .     S
O266   Zn340   1.936   .     S
O267   Zn339   1.936   .     S
O268   Zn334   1.936   .     S
O269   Zn348   1.936   .     S
O270   Zn335   1.936   .     S
O271   Zn346   1.947   .     S
O271   Zn686   1.947   1_455 S
O271   Zn342   1.947   .     S
O271   Zn334   1.947   .     S
O272   Zn336   1.936   .     S
O273   Zn348   1.936   .     S
O274   Zn334   1.936   .     S
O275   Zn339   1.936   .     S
O276   Zn340   1.936   .     S
O277   Zn337   1.936   .     S
O278   Zn338   1.936   .     S
O279   Zn691   1.936   .     S
O280   Zn342   1.936   .     S
O281   Zn1041  1.936   .     S
O282   Zn696   1.947   1_455 S
O282   Zn343   1.947   .     S
O282   Zn337   1.947   .     S
O282   Zn347   1.947   .     S
O283   Zn344   1.936   .     S
O284   Zn347   1.936   .     S
O285   Zn694   1.936   .     S
O286   Zn341   1.936   .     S
O287   Zn1029  1.936   .     S
O288   Zn690   1.936   .     S
O289   Zn343   1.936   .     S
O290   Zn333   1.936   .     S
O291   Zn1037  1.936   .     S
O292   Zn346   1.936   .     S
O293   Zn340   1.947   .     S
O293   C785    1.283   .     S
O294   Zn695   1.936   .     S
O295   Zn1040  1.936   .     S
O296   Zn345   1.936   .     S
O304   Zn339   1.947   .     S
O315   Zn334   1.947   .     S
O326   Zn348   1.947   .     S
O326   C440    1.283   .     A
O332   Zn336   1.947   .     S
Zn333  O983    1.936   1_545 S
Zn335  O956    1.947   .     S
Zn338  O619    1.947   .     S
Zn340  O945    1.947   .     S
Zn341  O987    1.936   1_545 S
Zn342  O636    1.936   1_455 S
Zn343  O627    1.936   1_455 S
Zn344  O991    1.936   1_545 S
Zn345  O977    1.936   1_545 S
Zn346  O633    1.936   1_455 S
Zn347  O642    1.936   1_455 S
Zn348  O630    1.947   .     S
C349   O645    1.387   .     S
C349   C410    1.405   .     A
C349   C428    1.406   .     A
C350   O655    1.387   .     S
C350   C420    1.405   .     A
C350   C433    1.406   .     S
C351   C476    1.402   .     A
C351   C447    1.455   .     S
C351   C483    1.402   .     A
C352   C475    1.402   .     A
C352   C486    1.402   .     A
C352   C448    1.455   .     S
C353   C474    1.402   .     A
C353   C449    1.455   .     S
C353   C485    1.402   .     A
C354   C473    1.402   .     A
C354   C450    1.455   .     S
C354   C488    1.402   .     A
C355   C451    1.455   .     S
C355   C472    1.402   .     A
C355   C487    1.402   .     A
C356   C471    1.402   .     A
C356   C491    1.402   .     A
C356   C461    1.455   .     S
C357   C462    1.455   .     S
C357   C470    1.402   .     A
C357   C489    1.402   .     A
C358   C454    1.455   .     S
C358   C469    1.402   .     A
C358   C493    1.402   .     A
C359   C467    1.402   .     A
C359   C492    1.402   .     A
C359   C455    1.455   .     S
C360   C456    1.455   .     S
C360   C495    1.402   .     A
C360   C466    1.402   .     A
C361   C421    1.405   .     A
C361   O656    1.387   .     S
C361   C1130   1.406   .     A
C362   C465    1.402   .     A
C362   C458    1.455   .     S
C362   C494    1.402   .     A
C363   C497    1.402   .     A
C363   C464    1.402   .     A
C363   C459    1.455   .     S
C364   C463    1.402   .     A
C364   C460    1.455   .     S
C364   C496    1.402   .     A
C365   C410    1.422   .     A
C365   C1111   1.422   1_545 S
C365   C444    1.478   .     S
C366   C443    1.478   .     S
C366   C411    1.422   .     A
C366   C1112   1.422   1_545 S
C367   C417    1.422   .     S
C367   C442    1.478   .     S
C368   C418    1.422   .     S
C368   C441    1.478   .     S
C369   C440    1.478   .     S
C369   C423    1.422   .     S
C370   C439    1.478   .     S
C370   C420    1.422   .     A
C371   C426    1.422   .     A
C371   C1117   1.422   1_545 S
C371   C438    1.478   .     S
C372   C436    1.406   .     A
C372   C422    1.405   .     A
C372   O657    1.387   .     S
C373   C422    1.422   .     A
C373   C437    1.478   .     S
C373   C1123   1.422   1_545 S
C374   O645    1.410   .     S
C374   H528    1.115   .     S
C374   H529    1.109   .     S
C374   H527    1.109   1_554 S
C375   H531    1.115   .     S
C375   H532    1.109   .     S
C375   O646    1.410   .     S
C375   H530    1.109   1_556 S
C376   O647    1.410   .     S
C376   H535    1.115   .     S
C376   H536    1.109   .     S
C376   H533    1.109   1_554 S
C377   H539    1.109   .     S
C377   H538    1.115   .     S
C377   O648    1.410   .     S
C377   H537    1.109   1_556 S
C378   H541    1.115   .     S
C378   O649    1.410   .     S
C378   H542    1.109   .     S
C378   H540    1.109   1_554 S
C379   H546    1.109   .     S
C379   H544    1.115   .     S
C379   O650    1.410   .     S
C379   H543    1.109   1_556 S
C380   H549    1.109   .     S
C380   H548    1.115   .     S
C380   O651    1.410   .     S
C380   H547    1.109   1_554 S
C381   H551    1.115   .     S
C381   H552    1.109   .     S
C381   O653    1.410   .     S
C381   H550    1.109   1_556 S
C382   H555    1.109   .     S
C382   O654    1.410   .     S
C382   H553    1.109   .     S
C382   H554    1.115   .     S
C383   C432    1.406   .     A
C383   C423    1.405   .     A
C383   O658    1.387   .     S
C384   O655    1.410   .     S
C384   H557    1.109   .     S
C384   H559    1.109   .     S
C384   H558    1.115   .     S
C385   H562    1.109   .     S
C385   H561    1.115   .     S
C385   H560    1.109   .     S
C385   O656    1.410   .     S
C386   H563    1.109   .     S
C386   H565    1.109   .     S
C386   O657    1.410   .     S
C386   H564    1.115   .     S
C387   H566    1.109   .     S
C387   H569    1.109   .     S
C387   H568    1.115   .     S
C387   O658    1.410   .     S
C388   H571    1.115   .     S
C388   H570    1.109   .     S
C388   O659    1.410   .     S
C388   H572    1.109   .     S
C389   H573    1.109   .     S
C389   H574    1.115   .     S
C389   H575    1.109   .     S
C389   O660    1.410   .     S
C390   H579    1.109   .     S
C390   H576    1.109   .     S
C390   H577    1.115   .     S
C390   O661    1.410   .     S
C391   H580    1.085   .     S
C391   O662    1.221   .     D
C391   C410    1.490   .     S
C392   O664    1.221   .     D
C392   H581    1.085   .     S
C392   C411    1.490   .     S
C393   O665    1.221   .     D
C393   H582    1.085   .     S
C393   C412    1.490   .     S
C394   C425    1.405   .     A
C394   C85     1.406   1_655 A
C394   O659    1.387   .     S
C395   H583    1.085   .     S
C395   C414    1.490   .     S
C395   O666    1.221   .     D
C396   C415    1.490   .     S
C396   O667    1.221   .     D
C396   H584    1.085   .     S
C397   H585    1.085   .     S
C397   C416    1.490   .     S
C397   O668    1.221   .     D
C398   C417    1.490   .     S
C398   O669    1.221   .     D
C398   H586    1.085   .     S
C399   O670    1.221   .     D
C399   H587    1.085   .     S
C399   C418    1.490   .     S
C400   H588    1.085   .     S
C400   C419    1.490   .     S
C400   O671    1.221   .     D
C401   O672    1.221   .     D
C401   C420    1.490   .     S
C401   H590    1.085   .     S
C402   O673    1.221   .     D
C402   H591    1.085   .     S
C402   C421    1.490   .     S
C403   C422    1.490   .     S
C403   H592    1.085   .     S
C403   O675    1.221   .     D
C404   C423    1.490   .     S
C404   H593    1.085   .     S
C404   O676    1.221   .     D
C405   C426    1.405   .     A
C405   O660    1.387   .     S
C405   C434    1.406   .     S
C406   O677    1.221   .     D
C406   C425    1.490   .     S
C406   H594    1.085   .     S
C407   O678    1.221   .     D
C407   C426    1.490   .     S
C407   H595    1.085   .     S
C408   C427    1.490   .     S
C408   O679    1.221   .     D
C408   H596    1.085   .     S
C409   C427    1.405   .     A
C409   O661    1.387   .     S
C409   C1132   1.406   .     S
C411   C413    1.405   .     A
C412   C19     1.422   1_655 A
C412   C424    1.405   .     A
C413   O646    1.387   .     S
C413   C429    1.406   .     S
C414   C20     1.422   1_655 A
C414   C435    1.405   .     A
C415   C446    1.405   .     A
C415   C1061   1.422   .     S
C416   C457    1.405   .     A
C416   C1062   1.422   .     S
C417   C468    1.405   .     A
C418   C479    1.405   .     A
C419   C490    1.405   .     A
C419   C21     1.422   1_655 A
C421   C1067   1.422   .     S
C424   C82     1.406   1_655 A
C424   O647    1.387   .     S
C425   C22     1.422   1_655 S
C427   C1069   1.422   .     S
C428   C429    1.468   1_554 S
C428   C1142   1.406   1_545 S
C429   C1153   1.406   1_545 A
C429   C428    1.468   1_556 S
C430   C431    1.468   1_554 S
C430   C468    1.406   .     S
C431   C430    1.468   1_556 S
C431   C479    1.406   .     S
C432   C433    1.468   .     S
C434   C1057   1.406   1_545 A
C434   C436    1.468   .     S
C435   C83     1.406   1_655 A
C435   O648    1.387   .     S
C436   C1105   1.406   1_545 S
C437   O680    1.283   .     A
C437   O1337   1.283   1_545 S
C438   O1294   1.283   1_545 A
C438   O652    1.283   .     S
C439   O663    1.283   .     A
C440   O600    1.283   .     S
C441   O605    1.283   .     A
C441   O601    1.283   .     A
C442   O602    1.283   .     A
C442   O606    1.283   .     A
C443   O607    1.283   .     A
C443   O603    1.283   .     A
C444   O604    1.283   .     S
C444   O609    1.283   .     S
C445   C500    1.455   .     S
C445   O610    1.281   .     A
C445   O638    1.281   .     A
C446   O649    1.387   .     S
C446   C1124   1.406   .     S
C447   O611    1.281   .     A
C447   O639    1.281   .     A
C448   O612    1.281   .     A
C448   O636    1.281   .     A
C449   O637    1.281   .     A
C449   O613    1.281   .     A
C450   O643    1.281   .     A
C450   O614    1.281   .     A
C451   O644    1.281   .     A
C451   O615    1.281   .     A
C452   O640    1.281   .     A
C452   C498    1.455   .     S
C452   O616    1.281   .     A
C453   C499    1.455   .     S
C453   O617    1.281   .     A
C453   O642    1.281   .     A
C454   O618    1.281   .     A
C454   O629    1.281   .     A
C455   O620    1.281   .     A
C455   O631    1.281   .     A
C456   O621    1.281   .     A
C456   O627    1.281   .     A
C457   O650    1.387   .     S
C457   C1125   1.406   .     A
C458   O622    1.281   .     A
C458   O628    1.281   .     A
C459   O634    1.281   .     A
C459   O623    1.281   .     A
C460   O635    1.281   .     A
C460   O624    1.281   .     A
C461   O632    1.281   .     A
C461   O625    1.281   .     A
C462   O633    1.281   .     A
C462   O626    1.281   .     A
C463   H501    1.083   .     S
C463   C480    1.386   .     A
C464   C478    1.386   .     A
C464   H512    1.083   .     S
C465   C477    1.386   .     A
C465   H523    1.083   .     S
C466   H534    1.083   .     S
C466   C476    1.386   .     A
C467   C475    1.386   .     A
C467   H545    1.083   .     S
C468   O651    1.387   .     S
C469   H556    1.083   .     S
C469   C474    1.386   .     A
C470   H567    1.083   .     S
C470   C473    1.386   .     A
C471   C472    1.386   .     A
C471   H578    1.083   .     S
C472   H589    1.083   .     S
C473   H502    1.083   .     S
C474   H503    1.083   .     S
C475   H504    1.083   .     S
C476   H505    1.083   .     S
C477   C500    1.402   .     A
C477   H506    1.083   .     S
C478   H507    1.083   .     S
C478   C499    1.402   .     A
C479   O653    1.387   .     S
C480   C498    1.402   .     A
C480   H508    1.083   .     S
C481   C499    1.402   .     A
C481   C497    1.386   .     A
C481   H509    1.083   .     S
C482   C498    1.402   .     A
C482   H510    1.083   .     S
C482   C496    1.386   .     A
C483   H511    1.083   .     S
C483   C495    1.386   .     A
C484   C500    1.402   .     A
C484   C494    1.386   .     A
C484   H513    1.083   .     S
C485   H514    1.083   .     S
C485   C493    1.386   .     A
C486   C492    1.386   .     A
C486   H515    1.083   .     S
C487   C491    1.386   .     A
C487   H516    1.083   .     S
C488   C489    1.386   .     A
C488   H517    1.083   .     S
C489   H518    1.083   .     S
C490   O654    1.387   .     S
C490   C84     1.406   1_655 S
C491   H519    1.083   .     S
C492   H520    1.083   .     S
C493   H521    1.083   .     S
C494   H522    1.083   .     S
C495   H524    1.083   .     S
C496   H525    1.083   .     S
C497   H526    1.083   .     S
H527   C374    1.109   1_556 S
H530   C375    1.109   1_554 S
H533   C376    1.109   1_556 S
H537   C377    1.109   1_554 S
H540   C378    1.109   1_556 S
H543   C379    1.109   1_554 S
H547   C380    1.109   1_556 S
H550   C381    1.109   1_554 S
O597   Zn1384  1.947   1_545 S
O597   Zn681   1.947   .     S
O597   Zn684   1.947   .     S
O597   Zn692   1.947   .     S
O598   C1134   1.283   .     A
O598   Zn683   1.947   .     S
O599   Zn686   1.947   .     S
O599   C91     1.283   1_655 S
O600   Zn685   1.947   .     S
O601   Zn695   1.947   .     S
O602   Zn694   1.947   .     S
O603   Zn689   1.947   .     S
O604   Zn681   1.947   .     S
O605   Zn691   1.947   .     S
O606   Zn690   1.947   .     S
O607   Zn693   1.947   .     S
O608   Zn1379  1.947   1_545 S
O608   Zn687   1.947   .     S
O608   Zn689   1.947   .     S
O608   Zn693   1.947   .     S
O609   Zn692   1.947   .     S
O610   Zn684   1.936   .     S
O611   Zn683   1.936   .     S
O612   Zn686   1.936   .     S
O613   Zn685   1.936   .     S
O614   Zn688   1.936   .     S
O615   Zn687   1.936   .     S
O616   Zn682   1.936   .     S
O617   Zn696   1.936   .     S
O618   Zn683   1.936   .     S
O619   Zn694   1.947   .     S
O619   Zn690   1.947   .     S
O619   Zn682   1.947   .     S
O620   Zn684   1.936   .     S
O621   Zn696   1.936   .     S
O622   Zn682   1.936   .     S
O623   Zn687   1.936   .     S
O624   Zn688   1.936   .     S
O625   Zn685   1.936   .     S
O626   Zn686   1.936   .     S
O627   Zn343   1.936   1_655 S
O628   Zn690   1.936   .     S
O629   Zn1389  1.936   .     S
O630   Zn691   1.947   .     S
O630   Zn685   1.947   .     S
O630   Zn695   1.947   .     S
O631   Zn692   1.936   .     S
O632   Zn695   1.936   .     S
O633   Zn346   1.936   1_655 S
O634   Zn689   1.936   .     S
O635   Zn1377  1.936   .     S
O636   Zn342   1.936   1_655 S
O637   Zn691   1.936   .     S
O638   Zn681   1.936   .     S
O639   Zn1385  1.936   .     S
O640   Zn694   1.936   .     S
O641   Zn688   1.947   .     S
O641   C1133   1.283   .     S
O642   Zn347   1.936   1_655 S
O643   Zn1388  1.936   .     S
O644   Zn693   1.936   .     S
O652   Zn687   1.947   .     S
O663   Zn682   1.947   .     S
O674   Zn696   1.947   .     S
O674   C92     1.283   1_655 A
O680   Zn684   1.947   .     S
Zn681  O1331   1.936   1_545 S
Zn683  O1304   1.947   .     S
Zn686  O271    1.947   1_655 S
Zn688  O1293   1.947   .     S
Zn689  O1335   1.936   1_545 S
Zn692  O1339   1.936   1_545 S
Zn693  O1325   1.936   1_545 S
Zn696  O282    1.947   1_655 S
C697   O993    1.387   .     S
C697   C758    1.405   .     A
C697   C776    1.406   .     A
C698   O1003   1.387   .     S
C698   C768    1.405   .     A
C698   C781    1.406   .     S
C699   C824    1.402   .     A
C699   C795    1.455   .     S
C699   C831    1.402   .     A
C700   C823    1.402   .     A
C700   C834    1.402   .     A
C700   C796    1.455   .     S
C701   C822    1.402   .     A
C701   C797    1.455   .     S
C701   C833    1.402   .     A
C702   C821    1.402   .     A
C702   C798    1.455   .     S
C702   C836    1.402   .     A
C703   C799    1.455   .     S
C703   C820    1.402   .     A
C703   C835    1.402   .     A
C704   C819    1.402   .     A
C704   C839    1.402   .     A
C704   C809    1.455   .     S
C705   C810    1.455   .     S
C705   C818    1.402   .     A
C705   C837    1.402   .     A
C706   C802    1.455   .     S
C706   C817    1.402   .     A
C706   C841    1.402   .     A
C707   C815    1.402   .     A
C707   C840    1.402   .     A
C707   C803    1.455   .     S
C708   C804    1.455   .     S
C708   C843    1.402   .     A
C708   C814    1.402   .     A
C709   C769    1.405   .     A
C709   O1004   1.387   .     S
C709   C86     1.406   1_565 A
C710   C813    1.402   .     A
C710   C806    1.455   .     S
C710   C842    1.402   .     A
C711   C845    1.402   .     A
C711   C812    1.402   .     A
C711   C807    1.455   .     S
C712   C811    1.402   .     A
C712   C808    1.455   .     S
C712   C844    1.402   .     A
C713   C758    1.422   .     A
C713   C792    1.478   .     S
C714   C791    1.478   .     S
C714   C759    1.422   .     A
C715   C1108   1.422   1_455 A
C715   C765    1.422   .     S
C715   C790    1.478   .     S
C716   C1110   1.422   1_455 A
C716   C766    1.422   .     S
C716   C789    1.478   .     S
C717   C788    1.478   .     S
C717   C1115   1.422   1_455 A
C717   C771    1.422   .     S
C718   C787    1.478   .     S
C718   C768    1.422   .     A
C718   C1121   1.422   1_455 S
C719   C774    1.422   .     A
C719   C786    1.478   .     S
C720   C784    1.406   .     A
C720   C770    1.405   .     A
C720   O1005   1.387   .     S
C721   C770    1.422   .     A
C721   C785    1.478   .     S
C722   O993    1.410   .     S
C722   H876    1.115   .     S
C722   H877    1.109   .     S
C722   H875    1.109   1_554 S
C723   H879    1.115   .     S
C723   H880    1.109   .     S
C723   O994    1.410   .     S
C723   H878    1.109   1_556 S
C724   O995    1.410   .     S
C724   H883    1.115   .     S
C724   H884    1.109   .     S
C724   H881    1.109   1_554 S
C725   H887    1.109   .     S
C725   H886    1.115   .     S
C725   O996    1.410   .     S
C725   H885    1.109   1_556 S
C726   H889    1.115   .     S
C726   O997    1.410   .     S
C726   H890    1.109   .     S
C726   H888    1.109   1_554 S
C727   H894    1.109   .     S
C727   H892    1.115   .     S
C727   O998    1.410   .     S
C727   H891    1.109   1_556 S
C728   H897    1.109   .     S
C728   H896    1.115   .     S
C728   O999    1.410   .     S
C728   H895    1.109   1_554 S
C729   H899    1.115   .     S
C729   H900    1.109   .     S
C729   O1001   1.410   .     S
C729   H898    1.109   1_556 S
C730   H903    1.109   .     S
C730   O1002   1.410   .     S
C730   H901    1.109   .     S
C730   H902    1.115   .     S
C731   C780    1.406   .     A
C731   C771    1.405   .     A
C731   O1006   1.387   .     S
C732   O1003   1.410   .     S
C732   H905    1.109   .     S
C732   H907    1.109   .     S
C732   H906    1.115   .     S
C733   H910    1.109   .     S
C733   H909    1.115   .     S
C733   H908    1.109   .     S
C733   O1004   1.410   .     S
C734   H911    1.109   .     S
C734   H913    1.109   .     S
C734   O1005   1.410   .     S
C734   H912    1.115   .     S
C735   H914    1.109   .     S
C735   H917    1.109   .     S
C735   H916    1.115   .     S
C735   O1006   1.410   .     S
C736   H919    1.115   .     S
C736   H918    1.109   .     S
C736   O1007   1.410   .     S
C736   H920    1.109   .     S
C737   H921    1.109   .     S
C737   H922    1.115   .     S
C737   H923    1.109   .     S
C737   O1008   1.410   .     S
C738   H927    1.109   .     S
C738   H924    1.109   .     S
C738   H925    1.115   .     S
C738   O1009   1.410   .     S
C739   H928    1.085   .     S
C739   O1010   1.221   .     D
C739   C758    1.490   .     S
C740   O1012   1.221   .     D
C740   H929    1.085   .     S
C740   C759    1.490   .     S
C741   O1013   1.221   .     D
C741   H930    1.085   .     S
C741   C760    1.490   .     S
C742   C773    1.405   .     A
C742   C1129   1.406   .     A
C742   O1007   1.387   .     S
C743   H931    1.085   .     S
C743   C762    1.490   .     S
C743   O1014   1.221   .     D
C744   C763    1.490   .     S
C744   O1015   1.221   .     D
C744   H932    1.085   .     S
C745   H933    1.085   .     S
C745   C764    1.490   .     S
C745   O1016   1.221   .     D
C746   C765    1.490   .     S
C746   O1017   1.221   .     D
C746   H934    1.085   .     S
C747   O1018   1.221   .     D
C747   H935    1.085   .     S
C747   C766    1.490   .     S
C748   H936    1.085   .     S
C748   C767    1.490   .     S
C748   O1019   1.221   .     D
C749   O1020   1.221   .     D
C749   C768    1.490   .     S
C749   H938    1.085   .     S
C750   O1021   1.221   .     D
C750   H939    1.085   .     S
C750   C769    1.490   .     S
C751   C770    1.490   .     S
C751   H940    1.085   .     S
C751   O1023   1.221   .     D
C752   C771    1.490   .     S
C752   H941    1.085   .     S
C752   O1024   1.221   .     D
C753   C774    1.405   .     A
C753   O1008   1.387   .     S
C753   C782    1.406   .     S
C754   O1025   1.221   .     D
C754   C773    1.490   .     S
C754   H942    1.085   .     S
C755   O1026   1.221   .     D
C755   C774    1.490   .     S
C755   H943    1.085   .     S
C756   C775    1.490   .     S
C756   O1027   1.221   .     D
C756   H944    1.085   .     S
C757   C775    1.405   .     A
C757   O1009   1.387   .     S
C757   C88     1.406   1_565 S
C759   C761    1.405   .     A
C760   C1063   1.422   .     A
C760   C772    1.405   .     A
C761   O994    1.387   .     S
C761   C777    1.406   .     S
C762   C1064   1.422   .     A
C762   C783    1.405   .     A
C763   C794    1.405   .     A
C763   C17     1.422   1_565 S
C764   C805    1.405   .     A
C764   C18     1.422   1_565 S
C765   C816    1.405   .     A
C766   C827    1.405   .     A
C767   C838    1.405   .     A
C767   C1065   1.422   .     A
C769   C23     1.422   1_565 S
C772   C1126   1.406   .     A
C772   O995    1.387   .     S
C773   C1066   1.422   .     S
C775   C25     1.422   1_565 S
C776   C777    1.468   1_554 S
C777   C776    1.468   1_556 S
C778   C1120   1.406   1_455 A
C778   C779    1.468   1_554 S
C778   C816    1.406   .     S
C779   C1131   1.406   1_455 A
C779   C778    1.468   1_556 S
C779   C827    1.406   .     S
C780   C781    1.468   .     S
C780   C1186   1.406   1_455 S
C781   C1090   1.406   1_455 A
C782   C784    1.468   .     S
C783   C1127   1.406   .     A
C783   O996    1.387   .     S
C785   O1028   1.283   .     A
C786   O1000   1.283   .     S
C787   O1011   1.283   .     A
C787   O1295   1.283   1_455 S
C788   O1370   1.283   1_455 A
C788   O948    1.283   .     S
C789   O953    1.283   .     A
C789   O949    1.283   .     A
C790   O950    1.283   .     A
C790   O954    1.283   .     A
C791   O955    1.283   .     A
C791   O951    1.283   .     A
C792   O952    1.283   .     S
C792   O957    1.283   .     S
C793   C848    1.455   .     S
C793   O958    1.281   .     A
C793   O986    1.281   .     A
C794   O997    1.387   .     S
C794   C80     1.406   1_565 S
C795   O959    1.281   .     A
C795   O987    1.281   .     A
C796   O960    1.281   .     A
C796   O984    1.281   .     A
C797   O985    1.281   .     A
C797   O961    1.281   .     A
C798   O991    1.281   .     A
C798   O962    1.281   .     A
C799   O992    1.281   .     A
C799   O963    1.281   .     A
C800   O988    1.281   .     A
C800   C846    1.455   .     S
C800   O964    1.281   .     A
C801   C847    1.455   .     S
C801   O965    1.281   .     A
C801   O990    1.281   .     A
C802   O966    1.281   .     A
C802   O977    1.281   .     A
C803   O968    1.281   .     A
C803   O979    1.281   .     A
C804   O969    1.281   .     A
C804   O975    1.281   .     A
C805   O998    1.387   .     S
C805   C81     1.406   1_565 A
C806   O970    1.281   .     A
C806   O976    1.281   .     A
C807   O982    1.281   .     A
C807   O971    1.281   .     A
C808   O983    1.281   .     A
C808   O972    1.281   .     A
C809   O980    1.281   .     A
C809   O973    1.281   .     A
C810   O981    1.281   .     A
C810   O974    1.281   .     A
C811   H849    1.083   .     S
C811   C828    1.386   .     A
C812   C826    1.386   .     A
C812   H860    1.083   .     S
C813   C825    1.386   .     A
C813   H871    1.083   .     S
C814   H882    1.083   .     S
C814   C824    1.386   .     A
C815   C823    1.386   .     A
C815   H893    1.083   .     S
C816   O999    1.387   .     S
C817   H904    1.083   .     S
C817   C822    1.386   .     A
C818   H915    1.083   .     S
C818   C821    1.386   .     A
C819   C820    1.386   .     A
C819   H926    1.083   .     S
C820   H937    1.083   .     S
C821   H850    1.083   .     S
C822   H851    1.083   .     S
C823   H852    1.083   .     S
C824   H853    1.083   .     S
C825   C848    1.402   .     A
C825   H854    1.083   .     S
C826   H855    1.083   .     S
C826   C847    1.402   .     A
C827   O1001   1.387   .     S
C828   C846    1.402   .     A
C828   H856    1.083   .     S
C829   C847    1.402   .     A
C829   C845    1.386   .     A
C829   H857    1.083   .     S
C830   C846    1.402   .     A
C830   H858    1.083   .     S
C830   C844    1.386   .     A
C831   H859    1.083   .     S
C831   C843    1.386   .     A
C832   C848    1.402   .     A
C832   C842    1.386   .     A
C832   H861    1.083   .     S
C833   H862    1.083   .     S
C833   C841    1.386   .     A
C834   C840    1.386   .     A
C834   H863    1.083   .     S
C835   C839    1.386   .     A
C835   H864    1.083   .     S
C836   C837    1.386   .     A
C836   H865    1.083   .     S
C837   H866    1.083   .     S
C838   O1002   1.387   .     S
C838   C1128   1.406   .     S
C839   H867    1.083   .     S
C840   H868    1.083   .     S
C841   H869    1.083   .     S
C842   H870    1.083   .     S
C843   H872    1.083   .     S
C844   H873    1.083   .     S
C845   H874    1.083   .     S
H875   C722    1.109   1_556 S
H878   C723    1.109   1_554 S
H881   C724    1.109   1_556 S
H885   C725    1.109   1_554 S
H888   C726    1.109   1_556 S
H891   C727    1.109   1_554 S
H895   C728    1.109   1_556 S
H898   C729    1.109   1_554 S
O945   Zn1029  1.947   .     S
O945   Zn1032  1.947   .     S
O945   Zn1040  1.947   .     S
O946   C90     1.283   1_565 A
O946   Zn1031  1.947   .     S
O947   Zn1034  1.947   .     S
O947   C1135   1.283   .     S
O948   Zn1033  1.947   .     S
O949   Zn1043  1.947   .     S
O950   Zn1042  1.947   .     S
O951   Zn1037  1.947   .     S
O952   Zn1029  1.947   .     S
O953   Zn1039  1.947   .     S
O954   Zn1038  1.947   .     S
O955   Zn1041  1.947   .     S
O956   Zn1035  1.947   .     S
O956   Zn1037  1.947   .     S
O956   Zn1041  1.947   .     S
O957   Zn1040  1.947   .     S
O958   Zn1032  1.936   .     S
O959   Zn1031  1.936   .     S
O960   Zn1034  1.936   .     S
O961   Zn1033  1.936   .     S
O962   Zn1036  1.936   .     S
O963   Zn1035  1.936   .     S
O964   Zn1030  1.936   .     S
O965   Zn1044  1.936   .     S
O966   Zn1031  1.936   .     S
O967   Zn1042  1.947   .     S
O967   Zn1382  1.947   1_455 S
O967   Zn1038  1.947   .     S
O967   Zn1030  1.947   .     S
O968   Zn1032  1.936   .     S
O969   Zn1044  1.936   .     S
O970   Zn1030  1.936   .     S
O971   Zn1035  1.936   .     S
O972   Zn1036  1.936   .     S
O973   Zn1033  1.936   .     S
O974   Zn1034  1.936   .     S
O975   Zn1387  1.936   .     S
O976   Zn1038  1.936   .     S
O977   Zn345   1.936   1_565 S
O978   Zn1392  1.947   1_455 S
O978   Zn1039  1.947   .     S
O978   Zn1033  1.947   .     S
O978   Zn1043  1.947   .     S
O979   Zn1040  1.936   .     S
O980   Zn1043  1.936   .     S
O981   Zn1390  1.936   .     S
O982   Zn1037  1.936   .     S
O983   Zn333   1.936   1_565 S
O984   Zn1386  1.936   .     S
O985   Zn1039  1.936   .     S
O986   Zn1029  1.936   .     S
O987   Zn341   1.936   1_565 S
O988   Zn1042  1.936   .     S
O989   Zn1036  1.947   .     S
O989   C89     1.283   1_565 S
O990   Zn1391  1.936   .     S
O991   Zn344   1.936   1_565 S
O992   Zn1041  1.936   .     S
O1000  Zn1035  1.947   .     S
O1011  Zn1030  1.947   .     S
O1022  Zn1044  1.947   .     S
O1022  C1136   1.283   .     A
O1028  Zn1032  1.947   .     S
Zn1031 O260    1.947   1_565 S
Zn1034 O1315   1.947   .     S
Zn1036 O249    1.947   1_565 S
Zn1038 O1332   1.936   1_455 S
Zn1039 O1323   1.936   1_455 S
Zn1042 O1329   1.936   1_455 S
Zn1043 O1338   1.936   1_455 S
Zn1044 O1326   1.947   .     S
C1045  O1341   1.387   .     S
C1045  C1106   1.405   .     A
C1045  C1124   1.406   .     A
C1046  O1351   1.387   .     S
C1046  C1116   1.405   .     A
C1046  C1129   1.406   .     S
C1047  C1172   1.402   .     A
C1047  C1143   1.455   .     S
C1047  C1179   1.402   .     A
C1048  C1171   1.402   .     A
C1048  C1182   1.402   .     A
C1048  C1144   1.455   .     S
C1049  C1170   1.402   .     A
C1049  C1145   1.455   .     S
C1049  C1181   1.402   .     A
C1050  C1169   1.402   .     A
C1050  C1146   1.455   .     S
C1050  C1184   1.402   .     A
C1051  C1147   1.455   .     S
C1051  C1168   1.402   .     A
C1051  C1183   1.402   .     A
C1052  C1167   1.402   .     A
C1052  C1187   1.402   .     A
C1052  C1157   1.455   .     S
C1053  C1158   1.455   .     S
C1053  C1166   1.402   .     A
C1053  C1185   1.402   .     A
C1054  C1150   1.455   .     S
C1054  C1165   1.402   .     A
C1054  C1189   1.402   .     A
C1055  C1163   1.402   .     A
C1055  C1188   1.402   .     A
C1055  C1151   1.455   .     S
C1056  C1152   1.455   .     S
C1056  C1191   1.402   .     A
C1056  C1162   1.402   .     A
C1057  C1117   1.405   .     A
C1057  O1352   1.387   .     S
C1057  C434    1.406   1_565 A
C1058  C1161   1.402   .     A
C1058  C1154   1.455   .     S
C1058  C1190   1.402   .     A
C1059  C1193   1.402   .     A
C1059  C1160   1.402   .     A
C1059  C1155   1.455   .     S
C1060  C1159   1.402   .     A
C1060  C1156   1.455   .     S
C1060  C1192   1.402   .     A
C1061  C1106   1.422   .     A
C1061  C1140   1.478   .     S
C1062  C1139   1.478   .     S
C1062  C1107   1.422   .     A
C1063  C1113   1.422   .     S
C1063  C1138   1.478   .     S
C1064  C1114   1.422   .     S
C1064  C1137   1.478   .     S
C1065  C1136   1.478   .     S
C1065  C1119   1.422   .     S
C1066  C1135   1.478   .     S
C1066  C1116   1.422   .     A
C1067  C1122   1.422   .     A
C1067  C1134   1.478   .     S
C1068  C1132   1.406   .     A
C1068  C1118   1.405   .     A
C1068  O1353   1.387   .     S
C1069  C1118   1.422   .     A
C1069  C1133   1.478   .     S
C1070  O1341   1.410   .     S
C1070  H1224   1.115   .     S
C1070  H1225   1.109   .     S
C1070  H1223   1.109   1_554 S
C1071  H1227   1.115   .     S
C1071  H1228   1.109   .     S
C1071  O1342   1.410   .     S
C1071  H1226   1.109   1_556 S
C1072  O1343   1.410   .     S
C1072  H1231   1.115   .     S
C1072  H1232   1.109   .     S
C1072  H1229   1.109   1_554 S
C1073  H1235   1.109   .     S
C1073  H1234   1.115   .     S
C1073  O1344   1.410   .     S
C1073  H1233   1.109   1_556 S
C1074  H1237   1.115   .     S
C1074  O1345   1.410   .     S
C1074  H1238   1.109   .     S
C1074  H1236   1.109   1_554 S
C1075  H1242   1.109   .     S
C1075  H1240   1.115   .     S
C1075  O1346   1.410   .     S
C1075  H1239   1.109   1_556 S
C1076  H1245   1.109   .     S
C1076  H1244   1.115   .     S
C1076  O1347   1.410   .     S
C1076  H1243   1.109   1_554 S
C1077  H1247   1.115   .     S
C1077  H1248   1.109   .     S
C1077  O1349   1.410   .     S
C1077  H1246   1.109   1_556 S
C1078  H1251   1.109   .     S
C1078  O1350   1.410   .     S
C1078  H1249   1.109   .     S
C1078  H1250   1.115   .     S
C1079  C1128   1.406   .     A
C1079  C1119   1.405   .     A
C1079  O1354   1.387   .     S
C1080  O1351   1.410   .     S
C1080  H1253   1.109   .     S
C1080  H1255   1.109   .     S
C1080  H1254   1.115   .     S
C1081  H1258   1.109   .     S
C1081  H1257   1.115   .     S
C1081  H1256   1.109   .     S
C1081  O1352   1.410   .     S
C1082  H1259   1.109   .     S
C1082  H1261   1.109   .     S
C1082  O1353   1.410   .     S
C1082  H1260   1.115   .     S
C1083  H1262   1.109   .     S
C1083  H1265   1.109   .     S
C1083  H1264   1.115   .     S
C1083  O1354   1.410   .     S
C1084  H1267   1.115   .     S
C1084  H1266   1.109   .     S
C1084  O1355   1.410   .     S
C1084  H1268   1.109   .     S
C1085  H1269   1.109   .     S
C1085  H1270   1.115   .     S
C1085  H1271   1.109   .     S
C1085  O1356   1.410   .     S
C1086  H1275   1.109   .     S
C1086  H1272   1.109   .     S
C1086  H1273   1.115   .     S
C1086  O1357   1.410   .     S
C1087  H1276   1.085   .     S
C1087  O1358   1.221   .     D
C1087  C1106   1.490   .     S
C1088  O1360   1.221   .     D
C1088  H1277   1.085   .     S
C1088  C1107   1.490   .     S
C1089  O1361   1.221   .     D
C1089  H1278   1.085   .     S
C1089  C1108   1.490   .     S
C1090  C1121   1.405   .     A
C1090  C781    1.406   1_655 A
C1090  O1355   1.387   .     S
C1091  H1279   1.085   .     S
C1091  C1110   1.490   .     S
C1091  O1362   1.221   .     D
C1092  C1111   1.490   .     S
C1092  O1363   1.221   .     D
C1092  H1280   1.085   .     S
C1093  H1281   1.085   .     S
C1093  C1112   1.490   .     S
C1093  O1364   1.221   .     D
C1094  C1113   1.490   .     S
C1094  O1365   1.221   .     D
C1094  H1282   1.085   .     S
C1095  O1366   1.221   .     D
C1095  H1283   1.085   .     S
C1095  C1114   1.490   .     S
C1096  H1284   1.085   .     S
C1096  C1115   1.490   .     S
C1096  O1367   1.221   .     D
C1097  O1368   1.221   .     D
C1097  C1116   1.490   .     S
C1097  H1286   1.085   .     S
C1098  O1369   1.221   .     D
C1098  H1287   1.085   .     S
C1098  C1117   1.490   .     S
C1099  C1118   1.490   .     S
C1099  H1288   1.085   .     S
C1099  O1371   1.221   .     D
C1100  C1119   1.490   .     S
C1100  H1289   1.085   .     S
C1100  O1372   1.221   .     D
C1101  C1122   1.405   .     A
C1101  O1356   1.387   .     S
C1101  C1130   1.406   .     S
C1102  O1373   1.221   .     D
C1102  C1121   1.490   .     S
C1102  H1290   1.085   .     S
C1103  O1374   1.221   .     D
C1103  C1122   1.490   .     S
C1103  H1291   1.085   .     S
C1104  C1123   1.490   .     S
C1104  O1375   1.221   .     D
C1104  H1292   1.085   .     S
C1105  C1123   1.405   .     A
C1105  O1357   1.387   .     S
C1105  C436    1.406   1_565 S
C1107  C1109   1.405   .     A
C1108  C715    1.422   1_655 A
C1108  C1120   1.405   .     A
C1109  O1342   1.387   .     S
C1109  C1125   1.406   .     S
C1110  C716    1.422   1_655 A
C1110  C1131   1.405   .     A
C1111  C1142   1.405   .     A
C1111  C365    1.422   1_565 S
C1112  C1153   1.405   .     A
C1112  C366    1.422   1_565 S
C1113  C1164   1.405   .     A
C1114  C1175   1.405   .     A
C1115  C1186   1.405   .     A
C1115  C717    1.422   1_655 A
C1117  C371    1.422   1_565 S
C1120  C778    1.406   1_655 A
C1120  O1343   1.387   .     S
C1121  C718    1.422   1_655 S
C1123  C373    1.422   1_565 S
C1124  C1125   1.468   1_554 S
C1125  C1124   1.468   1_556 S
C1126  C1127   1.468   1_554 S
C1126  C1164   1.406   .     S
C1127  C1126   1.468   1_556 S
C1127  C1175   1.406   .     S
C1128  C1129   1.468   .     S
C1130  C1132   1.468   .     S
C1131  C779    1.406   1_655 A
C1131  O1344   1.387   .     S
C1133  O1376   1.283   .     A
C1134  O1348   1.283   .     S
C1135  O1359   1.283   .     A
C1136  O1296   1.283   .     S
C1137  O1301   1.283   .     A
C1137  O1297   1.283   .     A
C1138  O1298   1.283   .     A
C1138  O1302   1.283   .     A
C1139  O1303   1.283   .     A
C1139  O1299   1.283   .     A
C1140  O1300   1.283   .     S
C1140  O1305   1.283   .     S
C1141  C1196   1.455   .     S
C1141  O1306   1.281   .     A
C1141  O1334   1.281   .     A
C1142  O1345   1.387   .     S
C1142  C428    1.406   1_565 S
C1143  O1307   1.281   .     A
C1143  O1335   1.281   .     A
C1144  O1308   1.281   .     A
C1144  O1332   1.281   .     A
C1145  O1333   1.281   .     A
C1145  O1309   1.281   .     A
C1146  O1339   1.281   .     A
C1146  O1310   1.281   .     A
C1147  O1340   1.281   .     A
C1147  O1311   1.281   .     A
C1148  O1336   1.281   .     A
C1148  C1194   1.455   .     S
C1148  O1312   1.281   .     A
C1149  C1195   1.455   .     S
C1149  O1313   1.281   .     A
C1149  O1338   1.281   .     A
C1150  O1314   1.281   .     A
C1150  O1325   1.281   .     A
C1151  O1316   1.281   .     A
C1151  O1327   1.281   .     A
C1152  O1317   1.281   .     A
C1152  O1323   1.281   .     A
C1153  O1346   1.387   .     S
C1153  C429    1.406   1_565 A
C1154  O1318   1.281   .     A
C1154  O1324   1.281   .     A
C1155  O1330   1.281   .     A
C1155  O1319   1.281   .     A
C1156  O1331   1.281   .     A
C1156  O1320   1.281   .     A
C1157  O1328   1.281   .     A
C1157  O1321   1.281   .     A
C1158  O1329   1.281   .     A
C1158  O1322   1.281   .     A
C1159  H1197   1.083   .     S
C1159  C1176   1.386   .     A
C1160  C1174   1.386   .     A
C1160  H1208   1.083   .     S
C1161  C1173   1.386   .     A
C1161  H1219   1.083   .     S
C1162  H1230   1.083   .     S
C1162  C1172   1.386   .     A
C1163  C1171   1.386   .     A
C1163  H1241   1.083   .     S
C1164  O1347   1.387   .     S
C1165  H1252   1.083   .     S
C1165  C1170   1.386   .     A
C1166  H1263   1.083   .     S
C1166  C1169   1.386   .     A
C1167  C1168   1.386   .     A
C1167  H1274   1.083   .     S
C1168  H1285   1.083   .     S
C1169  H1198   1.083   .     S
C1170  H1199   1.083   .     S
C1171  H1200   1.083   .     S
C1172  H1201   1.083   .     S
C1173  C1196   1.402   .     A
C1173  H1202   1.083   .     S
C1174  H1203   1.083   .     S
C1174  C1195   1.402   .     A
C1175  O1349   1.387   .     S
C1176  C1194   1.402   .     A
C1176  H1204   1.083   .     S
C1177  C1195   1.402   .     A
C1177  C1193   1.386   .     A
C1177  H1205   1.083   .     S
C1178  C1194   1.402   .     A
C1178  H1206   1.083   .     S
C1178  C1192   1.386   .     A
C1179  H1207   1.083   .     S
C1179  C1191   1.386   .     A
C1180  C1196   1.402   .     A
C1180  C1190   1.386   .     A
C1180  H1209   1.083   .     S
C1181  H1210   1.083   .     S
C1181  C1189   1.386   .     A
C1182  C1188   1.386   .     A
C1182  H1211   1.083   .     S
C1183  C1187   1.386   .     A
C1183  H1212   1.083   .     S
C1184  C1185   1.386   .     A
C1184  H1213   1.083   .     S
C1185  H1214   1.083   .     S
C1186  O1350   1.387   .     S
C1186  C780    1.406   1_655 S
C1187  H1215   1.083   .     S
C1188  H1216   1.083   .     S
C1189  H1217   1.083   .     S
C1190  H1218   1.083   .     S
C1191  H1220   1.083   .     S
C1192  H1221   1.083   .     S
C1193  H1222   1.083   .     S
H1223  C1070   1.109   1_556 S
H1226  C1071   1.109   1_554 S
H1229  C1072   1.109   1_556 S
H1233  C1073   1.109   1_554 S
H1236  C1074   1.109   1_556 S
H1239  C1075   1.109   1_554 S
H1243  C1076   1.109   1_556 S
H1246  C1077   1.109   1_554 S
O1293  Zn1377  1.947   .     S
O1293  Zn1380  1.947   .     S
O1293  Zn1388  1.947   .     S
O1294  C438    1.283   1_565 A
O1294  Zn1379  1.947   .     S
O1295  Zn1382  1.947   .     S
O1295  C787    1.283   1_655 S
O1296  Zn1381  1.947   .     S
O1297  Zn1391  1.947   .     S
O1298  Zn1390  1.947   .     S
O1299  Zn1385  1.947   .     S
O1300  Zn1377  1.947   .     S
O1301  Zn1387  1.947   .     S
O1302  Zn1386  1.947   .     S
O1303  Zn1389  1.947   .     S
O1304  Zn1383  1.947   .     S
O1304  Zn1385  1.947   .     S
O1304  Zn1389  1.947   .     S
O1305  Zn1388  1.947   .     S
O1306  Zn1380  1.936   .     S
O1307  Zn1379  1.936   .     S
O1308  Zn1382  1.936   .     S
O1309  Zn1381  1.936   .     S
O1310  Zn1384  1.936   .     S
O1311  Zn1383  1.936   .     S
O1312  Zn1378  1.936   .     S
O1313  Zn1392  1.936   .     S
O1314  Zn1379  1.936   .     S
O1315  Zn1390  1.947   .     S
O1315  Zn1386  1.947   .     S
O1315  Zn1378  1.947   .     S
O1316  Zn1380  1.936   .     S
O1317  Zn1392  1.936   .     S
O1318  Zn1378  1.936   .     S
O1319  Zn1383  1.936   .     S
O1320  Zn1384  1.936   .     S
O1321  Zn1381  1.936   .     S
O1322  Zn1382  1.936   .     S
O1323  Zn1039  1.936   1_655 S
O1324  Zn1386  1.936   .     S
O1325  Zn693   1.936   1_565 S
O1326  Zn1387  1.947   .     S
O1326  Zn1381  1.947   .     S
O1326  Zn1391  1.947   .     S
O1327  Zn1388  1.936   .     S
O1328  Zn1391  1.936   .     S
O1329  Zn1042  1.936   1_655 S
O1330  Zn1385  1.936   .     S
O1331  Zn681   1.936   1_565 S
O1332  Zn1038  1.936   1_655 S
O1333  Zn1387  1.936   .     S
O1334  Zn1377  1.936   .     S
O1335  Zn689   1.936   1_565 S
O1336  Zn1390  1.936   .     S
O1337  Zn1384  1.947   .     S
O1337  C437    1.283   1_565 S
O1338  Zn1043  1.936   1_655 S
O1339  Zn692   1.936   1_565 S
O1340  Zn1389  1.936   .     S
O1348  Zn1383  1.947   .     S
O1359  Zn1378  1.947   .     S
O1370  Zn1392  1.947   .     S
O1370  C788    1.283   1_655 A
O1376  Zn1380  1.947   .     S
Zn1379 O608    1.947   1_565 S
Zn1382 O967    1.947   1_655 S
Zn1384 O597    1.947   1_565 S
Zn1392 O978    1.947   1_655 S
