data_str_m1_o10_o16_pcu_sym.21
_audit_creation_date              2020-01-03
_audit_creation_method            'Materials Studio'
_symmetry_space_group_name_H-M    'P1'
_symmetry_Int_Tables_number       1
_symmetry_cell_setting            triclinic
loop_
_symmetry_equiv_pos_as_xyz
  x,y,z
_cell_length_a                    32.5912
_cell_length_b                    32.5014
_cell_length_c                    30.8893
_cell_angle_alpha                 96.7836
_cell_angle_beta                  74.9914
_cell_angle_gamma                 98.6200
loop_
_atom_site_label
_atom_site_type_symbol
_atom_site_fract_x
_atom_site_fract_y
_atom_site_fract_z
_atom_site_U_iso_or_equiv
_atom_site_adp_type
_atom_site_occupancy
C1     C     0.05265   0.15911   0.26035   0.00000  Uiso   1.00
C2     C     0.17808   0.16348   0.05613   0.00000  Uiso   1.00
C3     C     0.20441   0.09973   0.06163   0.00000  Uiso   1.00
C4     C     0.28071   0.17458   0.24066   0.00000  Uiso   1.00
C5     C     0.13748   0.19059   0.42205   0.00000  Uiso   1.00
C6     C     0.32615   0.18096   0.23969   0.00000  Uiso   1.00
C7     C     0.00768   0.15635   0.26246   0.00000  Uiso   1.00
C8     C     0.18048   0.32248   0.23669   0.00000  Uiso   1.00
C9     C     0.15167   0.01168   0.26375   0.00000  Uiso   1.00
C10    C     0.15603   0.05581   0.26021   0.00000  Uiso   1.00
C11    C     0.17656   0.27790   0.24021   0.00000  Uiso   1.00
C12    C     0.10850   0.23017   0.49278   0.00000  Uiso   1.00
C13    C     0.18516   0.14788   0.12922   0.00000  Uiso   1.00
C14    C     0.14774   0.18422   0.37157   0.00000  Uiso   1.00
C15    C     0.20294   0.08591   0.01727   0.00000  Uiso   1.00
C16    C     0.19198   0.13814   0.08085   0.00000  Uiso   1.00
C17    C     0.11775   0.22615   0.44564   0.00000  Uiso   1.00
C18    C     0.17771   0.05348   0.42955   0.00000  Uiso   1.00
C19    C     0.22536   0.04780   0.49764   0.00000  Uiso   1.00
C20    C     0.19643   0.00744   0.01099   0.00000  Uiso   1.00
C21    C     0.10475   0.25844   0.42104   0.00000  Uiso   1.00
C22    C     0.08573   0.29602   0.44972   0.00000  Uiso   1.00
C23    C     0.12193   0.20334   0.01665   0.00000  Uiso   1.00
C24    C     0.10261   0.20482   0.06449   0.00000  Uiso   1.00
C25    C     0.02033   0.21451   0.21549   0.00000  Uiso   1.00
C26    C     0.14704   0.17169   0.49349   0.00000  Uiso   1.00
C27    C     0.14835   0.16159   0.44746   0.00000  Uiso   1.00
C28    C     0.16864   0.14807   0.01482   0.00000  Uiso   1.00
C29    C     0.18234   0.10899   0.49381   0.00000  Uiso   1.00
C30    C     0.17330   0.09494   0.45147   0.00000  Uiso   1.00
C31    C     0.15729   0.12128   0.42909   0.00000  Uiso   1.00
H32    H     0.21612   0.08067   0.08127   0.00000  Uiso   1.00
H33    H     0.21214   0.31348   0.49284   0.00000  Uiso   1.00
H34    H     0.23852   0.04760   0.46085   0.00000  Uiso   1.00
H35    H     0.25435   0.04899   0.01066   0.00000  Uiso   1.00
H36    H     0.05424   0.28590   0.47242   0.00000  Uiso   1.00
H37    H     0.10786   0.31283   0.46960   0.00000  Uiso   1.00
H38    H     0.08054   0.31808   0.42736   0.00000  Uiso   1.00
H39    H     0.13349   0.27114   0.39587   0.00000  Uiso   1.00
H40    H     0.08012   0.24274   0.40354   0.00000  Uiso   1.00
H41    H     0.32038   0.13054   0.27934   0.00000  Uiso   1.00
H42    H     0.20707   0.00378   0.21187   0.00000  Uiso   1.00
H43    H     0.12462   0.33115   0.28857   0.00000  Uiso   1.00
H44    H     0.17333   0.19480   0.07067   0.00000  Uiso   1.00
H45    H     0.08987   0.25404   0.01203   0.00000  Uiso   1.00
H46    H     0.14899   0.10837   0.39815   0.00000  Uiso   1.00
H47    H     0.19052   0.00506   0.04773   0.00000  Uiso   1.00
H48    H     0.16520   0.00651   0.00269   0.00000  Uiso   1.00
N49    N     0.18118   0.02049   0.41131   0.00000  Uiso   1.00
N50    N     0.08700   0.20591   0.10271   0.00000  Uiso   1.00
N51    N     0.04222   0.24147   0.19646   0.00000  Uiso   1.00
O52    O     0.16667   0.16667   0.25000   0.00000  Uiso   1.00
O53    O     0.15451   0.12637   0.15458   0.00000  Uiso   1.00
O54    O     0.12940   0.20391   0.34968   0.00000  Uiso   1.00
O55    O     0.20824   0.17759   0.14606   0.00000  Uiso   1.00
O56    O     0.17451   0.15880   0.34968   0.00000  Uiso   1.00
O57    O     0.17930   0.08019   0.28213   0.00000  Uiso   1.00
O58    O     0.14632   0.26085   0.27014   0.00000  Uiso   1.00
O59    O     0.07412   0.13291   0.23413   0.00000  Uiso   1.00
O60    O     0.26693   0.19272   0.21360   0.00000  Uiso   1.00
O61    O     0.07071   0.18878   0.28213   0.00000  Uiso   1.00
O62    O     0.25491   0.15226   0.27013   0.00000  Uiso   1.00
O63    O     0.13760   0.06944   0.23413   0.00000  Uiso   1.00
O64    O     0.20345   0.25620   0.21361   0.00000  Uiso   1.00
Zn65   Zn    0.19338   0.13994   0.28734   0.00000  Uiso   1.00
Zn66   Zn    0.13379   0.12458   0.21876   0.00000  Uiso   1.00
Zn67   Zn    0.21056   0.19775   0.20657   0.00000  Uiso   1.00
Zn68   Zn    0.12893   0.20439   0.28734   0.00000  Uiso   1.00
C69    C     0.38599   0.15911   0.26035   0.00000  Uiso   1.00
C70    C     0.51141   0.16348   0.05613   0.00000  Uiso   1.00
C71    C     0.53774   0.09973   0.06163   0.00000  Uiso   1.00
C72    C     0.61404   0.17458   0.24066   0.00000  Uiso   1.00
C73    C     0.47082   0.19059   0.42205   0.00000  Uiso   1.00
C74    C     0.65948   0.18096   0.23969   0.00000  Uiso   1.00
C75    C     0.34101   0.15635   0.26246   0.00000  Uiso   1.00
C76    C     0.51381   0.32248   0.23669   0.00000  Uiso   1.00
C77    C     0.48500   0.01168   0.26375   0.00000  Uiso   1.00
C78    C     0.48936   0.05581   0.26021   0.00000  Uiso   1.00
C79    C     0.50990   0.27790   0.24021   0.00000  Uiso   1.00
C80    C     0.44184   0.23017   0.49278   0.00000  Uiso   1.00
C81    C     0.51849   0.14788   0.12922   0.00000  Uiso   1.00
C82    C     0.48107   0.18422   0.37157   0.00000  Uiso   1.00
C83    C     0.53627   0.08591   0.01727   0.00000  Uiso   1.00
C84    C     0.52531   0.13814   0.08085   0.00000  Uiso   1.00
C85    C     0.45109   0.22615   0.44564   0.00000  Uiso   1.00
C86    C     0.51104   0.05348   0.42955   0.00000  Uiso   1.00
C87    C     0.55869   0.04780   0.49764   0.00000  Uiso   1.00
C88    C     0.52977   0.00744   0.01099   0.00000  Uiso   1.00
C89    C     0.43808   0.25844   0.42104   0.00000  Uiso   1.00
C90    C     0.41906   0.29602   0.44972   0.00000  Uiso   1.00
C91    C     0.45527   0.20334   0.01665   0.00000  Uiso   1.00
C92    C     0.43594   0.20482   0.06449   0.00000  Uiso   1.00
C93    C     0.35367   0.21451   0.21549   0.00000  Uiso   1.00
C94    C     0.48038   0.17169   0.49349   0.00000  Uiso   1.00
C95    C     0.48168   0.16159   0.44746   0.00000  Uiso   1.00
C96    C     0.50197   0.14807   0.01482   0.00000  Uiso   1.00
C97    C     0.51568   0.10899   0.49381   0.00000  Uiso   1.00
C98    C     0.50663   0.09494   0.45147   0.00000  Uiso   1.00
C99    C     0.49063   0.12128   0.42909   0.00000  Uiso   1.00
H100   H     0.54945   0.08067   0.08127   0.00000  Uiso   1.00
H101   H     0.54547   0.31348   0.49284   0.00000  Uiso   1.00
H102   H     0.57186   0.04760   0.46085   0.00000  Uiso   1.00
H103   H     0.58768   0.04899   0.01066   0.00000  Uiso   1.00
H104   H     0.38757   0.28590   0.47242   0.00000  Uiso   1.00
H105   H     0.44120   0.31283   0.46960   0.00000  Uiso   1.00
H106   H     0.41387   0.31808   0.42736   0.00000  Uiso   1.00
H107   H     0.46683   0.27114   0.39587   0.00000  Uiso   1.00
H108   H     0.41345   0.24274   0.40354   0.00000  Uiso   1.00
H109   H     0.65371   0.13054   0.27934   0.00000  Uiso   1.00
H110   H     0.54040   0.00378   0.21187   0.00000  Uiso   1.00
H111   H     0.45795   0.33115   0.28857   0.00000  Uiso   1.00
H112   H     0.50666   0.19480   0.07067   0.00000  Uiso   1.00
H113   H     0.42321   0.25404   0.01203   0.00000  Uiso   1.00
H114   H     0.48233   0.10837   0.39815   0.00000  Uiso   1.00
H115   H     0.52385   0.00506   0.04773   0.00000  Uiso   1.00
H116   H     0.49853   0.00651   0.00269   0.00000  Uiso   1.00
N117   N     0.51451   0.02049   0.41131   0.00000  Uiso   1.00
N118   N     0.42033   0.20591   0.10271   0.00000  Uiso   1.00
N119   N     0.37555   0.24147   0.19646   0.00000  Uiso   1.00
O120   O     0.50000   0.16667   0.25000   0.00000  Uiso   1.00
O121   O     0.48784   0.12637   0.15458   0.00000  Uiso   1.00
O122   O     0.46274   0.20391   0.34968   0.00000  Uiso   1.00
O123   O     0.54157   0.17759   0.14606   0.00000  Uiso   1.00
O124   O     0.50785   0.15880   0.34968   0.00000  Uiso   1.00
O125   O     0.51264   0.08019   0.28213   0.00000  Uiso   1.00
O126   O     0.47965   0.26085   0.27014   0.00000  Uiso   1.00
O127   O     0.40745   0.13291   0.23413   0.00000  Uiso   1.00
O128   O     0.60026   0.19272   0.21360   0.00000  Uiso   1.00
O129   O     0.40405   0.18878   0.28213   0.00000  Uiso   1.00
O130   O     0.58824   0.15226   0.27013   0.00000  Uiso   1.00
O131   O     0.47093   0.06944   0.23413   0.00000  Uiso   1.00
O132   O     0.53678   0.25620   0.21361   0.00000  Uiso   1.00
Zn133  Zn    0.52672   0.13994   0.28734   0.00000  Uiso   1.00
Zn134  Zn    0.46713   0.12458   0.21876   0.00000  Uiso   1.00
Zn135  Zn    0.54389   0.19775   0.20657   0.00000  Uiso   1.00
Zn136  Zn    0.46226   0.20439   0.28734   0.00000  Uiso   1.00
C137   C     0.71932   0.15911   0.26035   0.00000  Uiso   1.00
C138   C     0.84474   0.16348   0.05613   0.00000  Uiso   1.00
C139   C     0.87108   0.09973   0.06163   0.00000  Uiso   1.00
C140   C     0.94738   0.17458   0.24066   0.00000  Uiso   1.00
C141   C     0.80415   0.19059   0.42205   0.00000  Uiso   1.00
C142   C     0.99281   0.18096   0.23969   0.00000  Uiso   1.00
C143   C     0.67435   0.15635   0.26246   0.00000  Uiso   1.00
C144   C     0.84715   0.32248   0.23669   0.00000  Uiso   1.00
C145   C     0.81834   0.01168   0.26375   0.00000  Uiso   1.00
C146   C     0.82269   0.05581   0.26021   0.00000  Uiso   1.00
C147   C     0.84323   0.27790   0.24021   0.00000  Uiso   1.00
C148   C     0.77517   0.23017   0.49278   0.00000  Uiso   1.00
C149   C     0.85182   0.14788   0.12922   0.00000  Uiso   1.00
C150   C     0.81441   0.18422   0.37157   0.00000  Uiso   1.00
C151   C     0.86960   0.08591   0.01727   0.00000  Uiso   1.00
C152   C     0.85864   0.13814   0.08085   0.00000  Uiso   1.00
C153   C     0.78442   0.22615   0.44564   0.00000  Uiso   1.00
C154   C     0.84438   0.05348   0.42955   0.00000  Uiso   1.00
C155   C     0.89203   0.04780   0.49764   0.00000  Uiso   1.00
C156   C     0.86310   0.00744   0.01099   0.00000  Uiso   1.00
C157   C     0.77141   0.25844   0.42104   0.00000  Uiso   1.00
C158   C     0.75239   0.29602   0.44972   0.00000  Uiso   1.00
C159   C     0.78860   0.20334   0.01665   0.00000  Uiso   1.00
C160   C     0.76927   0.20482   0.06449   0.00000  Uiso   1.00
C161   C     0.68700   0.21451   0.21549   0.00000  Uiso   1.00
C162   C     0.81371   0.17169   0.49349   0.00000  Uiso   1.00
C163   C     0.81501   0.16159   0.44746   0.00000  Uiso   1.00
C164   C     0.83531   0.14807   0.01482   0.00000  Uiso   1.00
C165   C     0.84901   0.10899   0.49381   0.00000  Uiso   1.00
C166   C     0.83996   0.09494   0.45147   0.00000  Uiso   1.00
C167   C     0.82396   0.12128   0.42909   0.00000  Uiso   1.00
H168   H     0.88279   0.08067   0.08127   0.00000  Uiso   1.00
H169   H     0.87880   0.31348   0.49284   0.00000  Uiso   1.00
H170   H     0.90519   0.04760   0.46085   0.00000  Uiso   1.00
H171   H     0.92102   0.04899   0.01066   0.00000  Uiso   1.00
H172   H     0.72090   0.28590   0.47242   0.00000  Uiso   1.00
H173   H     0.77453   0.31283   0.46960   0.00000  Uiso   1.00
H174   H     0.74720   0.31808   0.42736   0.00000  Uiso   1.00
H175   H     0.80016   0.27114   0.39587   0.00000  Uiso   1.00
H176   H     0.74679   0.24274   0.40354   0.00000  Uiso   1.00
H177   H     0.98705   0.13054   0.27934   0.00000  Uiso   1.00
H178   H     0.87374   0.00378   0.21187   0.00000  Uiso   1.00
H179   H     0.79129   0.33115   0.28857   0.00000  Uiso   1.00
H180   H     0.83999   0.19480   0.07067   0.00000  Uiso   1.00
H181   H     0.75654   0.25404   0.01203   0.00000  Uiso   1.00
H182   H     0.81566   0.10837   0.39815   0.00000  Uiso   1.00
H183   H     0.85718   0.00506   0.04773   0.00000  Uiso   1.00
H184   H     0.83187   0.00651   0.00269   0.00000  Uiso   1.00
N185   N     0.84785   0.02049   0.41131   0.00000  Uiso   1.00
N186   N     0.75366   0.20591   0.10271   0.00000  Uiso   1.00
N187   N     0.70888   0.24147   0.19646   0.00000  Uiso   1.00
O188   O     0.83333   0.16667   0.25000   0.00000  Uiso   1.00
O189   O     0.82118   0.12637   0.15458   0.00000  Uiso   1.00
O190   O     0.79607   0.20391   0.34968   0.00000  Uiso   1.00
O191   O     0.87491   0.17759   0.14606   0.00000  Uiso   1.00
O192   O     0.84118   0.15880   0.34968   0.00000  Uiso   1.00
O193   O     0.84597   0.08019   0.28213   0.00000  Uiso   1.00
O194   O     0.81298   0.26085   0.27014   0.00000  Uiso   1.00
O195   O     0.74078   0.13291   0.23413   0.00000  Uiso   1.00
O196   O     0.93360   0.19272   0.21360   0.00000  Uiso   1.00
O197   O     0.73738   0.18878   0.28213   0.00000  Uiso   1.00
O198   O     0.92158   0.15226   0.27013   0.00000  Uiso   1.00
O199   O     0.80426   0.06944   0.23413   0.00000  Uiso   1.00
O200   O     0.87012   0.25620   0.21361   0.00000  Uiso   1.00
Zn201  Zn    0.86005   0.13994   0.28734   0.00000  Uiso   1.00
Zn202  Zn    0.80046   0.12458   0.21876   0.00000  Uiso   1.00
Zn203  Zn    0.87723   0.19775   0.20657   0.00000  Uiso   1.00
Zn204  Zn    0.79560   0.20439   0.28734   0.00000  Uiso   1.00
C205   C     0.05265   0.49244   0.26035   0.00000  Uiso   1.00
C206   C     0.17808   0.49681   0.05613   0.00000  Uiso   1.00
C207   C     0.20441   0.43307   0.06163   0.00000  Uiso   1.00
C208   C     0.28071   0.50791   0.24066   0.00000  Uiso   1.00
C209   C     0.13748   0.52393   0.42205   0.00000  Uiso   1.00
C210   C     0.32615   0.51429   0.23969   0.00000  Uiso   1.00
C211   C     0.00768   0.48969   0.26246   0.00000  Uiso   1.00
C212   C     0.18048   0.65582   0.23669   0.00000  Uiso   1.00
C213   C     0.15167   0.34501   0.26375   0.00000  Uiso   1.00
C214   C     0.15603   0.38914   0.26021   0.00000  Uiso   1.00
C215   C     0.17656   0.61123   0.24021   0.00000  Uiso   1.00
C216   C     0.10850   0.56351   0.49278   0.00000  Uiso   1.00
C217   C     0.18516   0.48121   0.12922   0.00000  Uiso   1.00
C218   C     0.14774   0.51755   0.37157   0.00000  Uiso   1.00
C219   C     0.20294   0.41925   0.01727   0.00000  Uiso   1.00
C220   C     0.19198   0.47147   0.08085   0.00000  Uiso   1.00
C221   C     0.11775   0.55949   0.44564   0.00000  Uiso   1.00
C222   C     0.17771   0.38681   0.42955   0.00000  Uiso   1.00
C223   C     0.22536   0.38113   0.49764   0.00000  Uiso   1.00
C224   C     0.19643   0.34077   0.01099   0.00000  Uiso   1.00
C225   C     0.10475   0.59178   0.42104   0.00000  Uiso   1.00
C226   C     0.08573   0.62935   0.44972   0.00000  Uiso   1.00
C227   C     0.12193   0.53667   0.01665   0.00000  Uiso   1.00
C228   C     0.10261   0.53815   0.06449   0.00000  Uiso   1.00
C229   C     0.02033   0.54785   0.21549   0.00000  Uiso   1.00
C230   C     0.14704   0.50502   0.49349   0.00000  Uiso   1.00
C231   C     0.14835   0.49493   0.44746   0.00000  Uiso   1.00
C232   C     0.16864   0.48140   0.01482   0.00000  Uiso   1.00
C233   C     0.18234   0.44232   0.49381   0.00000  Uiso   1.00
C234   C     0.17330   0.42827   0.45147   0.00000  Uiso   1.00
C235   C     0.15729   0.45461   0.42909   0.00000  Uiso   1.00
H236   H     0.21612   0.41400   0.08127   0.00000  Uiso   1.00
H237   H     0.21214   0.64681   0.49284   0.00000  Uiso   1.00
H238   H     0.23852   0.38093   0.46085   0.00000  Uiso   1.00
H239   H     0.25435   0.38232   0.01066   0.00000  Uiso   1.00
H240   H     0.05424   0.61923   0.47242   0.00000  Uiso   1.00
H241   H     0.10786   0.64616   0.46960   0.00000  Uiso   1.00
H242   H     0.08054   0.65142   0.42736   0.00000  Uiso   1.00
H243   H     0.13349   0.60447   0.39587   0.00000  Uiso   1.00
H244   H     0.08012   0.57607   0.40354   0.00000  Uiso   1.00
H245   H     0.32038   0.46387   0.27934   0.00000  Uiso   1.00
H246   H     0.20707   0.33712   0.21187   0.00000  Uiso   1.00
H247   H     0.12462   0.66448   0.28857   0.00000  Uiso   1.00
H248   H     0.17333   0.52814   0.07067   0.00000  Uiso   1.00
H249   H     0.08987   0.58738   0.01203   0.00000  Uiso   1.00
H250   H     0.14899   0.44170   0.39815   0.00000  Uiso   1.00
H251   H     0.19052   0.33840   0.04773   0.00000  Uiso   1.00
H252   H     0.16520   0.33985   0.00269   0.00000  Uiso   1.00
N253   N     0.18118   0.35382   0.41131   0.00000  Uiso   1.00
N254   N     0.08700   0.53924   0.10271   0.00000  Uiso   1.00
N255   N     0.04222   0.57480   0.19646   0.00000  Uiso   1.00
O256   O     0.16667   0.50000   0.25000   0.00000  Uiso   1.00
O257   O     0.15451   0.45970   0.15458   0.00000  Uiso   1.00
O258   O     0.12940   0.53724   0.34968   0.00000  Uiso   1.00
O259   O     0.20824   0.51092   0.14606   0.00000  Uiso   1.00
O260   O     0.17451   0.49213   0.34968   0.00000  Uiso   1.00
O261   O     0.17930   0.41352   0.28213   0.00000  Uiso   1.00
O262   O     0.14632   0.59418   0.27014   0.00000  Uiso   1.00
O263   O     0.07412   0.46625   0.23413   0.00000  Uiso   1.00
O264   O     0.26693   0.52605   0.21360   0.00000  Uiso   1.00
O265   O     0.07071   0.52211   0.28213   0.00000  Uiso   1.00
O266   O     0.25491   0.48559   0.27013   0.00000  Uiso   1.00
O267   O     0.13760   0.40277   0.23413   0.00000  Uiso   1.00
O268   O     0.20345   0.58953   0.21361   0.00000  Uiso   1.00
Zn269  Zn    0.19338   0.47327   0.28734   0.00000  Uiso   1.00
Zn270  Zn    0.13379   0.45791   0.21876   0.00000  Uiso   1.00
Zn271  Zn    0.21056   0.53109   0.20657   0.00000  Uiso   1.00
Zn272  Zn    0.12893   0.53773   0.28734   0.00000  Uiso   1.00
C273   C     0.38599   0.49244   0.26035   0.00000  Uiso   1.00
C274   C     0.51141   0.49681   0.05613   0.00000  Uiso   1.00
C275   C     0.53774   0.43307   0.06163   0.00000  Uiso   1.00
C276   C     0.61404   0.50791   0.24066   0.00000  Uiso   1.00
C277   C     0.47082   0.52393   0.42205   0.00000  Uiso   1.00
C278   C     0.65948   0.51429   0.23969   0.00000  Uiso   1.00
C279   C     0.34101   0.48969   0.26246   0.00000  Uiso   1.00
C280   C     0.51381   0.65582   0.23669   0.00000  Uiso   1.00
C281   C     0.48500   0.34501   0.26375   0.00000  Uiso   1.00
C282   C     0.48936   0.38914   0.26021   0.00000  Uiso   1.00
C283   C     0.50990   0.61123   0.24021   0.00000  Uiso   1.00
C284   C     0.44184   0.56351   0.49278   0.00000  Uiso   1.00
C285   C     0.51849   0.48121   0.12922   0.00000  Uiso   1.00
C286   C     0.48107   0.51755   0.37157   0.00000  Uiso   1.00
C287   C     0.53627   0.41925   0.01727   0.00000  Uiso   1.00
C288   C     0.52531   0.47147   0.08085   0.00000  Uiso   1.00
C289   C     0.45109   0.55949   0.44564   0.00000  Uiso   1.00
C290   C     0.51104   0.38681   0.42955   0.00000  Uiso   1.00
C291   C     0.55869   0.38113   0.49764   0.00000  Uiso   1.00
C292   C     0.52977   0.34077   0.01099   0.00000  Uiso   1.00
C293   C     0.43808   0.59178   0.42104   0.00000  Uiso   1.00
C294   C     0.41906   0.62935   0.44972   0.00000  Uiso   1.00
C295   C     0.45527   0.53667   0.01665   0.00000  Uiso   1.00
C296   C     0.43594   0.53815   0.06449   0.00000  Uiso   1.00
C297   C     0.35367   0.54785   0.21549   0.00000  Uiso   1.00
C298   C     0.48038   0.50502   0.49349   0.00000  Uiso   1.00
C299   C     0.48168   0.49493   0.44746   0.00000  Uiso   1.00
C300   C     0.50197   0.48140   0.01482   0.00000  Uiso   1.00
C301   C     0.51568   0.44232   0.49381   0.00000  Uiso   1.00
C302   C     0.50663   0.42827   0.45147   0.00000  Uiso   1.00
C303   C     0.49063   0.45461   0.42909   0.00000  Uiso   1.00
H304   H     0.54945   0.41400   0.08127   0.00000  Uiso   1.00
H305   H     0.54547   0.64681   0.49284   0.00000  Uiso   1.00
H306   H     0.57186   0.38093   0.46085   0.00000  Uiso   1.00
H307   H     0.58768   0.38232   0.01066   0.00000  Uiso   1.00
H308   H     0.38757   0.61923   0.47242   0.00000  Uiso   1.00
H309   H     0.44120   0.64616   0.46960   0.00000  Uiso   1.00
H310   H     0.41387   0.65142   0.42736   0.00000  Uiso   1.00
H311   H     0.46683   0.60447   0.39587   0.00000  Uiso   1.00
H312   H     0.41345   0.57607   0.40354   0.00000  Uiso   1.00
H313   H     0.65371   0.46387   0.27934   0.00000  Uiso   1.00
H314   H     0.54040   0.33712   0.21187   0.00000  Uiso   1.00
H315   H     0.45795   0.66448   0.28857   0.00000  Uiso   1.00
H316   H     0.50666   0.52814   0.07067   0.00000  Uiso   1.00
H317   H     0.42321   0.58738   0.01203   0.00000  Uiso   1.00
H318   H     0.48233   0.44170   0.39815   0.00000  Uiso   1.00
H319   H     0.52385   0.33840   0.04773   0.00000  Uiso   1.00
H320   H     0.49853   0.33985   0.00269   0.00000  Uiso   1.00
N321   N     0.51451   0.35382   0.41131   0.00000  Uiso   1.00
N322   N     0.42033   0.53924   0.10271   0.00000  Uiso   1.00
N323   N     0.37555   0.57480   0.19646   0.00000  Uiso   1.00
O324   O     0.50000   0.50000   0.25000   0.00000  Uiso   1.00
O325   O     0.48784   0.45970   0.15458   0.00000  Uiso   1.00
O326   O     0.46274   0.53724   0.34968   0.00000  Uiso   1.00
O327   O     0.54157   0.51092   0.14606   0.00000  Uiso   1.00
O328   O     0.50785   0.49213   0.34968   0.00000  Uiso   1.00
O329   O     0.51264   0.41352   0.28213   0.00000  Uiso   1.00
O330   O     0.47965   0.59418   0.27014   0.00000  Uiso   1.00
O331   O     0.40745   0.46625   0.23413   0.00000  Uiso   1.00
O332   O     0.60026   0.52605   0.21360   0.00000  Uiso   1.00
O333   O     0.40405   0.52211   0.28213   0.00000  Uiso   1.00
O334   O     0.58824   0.48559   0.27013   0.00000  Uiso   1.00
O335   O     0.47093   0.40277   0.23413   0.00000  Uiso   1.00
O336   O     0.53678   0.58953   0.21361   0.00000  Uiso   1.00
Zn337  Zn    0.52672   0.47327   0.28734   0.00000  Uiso   1.00
Zn338  Zn    0.46713   0.45791   0.21876   0.00000  Uiso   1.00
Zn339  Zn    0.54389   0.53109   0.20657   0.00000  Uiso   1.00
Zn340  Zn    0.46226   0.53773   0.28734   0.00000  Uiso   1.00
C341   C     0.71932   0.49244   0.26035   0.00000  Uiso   1.00
C342   C     0.84474   0.49681   0.05613   0.00000  Uiso   1.00
C343   C     0.87108   0.43307   0.06163   0.00000  Uiso   1.00
C344   C     0.94738   0.50791   0.24066   0.00000  Uiso   1.00
C345   C     0.80415   0.52393   0.42205   0.00000  Uiso   1.00
C346   C     0.99281   0.51429   0.23969   0.00000  Uiso   1.00
C347   C     0.67435   0.48969   0.26246   0.00000  Uiso   1.00
C348   C     0.84715   0.65582   0.23669   0.00000  Uiso   1.00
C349   C     0.81834   0.34501   0.26375   0.00000  Uiso   1.00
C350   C     0.82269   0.38914   0.26021   0.00000  Uiso   1.00
C351   C     0.84323   0.61123   0.24021   0.00000  Uiso   1.00
C352   C     0.77517   0.56351   0.49278   0.00000  Uiso   1.00
C353   C     0.85182   0.48121   0.12922   0.00000  Uiso   1.00
C354   C     0.81441   0.51755   0.37157   0.00000  Uiso   1.00
C355   C     0.86960   0.41925   0.01727   0.00000  Uiso   1.00
C356   C     0.85864   0.47147   0.08085   0.00000  Uiso   1.00
C357   C     0.78442   0.55949   0.44564   0.00000  Uiso   1.00
C358   C     0.84438   0.38681   0.42955   0.00000  Uiso   1.00
C359   C     0.89203   0.38113   0.49764   0.00000  Uiso   1.00
C360   C     0.86310   0.34077   0.01099   0.00000  Uiso   1.00
C361   C     0.77141   0.59178   0.42104   0.00000  Uiso   1.00
C362   C     0.75239   0.62935   0.44972   0.00000  Uiso   1.00
C363   C     0.78860   0.53667   0.01665   0.00000  Uiso   1.00
C364   C     0.76927   0.53815   0.06449   0.00000  Uiso   1.00
C365   C     0.68700   0.54785   0.21549   0.00000  Uiso   1.00
C366   C     0.81371   0.50502   0.49349   0.00000  Uiso   1.00
C367   C     0.81501   0.49493   0.44746   0.00000  Uiso   1.00
C368   C     0.83531   0.48140   0.01482   0.00000  Uiso   1.00
C369   C     0.84901   0.44232   0.49381   0.00000  Uiso   1.00
C370   C     0.83996   0.42827   0.45147   0.00000  Uiso   1.00
C371   C     0.82396   0.45461   0.42909   0.00000  Uiso   1.00
H372   H     0.88279   0.41400   0.08127   0.00000  Uiso   1.00
H373   H     0.87880   0.64681   0.49284   0.00000  Uiso   1.00
H374   H     0.90519   0.38093   0.46085   0.00000  Uiso   1.00
H375   H     0.92102   0.38232   0.01066   0.00000  Uiso   1.00
H376   H     0.72090   0.61923   0.47242   0.00000  Uiso   1.00
H377   H     0.77453   0.64616   0.46960   0.00000  Uiso   1.00
H378   H     0.74720   0.65142   0.42736   0.00000  Uiso   1.00
H379   H     0.80016   0.60447   0.39587   0.00000  Uiso   1.00
H380   H     0.74679   0.57607   0.40354   0.00000  Uiso   1.00
H381   H     0.98705   0.46387   0.27934   0.00000  Uiso   1.00
H382   H     0.87374   0.33712   0.21187   0.00000  Uiso   1.00
H383   H     0.79129   0.66448   0.28857   0.00000  Uiso   1.00
H384   H     0.83999   0.52814   0.07067   0.00000  Uiso   1.00
H385   H     0.75654   0.58738   0.01203   0.00000  Uiso   1.00
H386   H     0.81566   0.44170   0.39815   0.00000  Uiso   1.00
H387   H     0.85718   0.33840   0.04773   0.00000  Uiso   1.00
H388   H     0.83187   0.33985   0.00269   0.00000  Uiso   1.00
N389   N     0.84785   0.35382   0.41131   0.00000  Uiso   1.00
N390   N     0.75366   0.53924   0.10271   0.00000  Uiso   1.00
N391   N     0.70888   0.57480   0.19646   0.00000  Uiso   1.00
O392   O     0.83333   0.50000   0.25000   0.00000  Uiso   1.00
O393   O     0.82118   0.45970   0.15458   0.00000  Uiso   1.00
O394   O     0.79607   0.53724   0.34968   0.00000  Uiso   1.00
O395   O     0.87491   0.51092   0.14606   0.00000  Uiso   1.00
O396   O     0.84118   0.49213   0.34968   0.00000  Uiso   1.00
O397   O     0.84597   0.41352   0.28213   0.00000  Uiso   1.00
O398   O     0.81298   0.59418   0.27014   0.00000  Uiso   1.00
O399   O     0.74078   0.46625   0.23413   0.00000  Uiso   1.00
O400   O     0.93360   0.52605   0.21360   0.00000  Uiso   1.00
O401   O     0.73738   0.52211   0.28213   0.00000  Uiso   1.00
O402   O     0.92158   0.48559   0.27013   0.00000  Uiso   1.00
O403   O     0.80426   0.40277   0.23413   0.00000  Uiso   1.00
O404   O     0.87012   0.58953   0.21361   0.00000  Uiso   1.00
Zn405  Zn    0.86005   0.47327   0.28734   0.00000  Uiso   1.00
Zn406  Zn    0.80046   0.45791   0.21876   0.00000  Uiso   1.00
Zn407  Zn    0.87723   0.53109   0.20657   0.00000  Uiso   1.00
Zn408  Zn    0.79560   0.53773   0.28734   0.00000  Uiso   1.00
C409   C     0.05265   0.82577   0.26035   0.00000  Uiso   1.00
C410   C     0.17808   0.83015   0.05613   0.00000  Uiso   1.00
C411   C     0.20441   0.76640   0.06163   0.00000  Uiso   1.00
C412   C     0.28071   0.84125   0.24066   0.00000  Uiso   1.00
C413   C     0.13748   0.85726   0.42205   0.00000  Uiso   1.00
C414   C     0.32615   0.84762   0.23969   0.00000  Uiso   1.00
C415   C     0.00768   0.82302   0.26246   0.00000  Uiso   1.00
C416   C     0.18048   0.98915   0.23669   0.00000  Uiso   1.00
C417   C     0.15167   0.67834   0.26375   0.00000  Uiso   1.00
C418   C     0.15603   0.72248   0.26021   0.00000  Uiso   1.00
C419   C     0.17656   0.94456   0.24021   0.00000  Uiso   1.00
C420   C     0.10850   0.89684   0.49278   0.00000  Uiso   1.00
C421   C     0.18516   0.81454   0.12922   0.00000  Uiso   1.00
C422   C     0.14774   0.85088   0.37157   0.00000  Uiso   1.00
C423   C     0.20294   0.75258   0.01727   0.00000  Uiso   1.00
C424   C     0.19198   0.80481   0.08085   0.00000  Uiso   1.00
C425   C     0.11775   0.89282   0.44564   0.00000  Uiso   1.00
C426   C     0.17771   0.72014   0.42955   0.00000  Uiso   1.00
C427   C     0.22536   0.71446   0.49764   0.00000  Uiso   1.00
C428   C     0.19643   0.67410   0.01099   0.00000  Uiso   1.00
C429   C     0.10475   0.92511   0.42104   0.00000  Uiso   1.00
C430   C     0.08573   0.96268   0.44972   0.00000  Uiso   1.00
C431   C     0.12193   0.87001   0.01665   0.00000  Uiso   1.00
C432   C     0.10261   0.87149   0.06449   0.00000  Uiso   1.00
C433   C     0.02033   0.88118   0.21549   0.00000  Uiso   1.00
C434   C     0.14704   0.83835   0.49349   0.00000  Uiso   1.00
C435   C     0.14835   0.82826   0.44746   0.00000  Uiso   1.00
C436   C     0.16864   0.81474   0.01482   0.00000  Uiso   1.00
C437   C     0.18234   0.77566   0.49381   0.00000  Uiso   1.00
C438   C     0.17330   0.76160   0.45147   0.00000  Uiso   1.00
C439   C     0.15729   0.78795   0.42909   0.00000  Uiso   1.00
H440   H     0.21612   0.74734   0.08127   0.00000  Uiso   1.00
H441   H     0.21214   0.98015   0.49284   0.00000  Uiso   1.00
H442   H     0.23852   0.71427   0.46085   0.00000  Uiso   1.00
H443   H     0.25435   0.71565   0.01066   0.00000  Uiso   1.00
H444   H     0.05424   0.95257   0.47242   0.00000  Uiso   1.00
H445   H     0.10786   0.97950   0.46960   0.00000  Uiso   1.00
H446   H     0.08054   0.98475   0.42736   0.00000  Uiso   1.00
H447   H     0.13349   0.93781   0.39587   0.00000  Uiso   1.00
H448   H     0.08012   0.90941   0.40354   0.00000  Uiso   1.00
H449   H     0.32038   0.79720   0.27934   0.00000  Uiso   1.00
H450   H     0.20707   0.67045   0.21187   0.00000  Uiso   1.00
H451   H     0.12462   0.99781   0.28857   0.00000  Uiso   1.00
H452   H     0.17333   0.86147   0.07067   0.00000  Uiso   1.00
H453   H     0.08987   0.92071   0.01203   0.00000  Uiso   1.00
H454   H     0.14899   0.77504   0.39815   0.00000  Uiso   1.00
H455   H     0.19052   0.67173   0.04773   0.00000  Uiso   1.00
H456   H     0.16520   0.67318   0.00269   0.00000  Uiso   1.00
N457   N     0.18118   0.68715   0.41131   0.00000  Uiso   1.00
N458   N     0.08700   0.87258   0.10271   0.00000  Uiso   1.00
N459   N     0.04222   0.90814   0.19646   0.00000  Uiso   1.00
O460   O     0.16667   0.83333   0.25000   0.00000  Uiso   1.00
O461   O     0.15451   0.79304   0.15458   0.00000  Uiso   1.00
O462   O     0.12940   0.87058   0.34968   0.00000  Uiso   1.00
O463   O     0.20824   0.84425   0.14606   0.00000  Uiso   1.00
O464   O     0.17451   0.82546   0.34968   0.00000  Uiso   1.00
O465   O     0.17930   0.74686   0.28213   0.00000  Uiso   1.00
O466   O     0.14632   0.92751   0.27014   0.00000  Uiso   1.00
O467   O     0.07412   0.79958   0.23413   0.00000  Uiso   1.00
O468   O     0.26693   0.85939   0.21360   0.00000  Uiso   1.00
O469   O     0.07071   0.85544   0.28213   0.00000  Uiso   1.00
O470   O     0.25491   0.81892   0.27013   0.00000  Uiso   1.00
O471   O     0.13760   0.73610   0.23413   0.00000  Uiso   1.00
O472   O     0.20345   0.92286   0.21361   0.00000  Uiso   1.00
Zn473  Zn    0.19338   0.80661   0.28734   0.00000  Uiso   1.00
Zn474  Zn    0.13379   0.79124   0.21876   0.00000  Uiso   1.00
Zn475  Zn    0.21056   0.86442   0.20657   0.00000  Uiso   1.00
Zn476  Zn    0.12893   0.87106   0.28734   0.00000  Uiso   1.00
C477   C     0.38599   0.82577   0.26035   0.00000  Uiso   1.00
C478   C     0.51141   0.83015   0.05613   0.00000  Uiso   1.00
C479   C     0.53774   0.76640   0.06163   0.00000  Uiso   1.00
C480   C     0.61404   0.84125   0.24066   0.00000  Uiso   1.00
C481   C     0.47082   0.85726   0.42205   0.00000  Uiso   1.00
C482   C     0.65948   0.84762   0.23969   0.00000  Uiso   1.00
C483   C     0.34101   0.82302   0.26246   0.00000  Uiso   1.00
C484   C     0.51381   0.98915   0.23669   0.00000  Uiso   1.00
C485   C     0.48500   0.67834   0.26375   0.00000  Uiso   1.00
C486   C     0.48936   0.72248   0.26021   0.00000  Uiso   1.00
C487   C     0.50990   0.94456   0.24021   0.00000  Uiso   1.00
C488   C     0.44184   0.89684   0.49278   0.00000  Uiso   1.00
C489   C     0.51849   0.81454   0.12922   0.00000  Uiso   1.00
C490   C     0.48107   0.85088   0.37157   0.00000  Uiso   1.00
C491   C     0.53627   0.75258   0.01727   0.00000  Uiso   1.00
C492   C     0.52531   0.80481   0.08085   0.00000  Uiso   1.00
C493   C     0.45109   0.89282   0.44564   0.00000  Uiso   1.00
C494   C     0.51104   0.72014   0.42955   0.00000  Uiso   1.00
C495   C     0.55869   0.71446   0.49764   0.00000  Uiso   1.00
C496   C     0.52977   0.67410   0.01099   0.00000  Uiso   1.00
C497   C     0.43808   0.92511   0.42104   0.00000  Uiso   1.00
C498   C     0.41906   0.96268   0.44972   0.00000  Uiso   1.00
C499   C     0.45527   0.87001   0.01665   0.00000  Uiso   1.00
C500   C     0.43594   0.87149   0.06449   0.00000  Uiso   1.00
C501   C     0.35367   0.88118   0.21549   0.00000  Uiso   1.00
C502   C     0.48038   0.83835   0.49349   0.00000  Uiso   1.00
C503   C     0.48168   0.82826   0.44746   0.00000  Uiso   1.00
C504   C     0.50197   0.81474   0.01482   0.00000  Uiso   1.00
C505   C     0.51568   0.77566   0.49381   0.00000  Uiso   1.00
C506   C     0.50663   0.76160   0.45147   0.00000  Uiso   1.00
C507   C     0.49063   0.78795   0.42909   0.00000  Uiso   1.00
H508   H     0.54945   0.74734   0.08127   0.00000  Uiso   1.00
H509   H     0.54547   0.98015   0.49284   0.00000  Uiso   1.00
H510   H     0.57186   0.71427   0.46085   0.00000  Uiso   1.00
H511   H     0.58768   0.71565   0.01066   0.00000  Uiso   1.00
H512   H     0.38757   0.95257   0.47242   0.00000  Uiso   1.00
H513   H     0.44120   0.97950   0.46960   0.00000  Uiso   1.00
H514   H     0.41387   0.98475   0.42736   0.00000  Uiso   1.00
H515   H     0.46683   0.93781   0.39587   0.00000  Uiso   1.00
H516   H     0.41345   0.90941   0.40354   0.00000  Uiso   1.00
H517   H     0.65371   0.79720   0.27934   0.00000  Uiso   1.00
H518   H     0.54040   0.67045   0.21187   0.00000  Uiso   1.00
H519   H     0.45795   0.99781   0.28857   0.00000  Uiso   1.00
H520   H     0.50666   0.86147   0.07067   0.00000  Uiso   1.00
H521   H     0.42321   0.92071   0.01203   0.00000  Uiso   1.00
H522   H     0.48233   0.77504   0.39815   0.00000  Uiso   1.00
H523   H     0.52385   0.67173   0.04773   0.00000  Uiso   1.00
H524   H     0.49853   0.67318   0.00269   0.00000  Uiso   1.00
N525   N     0.51451   0.68715   0.41131   0.00000  Uiso   1.00
N526   N     0.42033   0.87258   0.10271   0.00000  Uiso   1.00
N527   N     0.37555   0.90814   0.19646   0.00000  Uiso   1.00
O528   O     0.50000   0.83333   0.25000   0.00000  Uiso   1.00
O529   O     0.48784   0.79304   0.15458   0.00000  Uiso   1.00
O530   O     0.46274   0.87058   0.34968   0.00000  Uiso   1.00
O531   O     0.54157   0.84425   0.14606   0.00000  Uiso   1.00
O532   O     0.50785   0.82546   0.34968   0.00000  Uiso   1.00
O533   O     0.51264   0.74686   0.28213   0.00000  Uiso   1.00
O534   O     0.47965   0.92751   0.27014   0.00000  Uiso   1.00
O535   O     0.40745   0.79958   0.23413   0.00000  Uiso   1.00
O536   O     0.60026   0.85939   0.21360   0.00000  Uiso   1.00
O537   O     0.40405   0.85544   0.28213   0.00000  Uiso   1.00
O538   O     0.58824   0.81892   0.27013   0.00000  Uiso   1.00
O539   O     0.47093   0.73610   0.23413   0.00000  Uiso   1.00
O540   O     0.53678   0.92286   0.21361   0.00000  Uiso   1.00
Zn541  Zn    0.52672   0.80661   0.28734   0.00000  Uiso   1.00
Zn542  Zn    0.46713   0.79124   0.21876   0.00000  Uiso   1.00
Zn543  Zn    0.54389   0.86442   0.20657   0.00000  Uiso   1.00
Zn544  Zn    0.46226   0.87106   0.28734   0.00000  Uiso   1.00
C545   C     0.71932   0.82577   0.26035   0.00000  Uiso   1.00
C546   C     0.84474   0.83015   0.05613   0.00000  Uiso   1.00
C547   C     0.87108   0.76640   0.06163   0.00000  Uiso   1.00
C548   C     0.94738   0.84125   0.24066   0.00000  Uiso   1.00
C549   C     0.80415   0.85726   0.42205   0.00000  Uiso   1.00
C550   C     0.99281   0.84762   0.23969   0.00000  Uiso   1.00
C551   C     0.67435   0.82302   0.26246   0.00000  Uiso   1.00
C552   C     0.84715   0.98915   0.23669   0.00000  Uiso   1.00
C553   C     0.81834   0.67834   0.26375   0.00000  Uiso   1.00
C554   C     0.82269   0.72248   0.26021   0.00000  Uiso   1.00
C555   C     0.84323   0.94456   0.24021   0.00000  Uiso   1.00
C556   C     0.77517   0.89684   0.49278   0.00000  Uiso   1.00
C557   C     0.85182   0.81454   0.12922   0.00000  Uiso   1.00
C558   C     0.81441   0.85088   0.37157   0.00000  Uiso   1.00
C559   C     0.86960   0.75258   0.01727   0.00000  Uiso   1.00
C560   C     0.85864   0.80481   0.08085   0.00000  Uiso   1.00
C561   C     0.78442   0.89282   0.44564   0.00000  Uiso   1.00
C562   C     0.84438   0.72014   0.42955   0.00000  Uiso   1.00
C563   C     0.89203   0.71446   0.49764   0.00000  Uiso   1.00
C564   C     0.86310   0.67410   0.01099   0.00000  Uiso   1.00
C565   C     0.77141   0.92511   0.42104   0.00000  Uiso   1.00
C566   C     0.75239   0.96268   0.44972   0.00000  Uiso   1.00
C567   C     0.78860   0.87001   0.01665   0.00000  Uiso   1.00
C568   C     0.76927   0.87149   0.06449   0.00000  Uiso   1.00
C569   C     0.68700   0.88118   0.21549   0.00000  Uiso   1.00
C570   C     0.81371   0.83835   0.49349   0.00000  Uiso   1.00
C571   C     0.81501   0.82826   0.44746   0.00000  Uiso   1.00
C572   C     0.83531   0.81474   0.01482   0.00000  Uiso   1.00
C573   C     0.84901   0.77566   0.49381   0.00000  Uiso   1.00
C574   C     0.83996   0.76160   0.45147   0.00000  Uiso   1.00
C575   C     0.82396   0.78795   0.42909   0.00000  Uiso   1.00
H576   H     0.88279   0.74734   0.08127   0.00000  Uiso   1.00
H577   H     0.87880   0.98015   0.49284   0.00000  Uiso   1.00
H578   H     0.90519   0.71427   0.46085   0.00000  Uiso   1.00
H579   H     0.92102   0.71565   0.01066   0.00000  Uiso   1.00
H580   H     0.72090   0.95257   0.47242   0.00000  Uiso   1.00
H581   H     0.77453   0.97950   0.46960   0.00000  Uiso   1.00
H582   H     0.74720   0.98475   0.42736   0.00000  Uiso   1.00
H583   H     0.80016   0.93781   0.39587   0.00000  Uiso   1.00
H584   H     0.74679   0.90941   0.40354   0.00000  Uiso   1.00
H585   H     0.98705   0.79720   0.27934   0.00000  Uiso   1.00
H586   H     0.87374   0.67045   0.21187   0.00000  Uiso   1.00
H587   H     0.79129   0.99781   0.28857   0.00000  Uiso   1.00
H588   H     0.83999   0.86147   0.07067   0.00000  Uiso   1.00
H589   H     0.75654   0.92071   0.01203   0.00000  Uiso   1.00
H590   H     0.81566   0.77504   0.39815   0.00000  Uiso   1.00
H591   H     0.85718   0.67173   0.04773   0.00000  Uiso   1.00
H592   H     0.83187   0.67318   0.00269   0.00000  Uiso   1.00
N593   N     0.84785   0.68715   0.41131   0.00000  Uiso   1.00
N594   N     0.75366   0.87258   0.10271   0.00000  Uiso   1.00
N595   N     0.70888   0.90814   0.19646   0.00000  Uiso   1.00
O596   O     0.83333   0.83333   0.25000   0.00000  Uiso   1.00
O597   O     0.82118   0.79304   0.15458   0.00000  Uiso   1.00
O598   O     0.79607   0.87058   0.34968   0.00000  Uiso   1.00
O599   O     0.87491   0.84425   0.14606   0.00000  Uiso   1.00
O600   O     0.84118   0.82546   0.34968   0.00000  Uiso   1.00
O601   O     0.84597   0.74686   0.28213   0.00000  Uiso   1.00
O602   O     0.81298   0.92751   0.27014   0.00000  Uiso   1.00
O603   O     0.74078   0.79958   0.23413   0.00000  Uiso   1.00
O604   O     0.93360   0.85939   0.21360   0.00000  Uiso   1.00
O605   O     0.73738   0.85544   0.28213   0.00000  Uiso   1.00
O606   O     0.92158   0.81892   0.27013   0.00000  Uiso   1.00
O607   O     0.80426   0.73610   0.23413   0.00000  Uiso   1.00
O608   O     0.87012   0.92286   0.21361   0.00000  Uiso   1.00
Zn609  Zn    0.86005   0.80661   0.28734   0.00000  Uiso   1.00
Zn610  Zn    0.80046   0.79124   0.21876   0.00000  Uiso   1.00
Zn611  Zn    0.87723   0.86442   0.20657   0.00000  Uiso   1.00
Zn612  Zn    0.79560   0.87106   0.28734   0.00000  Uiso   1.00
C613   C     0.05265   0.15911   0.76035   0.00000  Uiso   1.00
C614   C     0.17808   0.16348   0.55613   0.00000  Uiso   1.00
C615   C     0.20441   0.09973   0.56163   0.00000  Uiso   1.00
C616   C     0.28071   0.17458   0.74066   0.00000  Uiso   1.00
C617   C     0.13748   0.19059   0.92205   0.00000  Uiso   1.00
C618   C     0.32615   0.18096   0.73969   0.00000  Uiso   1.00
C619   C     0.00768   0.15635   0.76246   0.00000  Uiso   1.00
C620   C     0.18048   0.32248   0.73669   0.00000  Uiso   1.00
C621   C     0.15167   0.01168   0.76375   0.00000  Uiso   1.00
C622   C     0.15603   0.05581   0.76021   0.00000  Uiso   1.00
C623   C     0.17656   0.27790   0.74021   0.00000  Uiso   1.00
C624   C     0.10850   0.23017   0.99278   0.00000  Uiso   1.00
C625   C     0.18516   0.14788   0.62922   0.00000  Uiso   1.00
C626   C     0.14774   0.18422   0.87157   0.00000  Uiso   1.00
C627   C     0.20294   0.08591   0.51727   0.00000  Uiso   1.00
C628   C     0.19198   0.13814   0.58085   0.00000  Uiso   1.00
C629   C     0.11775   0.22615   0.94564   0.00000  Uiso   1.00
C630   C     0.17771   0.05348   0.92955   0.00000  Uiso   1.00
C631   C     0.22536   0.04780   0.99764   0.00000  Uiso   1.00
C632   C     0.19643   0.00744   0.51099   0.00000  Uiso   1.00
C633   C     0.10475   0.25844   0.92104   0.00000  Uiso   1.00
C634   C     0.08573   0.29602   0.94972   0.00000  Uiso   1.00
C635   C     0.12193   0.20334   0.51665   0.00000  Uiso   1.00
C636   C     0.10261   0.20482   0.56449   0.00000  Uiso   1.00
C637   C     0.02033   0.21451   0.71549   0.00000  Uiso   1.00
C638   C     0.14704   0.17169   0.99349   0.00000  Uiso   1.00
C639   C     0.14835   0.16159   0.94746   0.00000  Uiso   1.00
C640   C     0.16864   0.14807   0.51482   0.00000  Uiso   1.00
C641   C     0.18234   0.10899   0.99381   0.00000  Uiso   1.00
C642   C     0.17330   0.09494   0.95147   0.00000  Uiso   1.00
C643   C     0.15729   0.12128   0.92909   0.00000  Uiso   1.00
H644   H     0.21612   0.08067   0.58127   0.00000  Uiso   1.00
H645   H     0.21214   0.31348   0.99284   0.00000  Uiso   1.00
H646   H     0.23852   0.04760   0.96085   0.00000  Uiso   1.00
H647   H     0.25435   0.04899   0.51066   0.00000  Uiso   1.00
H648   H     0.05424   0.28590   0.97242   0.00000  Uiso   1.00
H649   H     0.10786   0.31283   0.96960   0.00000  Uiso   1.00
H650   H     0.08054   0.31808   0.92736   0.00000  Uiso   1.00
H651   H     0.13349   0.27114   0.89587   0.00000  Uiso   1.00
H652   H     0.08012   0.24274   0.90354   0.00000  Uiso   1.00
H653   H     0.32038   0.13054   0.77934   0.00000  Uiso   1.00
H654   H     0.20707   0.00378   0.71187   0.00000  Uiso   1.00
H655   H     0.12462   0.33115   0.78857   0.00000  Uiso   1.00
H656   H     0.17333   0.19480   0.57067   0.00000  Uiso   1.00
H657   H     0.08987   0.25404   0.51203   0.00000  Uiso   1.00
H658   H     0.14899   0.10837   0.89815   0.00000  Uiso   1.00
H659   H     0.19052   0.00506   0.54773   0.00000  Uiso   1.00
H660   H     0.16520   0.00651   0.50269   0.00000  Uiso   1.00
N661   N     0.18118   0.02049   0.91131   0.00000  Uiso   1.00
N662   N     0.08700   0.20591   0.60271   0.00000  Uiso   1.00
N663   N     0.04222   0.24147   0.69646   0.00000  Uiso   1.00
O664   O     0.16667   0.16667   0.75000   0.00000  Uiso   1.00
O665   O     0.15451   0.12637   0.65458   0.00000  Uiso   1.00
O666   O     0.12940   0.20391   0.84968   0.00000  Uiso   1.00
O667   O     0.20824   0.17759   0.64606   0.00000  Uiso   1.00
O668   O     0.17451   0.15880   0.84968   0.00000  Uiso   1.00
O669   O     0.17930   0.08019   0.78213   0.00000  Uiso   1.00
O670   O     0.14632   0.26085   0.77014   0.00000  Uiso   1.00
O671   O     0.07412   0.13291   0.73413   0.00000  Uiso   1.00
O672   O     0.26693   0.19272   0.71360   0.00000  Uiso   1.00
O673   O     0.07071   0.18878   0.78213   0.00000  Uiso   1.00
O674   O     0.25491   0.15226   0.77013   0.00000  Uiso   1.00
O675   O     0.13760   0.06944   0.73413   0.00000  Uiso   1.00
O676   O     0.20345   0.25620   0.71361   0.00000  Uiso   1.00
Zn677  Zn    0.19338   0.13994   0.78734   0.00000  Uiso   1.00
Zn678  Zn    0.13379   0.12458   0.71876   0.00000  Uiso   1.00
Zn679  Zn    0.21056   0.19775   0.70657   0.00000  Uiso   1.00
Zn680  Zn    0.12893   0.20439   0.78734   0.00000  Uiso   1.00
C681   C     0.38599   0.15911   0.76035   0.00000  Uiso   1.00
C682   C     0.51141   0.16348   0.55613   0.00000  Uiso   1.00
C683   C     0.53774   0.09973   0.56163   0.00000  Uiso   1.00
C684   C     0.61404   0.17458   0.74066   0.00000  Uiso   1.00
C685   C     0.47082   0.19059   0.92205   0.00000  Uiso   1.00
C686   C     0.65948   0.18096   0.73969   0.00000  Uiso   1.00
C687   C     0.34101   0.15635   0.76246   0.00000  Uiso   1.00
C688   C     0.51381   0.32248   0.73669   0.00000  Uiso   1.00
C689   C     0.48500   0.01168   0.76375   0.00000  Uiso   1.00
C690   C     0.48936   0.05581   0.76021   0.00000  Uiso   1.00
C691   C     0.50990   0.27790   0.74021   0.00000  Uiso   1.00
C692   C     0.44184   0.23017   0.99278   0.00000  Uiso   1.00
C693   C     0.51849   0.14788   0.62922   0.00000  Uiso   1.00
C694   C     0.48107   0.18422   0.87157   0.00000  Uiso   1.00
C695   C     0.53627   0.08591   0.51727   0.00000  Uiso   1.00
C696   C     0.52531   0.13814   0.58085   0.00000  Uiso   1.00
C697   C     0.45109   0.22615   0.94564   0.00000  Uiso   1.00
C698   C     0.51104   0.05348   0.92955   0.00000  Uiso   1.00
C699   C     0.55869   0.04780   0.99764   0.00000  Uiso   1.00
C700   C     0.52977   0.00744   0.51099   0.00000  Uiso   1.00
C701   C     0.43808   0.25844   0.92104   0.00000  Uiso   1.00
C702   C     0.41906   0.29602   0.94972   0.00000  Uiso   1.00
C703   C     0.45527   0.20334   0.51665   0.00000  Uiso   1.00
C704   C     0.43594   0.20482   0.56449   0.00000  Uiso   1.00
C705   C     0.35367   0.21451   0.71549   0.00000  Uiso   1.00
C706   C     0.48038   0.17169   0.99349   0.00000  Uiso   1.00
C707   C     0.48168   0.16159   0.94746   0.00000  Uiso   1.00
C708   C     0.50197   0.14807   0.51482   0.00000  Uiso   1.00
C709   C     0.51568   0.10899   0.99381   0.00000  Uiso   1.00
C710   C     0.50663   0.09494   0.95147   0.00000  Uiso   1.00
C711   C     0.49063   0.12128   0.92909   0.00000  Uiso   1.00
H712   H     0.54945   0.08067   0.58127   0.00000  Uiso   1.00
H713   H     0.54547   0.31348   0.99284   0.00000  Uiso   1.00
H714   H     0.57186   0.04760   0.96085   0.00000  Uiso   1.00
H715   H     0.58768   0.04899   0.51066   0.00000  Uiso   1.00
H716   H     0.38757   0.28590   0.97242   0.00000  Uiso   1.00
H717   H     0.44120   0.31283   0.96960   0.00000  Uiso   1.00
H718   H     0.41387   0.31808   0.92736   0.00000  Uiso   1.00
H719   H     0.46683   0.27114   0.89587   0.00000  Uiso   1.00
H720   H     0.41345   0.24274   0.90354   0.00000  Uiso   1.00
H721   H     0.65371   0.13054   0.77934   0.00000  Uiso   1.00
H722   H     0.54040   0.00378   0.71187   0.00000  Uiso   1.00
H723   H     0.45795   0.33115   0.78857   0.00000  Uiso   1.00
H724   H     0.50666   0.19480   0.57067   0.00000  Uiso   1.00
H725   H     0.42321   0.25404   0.51203   0.00000  Uiso   1.00
H726   H     0.48233   0.10837   0.89815   0.00000  Uiso   1.00
H727   H     0.52385   0.00506   0.54773   0.00000  Uiso   1.00
H728   H     0.49853   0.00651   0.50269   0.00000  Uiso   1.00
N729   N     0.51451   0.02049   0.91131   0.00000  Uiso   1.00
N730   N     0.42033   0.20591   0.60271   0.00000  Uiso   1.00
N731   N     0.37555   0.24147   0.69646   0.00000  Uiso   1.00
O732   O     0.50000   0.16667   0.75000   0.00000  Uiso   1.00
O733   O     0.48784   0.12637   0.65458   0.00000  Uiso   1.00
O734   O     0.46274   0.20391   0.84968   0.00000  Uiso   1.00
O735   O     0.54157   0.17759   0.64606   0.00000  Uiso   1.00
O736   O     0.50785   0.15880   0.84968   0.00000  Uiso   1.00
O737   O     0.51264   0.08019   0.78213   0.00000  Uiso   1.00
O738   O     0.47965   0.26085   0.77014   0.00000  Uiso   1.00
O739   O     0.40745   0.13291   0.73413   0.00000  Uiso   1.00
O740   O     0.60026   0.19272   0.71360   0.00000  Uiso   1.00
O741   O     0.40405   0.18878   0.78213   0.00000  Uiso   1.00
O742   O     0.58824   0.15226   0.77013   0.00000  Uiso   1.00
O743   O     0.47093   0.06944   0.73413   0.00000  Uiso   1.00
O744   O     0.53678   0.25620   0.71361   0.00000  Uiso   1.00
Zn745  Zn    0.52672   0.13994   0.78734   0.00000  Uiso   1.00
Zn746  Zn    0.46713   0.12458   0.71876   0.00000  Uiso   1.00
Zn747  Zn    0.54389   0.19775   0.70657   0.00000  Uiso   1.00
Zn748  Zn    0.46226   0.20439   0.78734   0.00000  Uiso   1.00
C749   C     0.71932   0.15911   0.76035   0.00000  Uiso   1.00
C750   C     0.84474   0.16348   0.55613   0.00000  Uiso   1.00
C751   C     0.87108   0.09973   0.56163   0.00000  Uiso   1.00
C752   C     0.94738   0.17458   0.74066   0.00000  Uiso   1.00
C753   C     0.80415   0.19059   0.92205   0.00000  Uiso   1.00
C754   C     0.99281   0.18096   0.73969   0.00000  Uiso   1.00
C755   C     0.67435   0.15635   0.76246   0.00000  Uiso   1.00
C756   C     0.84715   0.32248   0.73669   0.00000  Uiso   1.00
C757   C     0.81834   0.01168   0.76375   0.00000  Uiso   1.00
C758   C     0.82269   0.05581   0.76021   0.00000  Uiso   1.00
C759   C     0.84323   0.27790   0.74021   0.00000  Uiso   1.00
C760   C     0.77517   0.23017   0.99278   0.00000  Uiso   1.00
C761   C     0.85182   0.14788   0.62922   0.00000  Uiso   1.00
C762   C     0.81441   0.18422   0.87157   0.00000  Uiso   1.00
C763   C     0.86960   0.08591   0.51727   0.00000  Uiso   1.00
C764   C     0.85864   0.13814   0.58085   0.00000  Uiso   1.00
C765   C     0.78442   0.22615   0.94564   0.00000  Uiso   1.00
C766   C     0.84438   0.05348   0.92955   0.00000  Uiso   1.00
C767   C     0.89203   0.04780   0.99764   0.00000  Uiso   1.00
C768   C     0.86310   0.00744   0.51099   0.00000  Uiso   1.00
C769   C     0.77141   0.25844   0.92104   0.00000  Uiso   1.00
C770   C     0.75239   0.29602   0.94972   0.00000  Uiso   1.00
C771   C     0.78860   0.20334   0.51665   0.00000  Uiso   1.00
C772   C     0.76927   0.20482   0.56449   0.00000  Uiso   1.00
C773   C     0.68700   0.21451   0.71549   0.00000  Uiso   1.00
C774   C     0.81371   0.17169   0.99349   0.00000  Uiso   1.00
C775   C     0.81501   0.16159   0.94746   0.00000  Uiso   1.00
C776   C     0.83531   0.14807   0.51482   0.00000  Uiso   1.00
C777   C     0.84901   0.10899   0.99381   0.00000  Uiso   1.00
C778   C     0.83996   0.09494   0.95147   0.00000  Uiso   1.00
C779   C     0.82396   0.12128   0.92909   0.00000  Uiso   1.00
H780   H     0.88279   0.08067   0.58127   0.00000  Uiso   1.00
H781   H     0.87880   0.31348   0.99284   0.00000  Uiso   1.00
H782   H     0.90519   0.04760   0.96085   0.00000  Uiso   1.00
H783   H     0.92102   0.04899   0.51066   0.00000  Uiso   1.00
H784   H     0.72090   0.28590   0.97242   0.00000  Uiso   1.00
H785   H     0.77453   0.31283   0.96960   0.00000  Uiso   1.00
H786   H     0.74720   0.31808   0.92736   0.00000  Uiso   1.00
H787   H     0.80016   0.27114   0.89587   0.00000  Uiso   1.00
H788   H     0.74679   0.24274   0.90354   0.00000  Uiso   1.00
H789   H     0.98705   0.13054   0.77934   0.00000  Uiso   1.00
H790   H     0.87374   0.00378   0.71187   0.00000  Uiso   1.00
H791   H     0.79129   0.33115   0.78857   0.00000  Uiso   1.00
H792   H     0.83999   0.19480   0.57067   0.00000  Uiso   1.00
H793   H     0.75654   0.25404   0.51203   0.00000  Uiso   1.00
H794   H     0.81566   0.10837   0.89815   0.00000  Uiso   1.00
H795   H     0.85718   0.00506   0.54773   0.00000  Uiso   1.00
H796   H     0.83187   0.00651   0.50269   0.00000  Uiso   1.00
N797   N     0.84785   0.02049   0.91131   0.00000  Uiso   1.00
N798   N     0.75366   0.20591   0.60271   0.00000  Uiso   1.00
N799   N     0.70888   0.24147   0.69646   0.00000  Uiso   1.00
O800   O     0.83333   0.16667   0.75000   0.00000  Uiso   1.00
O801   O     0.82118   0.12637   0.65458   0.00000  Uiso   1.00
O802   O     0.79607   0.20391   0.84968   0.00000  Uiso   1.00
O803   O     0.87491   0.17759   0.64606   0.00000  Uiso   1.00
O804   O     0.84118   0.15880   0.84968   0.00000  Uiso   1.00
O805   O     0.84597   0.08019   0.78213   0.00000  Uiso   1.00
O806   O     0.81298   0.26085   0.77014   0.00000  Uiso   1.00
O807   O     0.74078   0.13291   0.73413   0.00000  Uiso   1.00
O808   O     0.93360   0.19272   0.71360   0.00000  Uiso   1.00
O809   O     0.73738   0.18878   0.78213   0.00000  Uiso   1.00
O810   O     0.92158   0.15226   0.77013   0.00000  Uiso   1.00
O811   O     0.80426   0.06944   0.73413   0.00000  Uiso   1.00
O812   O     0.87012   0.25620   0.71361   0.00000  Uiso   1.00
Zn813  Zn    0.86005   0.13994   0.78734   0.00000  Uiso   1.00
Zn814  Zn    0.80046   0.12458   0.71876   0.00000  Uiso   1.00
Zn815  Zn    0.87723   0.19775   0.70657   0.00000  Uiso   1.00
Zn816  Zn    0.79560   0.20439   0.78734   0.00000  Uiso   1.00
C817   C     0.05265   0.49244   0.76035   0.00000  Uiso   1.00
C818   C     0.17808   0.49681   0.55613   0.00000  Uiso   1.00
C819   C     0.20441   0.43307   0.56163   0.00000  Uiso   1.00
C820   C     0.28071   0.50791   0.74066   0.00000  Uiso   1.00
C821   C     0.13748   0.52393   0.92205   0.00000  Uiso   1.00
C822   C     0.32615   0.51429   0.73969   0.00000  Uiso   1.00
C823   C     0.00768   0.48969   0.76246   0.00000  Uiso   1.00
C824   C     0.18048   0.65582   0.73669   0.00000  Uiso   1.00
C825   C     0.15167   0.34501   0.76375   0.00000  Uiso   1.00
C826   C     0.15603   0.38914   0.76021   0.00000  Uiso   1.00
C827   C     0.17656   0.61123   0.74021   0.00000  Uiso   1.00
C828   C     0.10850   0.56351   0.99278   0.00000  Uiso   1.00
C829   C     0.18516   0.48121   0.62922   0.00000  Uiso   1.00
C830   C     0.14774   0.51755   0.87157   0.00000  Uiso   1.00
C831   C     0.20294   0.41925   0.51727   0.00000  Uiso   1.00
C832   C     0.19198   0.47147   0.58085   0.00000  Uiso   1.00
C833   C     0.11775   0.55949   0.94564   0.00000  Uiso   1.00
C834   C     0.17771   0.38681   0.92955   0.00000  Uiso   1.00
C835   C     0.22536   0.38113   0.99764   0.00000  Uiso   1.00
C836   C     0.19643   0.34077   0.51099   0.00000  Uiso   1.00
C837   C     0.10475   0.59178   0.92104   0.00000  Uiso   1.00
C838   C     0.08573   0.62935   0.94972   0.00000  Uiso   1.00
C839   C     0.12193   0.53667   0.51665   0.00000  Uiso   1.00
C840   C     0.10261   0.53815   0.56449   0.00000  Uiso   1.00
C841   C     0.02033   0.54785   0.71549   0.00000  Uiso   1.00
C842   C     0.14704   0.50502   0.99349   0.00000  Uiso   1.00
C843   C     0.14835   0.49493   0.94746   0.00000  Uiso   1.00
C844   C     0.16864   0.48140   0.51482   0.00000  Uiso   1.00
C845   C     0.18234   0.44232   0.99381   0.00000  Uiso   1.00
C846   C     0.17330   0.42827   0.95147   0.00000  Uiso   1.00
C847   C     0.15729   0.45461   0.92909   0.00000  Uiso   1.00
H848   H     0.21612   0.41400   0.58127   0.00000  Uiso   1.00
H849   H     0.21214   0.64681   0.99284   0.00000  Uiso   1.00
H850   H     0.23852   0.38093   0.96085   0.00000  Uiso   1.00
H851   H     0.25435   0.38232   0.51066   0.00000  Uiso   1.00
H852   H     0.05424   0.61923   0.97242   0.00000  Uiso   1.00
H853   H     0.10786   0.64616   0.96960   0.00000  Uiso   1.00
H854   H     0.08054   0.65142   0.92736   0.00000  Uiso   1.00
H855   H     0.13349   0.60447   0.89587   0.00000  Uiso   1.00
H856   H     0.08012   0.57607   0.90354   0.00000  Uiso   1.00
H857   H     0.32038   0.46387   0.77934   0.00000  Uiso   1.00
H858   H     0.20707   0.33712   0.71187   0.00000  Uiso   1.00
H859   H     0.12462   0.66448   0.78857   0.00000  Uiso   1.00
H860   H     0.17333   0.52814   0.57067   0.00000  Uiso   1.00
H861   H     0.08987   0.58738   0.51203   0.00000  Uiso   1.00
H862   H     0.14899   0.44170   0.89815   0.00000  Uiso   1.00
H863   H     0.19052   0.33840   0.54773   0.00000  Uiso   1.00
H864   H     0.16520   0.33985   0.50269   0.00000  Uiso   1.00
N865   N     0.18118   0.35382   0.91131   0.00000  Uiso   1.00
N866   N     0.08700   0.53924   0.60271   0.00000  Uiso   1.00
N867   N     0.04222   0.57480   0.69646   0.00000  Uiso   1.00
O868   O     0.16667   0.50000   0.75000   0.00000  Uiso   1.00
O869   O     0.15451   0.45970   0.65458   0.00000  Uiso   1.00
O870   O     0.12940   0.53724   0.84968   0.00000  Uiso   1.00
O871   O     0.20824   0.51092   0.64606   0.00000  Uiso   1.00
O872   O     0.17451   0.49213   0.84968   0.00000  Uiso   1.00
O873   O     0.17930   0.41352   0.78213   0.00000  Uiso   1.00
O874   O     0.14632   0.59418   0.77014   0.00000  Uiso   1.00
O875   O     0.07412   0.46625   0.73413   0.00000  Uiso   1.00
O876   O     0.26693   0.52605   0.71360   0.00000  Uiso   1.00
O877   O     0.07071   0.52211   0.78213   0.00000  Uiso   1.00
O878   O     0.25491   0.48559   0.77013   0.00000  Uiso   1.00
O879   O     0.13760   0.40277   0.73413   0.00000  Uiso   1.00
O880   O     0.20345   0.58953   0.71361   0.00000  Uiso   1.00
Zn881  Zn    0.19338   0.47327   0.78734   0.00000  Uiso   1.00
Zn882  Zn    0.13379   0.45791   0.71876   0.00000  Uiso   1.00
Zn883  Zn    0.21056   0.53109   0.70657   0.00000  Uiso   1.00
Zn884  Zn    0.12893   0.53773   0.78734   0.00000  Uiso   1.00
C885   C     0.38599   0.49244   0.76035   0.00000  Uiso   1.00
C886   C     0.51141   0.49681   0.55613   0.00000  Uiso   1.00
C887   C     0.53774   0.43307   0.56163   0.00000  Uiso   1.00
C888   C     0.61404   0.50791   0.74066   0.00000  Uiso   1.00
C889   C     0.47082   0.52393   0.92205   0.00000  Uiso   1.00
C890   C     0.65948   0.51429   0.73969   0.00000  Uiso   1.00
C891   C     0.34101   0.48969   0.76246   0.00000  Uiso   1.00
C892   C     0.51381   0.65582   0.73669   0.00000  Uiso   1.00
C893   C     0.48500   0.34501   0.76375   0.00000  Uiso   1.00
C894   C     0.48936   0.38914   0.76021   0.00000  Uiso   1.00
C895   C     0.50990   0.61123   0.74021   0.00000  Uiso   1.00
C896   C     0.44184   0.56351   0.99278   0.00000  Uiso   1.00
C897   C     0.51849   0.48121   0.62922   0.00000  Uiso   1.00
C898   C     0.48107   0.51755   0.87157   0.00000  Uiso   1.00
C899   C     0.53627   0.41925   0.51727   0.00000  Uiso   1.00
C900   C     0.52531   0.47147   0.58085   0.00000  Uiso   1.00
C901   C     0.45109   0.55949   0.94564   0.00000  Uiso   1.00
C902   C     0.51104   0.38681   0.92955   0.00000  Uiso   1.00
C903   C     0.55869   0.38113   0.99764   0.00000  Uiso   1.00
C904   C     0.52977   0.34077   0.51099   0.00000  Uiso   1.00
C905   C     0.43808   0.59178   0.92104   0.00000  Uiso   1.00
C906   C     0.41906   0.62935   0.94972   0.00000  Uiso   1.00
C907   C     0.45527   0.53667   0.51665   0.00000  Uiso   1.00
C908   C     0.43594   0.53815   0.56449   0.00000  Uiso   1.00
C909   C     0.35367   0.54785   0.71549   0.00000  Uiso   1.00
C910   C     0.48038   0.50502   0.99349   0.00000  Uiso   1.00
C911   C     0.48168   0.49493   0.94746   0.00000  Uiso   1.00
C912   C     0.50197   0.48140   0.51482   0.00000  Uiso   1.00
C913   C     0.51568   0.44232   0.99381   0.00000  Uiso   1.00
C914   C     0.50663   0.42827   0.95147   0.00000  Uiso   1.00
C915   C     0.49063   0.45461   0.92909   0.00000  Uiso   1.00
H916   H     0.54945   0.41400   0.58127   0.00000  Uiso   1.00
H917   H     0.54547   0.64681   0.99284   0.00000  Uiso   1.00
H918   H     0.57186   0.38093   0.96085   0.00000  Uiso   1.00
H919   H     0.58768   0.38232   0.51066   0.00000  Uiso   1.00
H920   H     0.38757   0.61923   0.97242   0.00000  Uiso   1.00
H921   H     0.44120   0.64616   0.96960   0.00000  Uiso   1.00
H922   H     0.41387   0.65142   0.92736   0.00000  Uiso   1.00
H923   H     0.46683   0.60447   0.89587   0.00000  Uiso   1.00
H924   H     0.41345   0.57607   0.90354   0.00000  Uiso   1.00
H925   H     0.65371   0.46387   0.77934   0.00000  Uiso   1.00
H926   H     0.54040   0.33712   0.71187   0.00000  Uiso   1.00
H927   H     0.45795   0.66448   0.78857   0.00000  Uiso   1.00
H928   H     0.50666   0.52814   0.57067   0.00000  Uiso   1.00
H929   H     0.42321   0.58738   0.51203   0.00000  Uiso   1.00
H930   H     0.48233   0.44170   0.89815   0.00000  Uiso   1.00
H931   H     0.52385   0.33840   0.54773   0.00000  Uiso   1.00
H932   H     0.49853   0.33985   0.50269   0.00000  Uiso   1.00
N933   N     0.51451   0.35382   0.91131   0.00000  Uiso   1.00
N934   N     0.42033   0.53924   0.60271   0.00000  Uiso   1.00
N935   N     0.37555   0.57480   0.69646   0.00000  Uiso   1.00
O936   O     0.50000   0.50000   0.75000   0.00000  Uiso   1.00
O937   O     0.48784   0.45970   0.65458   0.00000  Uiso   1.00
O938   O     0.46274   0.53724   0.84968   0.00000  Uiso   1.00
O939   O     0.54157   0.51092   0.64606   0.00000  Uiso   1.00
O940   O     0.50785   0.49213   0.84968   0.00000  Uiso   1.00
O941   O     0.51264   0.41352   0.78213   0.00000  Uiso   1.00
O942   O     0.47965   0.59418   0.77014   0.00000  Uiso   1.00
O943   O     0.40745   0.46625   0.73413   0.00000  Uiso   1.00
O944   O     0.60026   0.52605   0.71360   0.00000  Uiso   1.00
O945   O     0.40405   0.52211   0.78213   0.00000  Uiso   1.00
O946   O     0.58824   0.48559   0.77013   0.00000  Uiso   1.00
O947   O     0.47093   0.40277   0.73413   0.00000  Uiso   1.00
O948   O     0.53678   0.58953   0.71361   0.00000  Uiso   1.00
Zn949  Zn    0.52672   0.47327   0.78734   0.00000  Uiso   1.00
Zn950  Zn    0.46713   0.45791   0.71876   0.00000  Uiso   1.00
Zn951  Zn    0.54389   0.53109   0.70657   0.00000  Uiso   1.00
Zn952  Zn    0.46226   0.53773   0.78734   0.00000  Uiso   1.00
C953   C     0.71932   0.49244   0.76035   0.00000  Uiso   1.00
C954   C     0.84474   0.49681   0.55613   0.00000  Uiso   1.00
C955   C     0.87108   0.43307   0.56163   0.00000  Uiso   1.00
C956   C     0.94738   0.50791   0.74066   0.00000  Uiso   1.00
C957   C     0.80415   0.52393   0.92205   0.00000  Uiso   1.00
C958   C     0.99281   0.51429   0.73969   0.00000  Uiso   1.00
C959   C     0.67435   0.48969   0.76246   0.00000  Uiso   1.00
C960   C     0.84715   0.65582   0.73669   0.00000  Uiso   1.00
C961   C     0.81834   0.34501   0.76375   0.00000  Uiso   1.00
C962   C     0.82269   0.38914   0.76021   0.00000  Uiso   1.00
C963   C     0.84323   0.61123   0.74021   0.00000  Uiso   1.00
C964   C     0.77517   0.56351   0.99278   0.00000  Uiso   1.00
C965   C     0.85182   0.48121   0.62922   0.00000  Uiso   1.00
C966   C     0.81441   0.51755   0.87157   0.00000  Uiso   1.00
C967   C     0.86960   0.41925   0.51727   0.00000  Uiso   1.00
C968   C     0.85864   0.47147   0.58085   0.00000  Uiso   1.00
C969   C     0.78442   0.55949   0.94564   0.00000  Uiso   1.00
C970   C     0.84438   0.38681   0.92955   0.00000  Uiso   1.00
C971   C     0.89203   0.38113   0.99764   0.00000  Uiso   1.00
C972   C     0.86310   0.34077   0.51099   0.00000  Uiso   1.00
C973   C     0.77141   0.59178   0.92104   0.00000  Uiso   1.00
C974   C     0.75239   0.62935   0.94972   0.00000  Uiso   1.00
C975   C     0.78860   0.53667   0.51665   0.00000  Uiso   1.00
C976   C     0.76927   0.53815   0.56449   0.00000  Uiso   1.00
C977   C     0.68700   0.54785   0.71549   0.00000  Uiso   1.00
C978   C     0.81371   0.50502   0.99349   0.00000  Uiso   1.00
C979   C     0.81501   0.49493   0.94746   0.00000  Uiso   1.00
C980   C     0.83531   0.48140   0.51482   0.00000  Uiso   1.00
C981   C     0.84901   0.44232   0.99381   0.00000  Uiso   1.00
C982   C     0.83996   0.42827   0.95147   0.00000  Uiso   1.00
C983   C     0.82396   0.45461   0.92909   0.00000  Uiso   1.00
H984   H     0.88279   0.41400   0.58127   0.00000  Uiso   1.00
H985   H     0.87880   0.64681   0.99284   0.00000  Uiso   1.00
H986   H     0.90519   0.38093   0.96085   0.00000  Uiso   1.00
H987   H     0.92102   0.38232   0.51066   0.00000  Uiso   1.00
H988   H     0.72090   0.61923   0.97242   0.00000  Uiso   1.00
H989   H     0.77453   0.64616   0.96960   0.00000  Uiso   1.00
H990   H     0.74720   0.65142   0.92736   0.00000  Uiso   1.00
H991   H     0.80016   0.60447   0.89587   0.00000  Uiso   1.00
H992   H     0.74679   0.57607   0.90354   0.00000  Uiso   1.00
H993   H     0.98705   0.46387   0.77934   0.00000  Uiso   1.00
H994   H     0.87374   0.33712   0.71187   0.00000  Uiso   1.00
H995   H     0.79129   0.66448   0.78857   0.00000  Uiso   1.00
H996   H     0.83999   0.52814   0.57067   0.00000  Uiso   1.00
H997   H     0.75654   0.58738   0.51203   0.00000  Uiso   1.00
H998   H     0.81566   0.44170   0.89815   0.00000  Uiso   1.00
H999   H     0.85718   0.33840   0.54773   0.00000  Uiso   1.00
H1000  H     0.83187   0.33985   0.50269   0.00000  Uiso   1.00
N1001  N     0.84785   0.35382   0.91131   0.00000  Uiso   1.00
N1002  N     0.75366   0.53924   0.60271   0.00000  Uiso   1.00
N1003  N     0.70888   0.57480   0.69646   0.00000  Uiso   1.00
O1004  O     0.83333   0.50000   0.75000   0.00000  Uiso   1.00
O1005  O     0.82118   0.45970   0.65458   0.00000  Uiso   1.00
O1006  O     0.79607   0.53724   0.84968   0.00000  Uiso   1.00
O1007  O     0.87491   0.51092   0.64606   0.00000  Uiso   1.00
O1008  O     0.84118   0.49213   0.84968   0.00000  Uiso   1.00
O1009  O     0.84597   0.41352   0.78213   0.00000  Uiso   1.00
O1010  O     0.81298   0.59418   0.77014   0.00000  Uiso   1.00
O1011  O     0.74078   0.46625   0.73413   0.00000  Uiso   1.00
O1012  O     0.93360   0.52605   0.71360   0.00000  Uiso   1.00
O1013  O     0.73738   0.52211   0.78213   0.00000  Uiso   1.00
O1014  O     0.92158   0.48559   0.77013   0.00000  Uiso   1.00
O1015  O     0.80426   0.40277   0.73413   0.00000  Uiso   1.00
O1016  O     0.87012   0.58953   0.71361   0.00000  Uiso   1.00
Zn1017 Zn    0.86005   0.47327   0.78734   0.00000  Uiso   1.00
Zn1018 Zn    0.80046   0.45791   0.71876   0.00000  Uiso   1.00
Zn1019 Zn    0.87723   0.53109   0.70657   0.00000  Uiso   1.00
Zn1020 Zn    0.79560   0.53773   0.78734   0.00000  Uiso   1.00
C1021  C     0.05265   0.82577   0.76035   0.00000  Uiso   1.00
C1022  C     0.17808   0.83015   0.55613   0.00000  Uiso   1.00
C1023  C     0.20441   0.76640   0.56163   0.00000  Uiso   1.00
C1024  C     0.28071   0.84125   0.74066   0.00000  Uiso   1.00
C1025  C     0.13748   0.85726   0.92205   0.00000  Uiso   1.00
C1026  C     0.32615   0.84762   0.73969   0.00000  Uiso   1.00
C1027  C     0.00768   0.82302   0.76246   0.00000  Uiso   1.00
C1028  C     0.18048   0.98915   0.73669   0.00000  Uiso   1.00
C1029  C     0.15167   0.67834   0.76375   0.00000  Uiso   1.00
C1030  C     0.15603   0.72248   0.76021   0.00000  Uiso   1.00
C1031  C     0.17656   0.94456   0.74021   0.00000  Uiso   1.00
C1032  C     0.10850   0.89684   0.99278   0.00000  Uiso   1.00
C1033  C     0.18516   0.81454   0.62922   0.00000  Uiso   1.00
C1034  C     0.14774   0.85088   0.87157   0.00000  Uiso   1.00
C1035  C     0.20294   0.75258   0.51727   0.00000  Uiso   1.00
C1036  C     0.19198   0.80481   0.58085   0.00000  Uiso   1.00
C1037  C     0.11775   0.89282   0.94564   0.00000  Uiso   1.00
C1038  C     0.17771   0.72014   0.92955   0.00000  Uiso   1.00
C1039  C     0.22536   0.71446   0.99764   0.00000  Uiso   1.00
C1040  C     0.19643   0.67410   0.51099   0.00000  Uiso   1.00
C1041  C     0.10475   0.92511   0.92104   0.00000  Uiso   1.00
C1042  C     0.08573   0.96268   0.94972   0.00000  Uiso   1.00
C1043  C     0.12193   0.87001   0.51665   0.00000  Uiso   1.00
C1044  C     0.10261   0.87149   0.56449   0.00000  Uiso   1.00
C1045  C     0.02033   0.88118   0.71549   0.00000  Uiso   1.00
C1046  C     0.14704   0.83835   0.99349   0.00000  Uiso   1.00
C1047  C     0.14835   0.82826   0.94746   0.00000  Uiso   1.00
C1048  C     0.16864   0.81474   0.51482   0.00000  Uiso   1.00
C1049  C     0.18234   0.77566   0.99381   0.00000  Uiso   1.00
C1050  C     0.17330   0.76160   0.95147   0.00000  Uiso   1.00
C1051  C     0.15729   0.78795   0.92909   0.00000  Uiso   1.00
H1052  H     0.21612   0.74734   0.58127   0.00000  Uiso   1.00
H1053  H     0.21214   0.98015   0.99284   0.00000  Uiso   1.00
H1054  H     0.23852   0.71427   0.96085   0.00000  Uiso   1.00
H1055  H     0.25435   0.71565   0.51066   0.00000  Uiso   1.00
H1056  H     0.05424   0.95257   0.97242   0.00000  Uiso   1.00
H1057  H     0.10786   0.97950   0.96960   0.00000  Uiso   1.00
H1058  H     0.08054   0.98475   0.92736   0.00000  Uiso   1.00
H1059  H     0.13349   0.93781   0.89587   0.00000  Uiso   1.00
H1060  H     0.08012   0.90941   0.90354   0.00000  Uiso   1.00
H1061  H     0.32038   0.79720   0.77934   0.00000  Uiso   1.00
H1062  H     0.20707   0.67045   0.71187   0.00000  Uiso   1.00
H1063  H     0.12462   0.99781   0.78857   0.00000  Uiso   1.00
H1064  H     0.17333   0.86147   0.57067   0.00000  Uiso   1.00
H1065  H     0.08987   0.92071   0.51203   0.00000  Uiso   1.00
H1066  H     0.14899   0.77504   0.89815   0.00000  Uiso   1.00
H1067  H     0.19052   0.67173   0.54773   0.00000  Uiso   1.00
H1068  H     0.16520   0.67318   0.50269   0.00000  Uiso   1.00
N1069  N     0.18118   0.68715   0.91131   0.00000  Uiso   1.00
N1070  N     0.08700   0.87258   0.60271   0.00000  Uiso   1.00
N1071  N     0.04222   0.90814   0.69646   0.00000  Uiso   1.00
O1072  O     0.16667   0.83333   0.75000   0.00000  Uiso   1.00
O1073  O     0.15451   0.79304   0.65458   0.00000  Uiso   1.00
O1074  O     0.12940   0.87058   0.84968   0.00000  Uiso   1.00
O1075  O     0.20824   0.84425   0.64606   0.00000  Uiso   1.00
O1076  O     0.17451   0.82546   0.84968   0.00000  Uiso   1.00
O1077  O     0.17930   0.74686   0.78213   0.00000  Uiso   1.00
O1078  O     0.14632   0.92751   0.77014   0.00000  Uiso   1.00
O1079  O     0.07412   0.79958   0.73413   0.00000  Uiso   1.00
O1080  O     0.26693   0.85939   0.71360   0.00000  Uiso   1.00
O1081  O     0.07071   0.85544   0.78213   0.00000  Uiso   1.00
O1082  O     0.25491   0.81892   0.77013   0.00000  Uiso   1.00
O1083  O     0.13760   0.73610   0.73413   0.00000  Uiso   1.00
O1084  O     0.20345   0.92286   0.71361   0.00000  Uiso   1.00
Zn1085 Zn    0.19338   0.80661   0.78734   0.00000  Uiso   1.00
Zn1086 Zn    0.13379   0.79124   0.71876   0.00000  Uiso   1.00
Zn1087 Zn    0.21056   0.86442   0.70657   0.00000  Uiso   1.00
Zn1088 Zn    0.12893   0.87106   0.78734   0.00000  Uiso   1.00
C1089  C     0.38599   0.82577   0.76035   0.00000  Uiso   1.00
C1090  C     0.51141   0.83015   0.55613   0.00000  Uiso   1.00
C1091  C     0.53774   0.76640   0.56163   0.00000  Uiso   1.00
C1092  C     0.61404   0.84125   0.74066   0.00000  Uiso   1.00
C1093  C     0.47082   0.85726   0.92205   0.00000  Uiso   1.00
C1094  C     0.65948   0.84762   0.73969   0.00000  Uiso   1.00
C1095  C     0.34101   0.82302   0.76246   0.00000  Uiso   1.00
C1096  C     0.51381   0.98915   0.73669   0.00000  Uiso   1.00
C1097  C     0.48500   0.67834   0.76375   0.00000  Uiso   1.00
C1098  C     0.48936   0.72248   0.76021   0.00000  Uiso   1.00
C1099  C     0.50990   0.94456   0.74021   0.00000  Uiso   1.00
C1100  C     0.44184   0.89684   0.99278   0.00000  Uiso   1.00
C1101  C     0.51849   0.81454   0.62922   0.00000  Uiso   1.00
C1102  C     0.48107   0.85088   0.87157   0.00000  Uiso   1.00
C1103  C     0.53627   0.75258   0.51727   0.00000  Uiso   1.00
C1104  C     0.52531   0.80481   0.58085   0.00000  Uiso   1.00
C1105  C     0.45109   0.89282   0.94564   0.00000  Uiso   1.00
C1106  C     0.51104   0.72014   0.92955   0.00000  Uiso   1.00
C1107  C     0.55869   0.71446   0.99764   0.00000  Uiso   1.00
C1108  C     0.52977   0.67410   0.51099   0.00000  Uiso   1.00
C1109  C     0.43808   0.92511   0.92104   0.00000  Uiso   1.00
C1110  C     0.41906   0.96268   0.94972   0.00000  Uiso   1.00
C1111  C     0.45527   0.87001   0.51665   0.00000  Uiso   1.00
C1112  C     0.43594   0.87149   0.56449   0.00000  Uiso   1.00
C1113  C     0.35367   0.88118   0.71549   0.00000  Uiso   1.00
C1114  C     0.48038   0.83835   0.99349   0.00000  Uiso   1.00
C1115  C     0.48168   0.82826   0.94746   0.00000  Uiso   1.00
C1116  C     0.50197   0.81474   0.51482   0.00000  Uiso   1.00
C1117  C     0.51568   0.77566   0.99381   0.00000  Uiso   1.00
C1118  C     0.50663   0.76160   0.95147   0.00000  Uiso   1.00
C1119  C     0.49063   0.78795   0.92909   0.00000  Uiso   1.00
H1120  H     0.54945   0.74734   0.58127   0.00000  Uiso   1.00
H1121  H     0.54547   0.98015   0.99284   0.00000  Uiso   1.00
H1122  H     0.57186   0.71427   0.96085   0.00000  Uiso   1.00
H1123  H     0.58768   0.71565   0.51066   0.00000  Uiso   1.00
H1124  H     0.38757   0.95257   0.97242   0.00000  Uiso   1.00
H1125  H     0.44120   0.97950   0.96960   0.00000  Uiso   1.00
H1126  H     0.41387   0.98475   0.92736   0.00000  Uiso   1.00
H1127  H     0.46683   0.93781   0.89587   0.00000  Uiso   1.00
H1128  H     0.41345   0.90941   0.90354   0.00000  Uiso   1.00
H1129  H     0.65371   0.79720   0.77934   0.00000  Uiso   1.00
H1130  H     0.54040   0.67045   0.71187   0.00000  Uiso   1.00
H1131  H     0.45795   0.99781   0.78857   0.00000  Uiso   1.00
H1132  H     0.50666   0.86147   0.57067   0.00000  Uiso   1.00
H1133  H     0.42321   0.92071   0.51203   0.00000  Uiso   1.00
H1134  H     0.48233   0.77504   0.89815   0.00000  Uiso   1.00
H1135  H     0.52385   0.67173   0.54773   0.00000  Uiso   1.00
H1136  H     0.49853   0.67318   0.50269   0.00000  Uiso   1.00
N1137  N     0.51451   0.68715   0.91131   0.00000  Uiso   1.00
N1138  N     0.42033   0.87258   0.60271   0.00000  Uiso   1.00
N1139  N     0.37555   0.90814   0.69646   0.00000  Uiso   1.00
O1140  O     0.50000   0.83333   0.75000   0.00000  Uiso   1.00
O1141  O     0.48784   0.79304   0.65458   0.00000  Uiso   1.00
O1142  O     0.46274   0.87058   0.84968   0.00000  Uiso   1.00
O1143  O     0.54157   0.84425   0.64606   0.00000  Uiso   1.00
O1144  O     0.50785   0.82546   0.84968   0.00000  Uiso   1.00
O1145  O     0.51264   0.74686   0.78213   0.00000  Uiso   1.00
O1146  O     0.47965   0.92751   0.77014   0.00000  Uiso   1.00
O1147  O     0.40745   0.79958   0.73413   0.00000  Uiso   1.00
O1148  O     0.60026   0.85939   0.71360   0.00000  Uiso   1.00
O1149  O     0.40405   0.85544   0.78213   0.00000  Uiso   1.00
O1150  O     0.58824   0.81892   0.77013   0.00000  Uiso   1.00
O1151  O     0.47093   0.73610   0.73413   0.00000  Uiso   1.00
O1152  O     0.53678   0.92286   0.71361   0.00000  Uiso   1.00
Zn1153 Zn    0.52672   0.80661   0.78734   0.00000  Uiso   1.00
Zn1154 Zn    0.46713   0.79124   0.71876   0.00000  Uiso   1.00
Zn1155 Zn    0.54389   0.86442   0.70657   0.00000  Uiso   1.00
Zn1156 Zn    0.46226   0.87106   0.78734   0.00000  Uiso   1.00
C1157  C     0.71932   0.82577   0.76035   0.00000  Uiso   1.00
C1158  C     0.84474   0.83015   0.55613   0.00000  Uiso   1.00
C1159  C     0.87108   0.76640   0.56163   0.00000  Uiso   1.00
C1160  C     0.94738   0.84125   0.74066   0.00000  Uiso   1.00
C1161  C     0.80415   0.85726   0.92205   0.00000  Uiso   1.00
C1162  C     0.99281   0.84762   0.73969   0.00000  Uiso   1.00
C1163  C     0.67435   0.82302   0.76246   0.00000  Uiso   1.00
C1164  C     0.84715   0.98915   0.73669   0.00000  Uiso   1.00
C1165  C     0.81834   0.67834   0.76375   0.00000  Uiso   1.00
C1166  C     0.82269   0.72248   0.76021   0.00000  Uiso   1.00
C1167  C     0.84323   0.94456   0.74021   0.00000  Uiso   1.00
C1168  C     0.77517   0.89684   0.99278   0.00000  Uiso   1.00
C1169  C     0.85182   0.81454   0.62922   0.00000  Uiso   1.00
C1170  C     0.81441   0.85088   0.87157   0.00000  Uiso   1.00
C1171  C     0.86960   0.75258   0.51727   0.00000  Uiso   1.00
C1172  C     0.85864   0.80481   0.58085   0.00000  Uiso   1.00
C1173  C     0.78442   0.89282   0.94564   0.00000  Uiso   1.00
C1174  C     0.84438   0.72014   0.92955   0.00000  Uiso   1.00
C1175  C     0.89203   0.71446   0.99764   0.00000  Uiso   1.00
C1176  C     0.86310   0.67410   0.51099   0.00000  Uiso   1.00
C1177  C     0.77141   0.92511   0.92104   0.00000  Uiso   1.00
C1178  C     0.75239   0.96268   0.94972   0.00000  Uiso   1.00
C1179  C     0.78860   0.87001   0.51665   0.00000  Uiso   1.00
C1180  C     0.76927   0.87149   0.56449   0.00000  Uiso   1.00
C1181  C     0.68700   0.88118   0.71549   0.00000  Uiso   1.00
C1182  C     0.81371   0.83835   0.99349   0.00000  Uiso   1.00
C1183  C     0.81501   0.82826   0.94746   0.00000  Uiso   1.00
C1184  C     0.83531   0.81474   0.51482   0.00000  Uiso   1.00
C1185  C     0.84901   0.77566   0.99381   0.00000  Uiso   1.00
C1186  C     0.83996   0.76160   0.95147   0.00000  Uiso   1.00
C1187  C     0.82396   0.78795   0.92909   0.00000  Uiso   1.00
H1188  H     0.88279   0.74734   0.58127   0.00000  Uiso   1.00
H1189  H     0.87880   0.98015   0.99284   0.00000  Uiso   1.00
H1190  H     0.90519   0.71427   0.96085   0.00000  Uiso   1.00
H1191  H     0.92102   0.71565   0.51066   0.00000  Uiso   1.00
H1192  H     0.72090   0.95257   0.97242   0.00000  Uiso   1.00
H1193  H     0.77453   0.97950   0.96960   0.00000  Uiso   1.00
H1194  H     0.74720   0.98475   0.92736   0.00000  Uiso   1.00
H1195  H     0.80016   0.93781   0.89587   0.00000  Uiso   1.00
H1196  H     0.74679   0.90941   0.90354   0.00000  Uiso   1.00
H1197  H     0.98705   0.79720   0.77934   0.00000  Uiso   1.00
H1198  H     0.87374   0.67045   0.71187   0.00000  Uiso   1.00
H1199  H     0.79129   0.99781   0.78857   0.00000  Uiso   1.00
H1200  H     0.83999   0.86147   0.57067   0.00000  Uiso   1.00
H1201  H     0.75654   0.92071   0.51203   0.00000  Uiso   1.00
H1202  H     0.81566   0.77504   0.89815   0.00000  Uiso   1.00
H1203  H     0.85718   0.67173   0.54773   0.00000  Uiso   1.00
H1204  H     0.83187   0.67318   0.50269   0.00000  Uiso   1.00
N1205  N     0.84785   0.68715   0.91131   0.00000  Uiso   1.00
N1206  N     0.75366   0.87258   0.60271   0.00000  Uiso   1.00
N1207  N     0.70888   0.90814   0.69646   0.00000  Uiso   1.00
O1208  O     0.83333   0.83333   0.75000   0.00000  Uiso   1.00
O1209  O     0.82118   0.79304   0.65458   0.00000  Uiso   1.00
O1210  O     0.79607   0.87058   0.84968   0.00000  Uiso   1.00
O1211  O     0.87491   0.84425   0.64606   0.00000  Uiso   1.00
O1212  O     0.84118   0.82546   0.84968   0.00000  Uiso   1.00
O1213  O     0.84597   0.74686   0.78213   0.00000  Uiso   1.00
O1214  O     0.81298   0.92751   0.77014   0.00000  Uiso   1.00
O1215  O     0.74078   0.79958   0.73413   0.00000  Uiso   1.00
O1216  O     0.93360   0.85939   0.71360   0.00000  Uiso   1.00
O1217  O     0.73738   0.85544   0.78213   0.00000  Uiso   1.00
O1218  O     0.92158   0.81892   0.77013   0.00000  Uiso   1.00
O1219  O     0.80426   0.73610   0.73413   0.00000  Uiso   1.00
O1220  O     0.87012   0.92286   0.71361   0.00000  Uiso   1.00
Zn1221 Zn    0.86005   0.80661   0.78734   0.00000  Uiso   1.00
Zn1222 Zn    0.80046   0.79124   0.71876   0.00000  Uiso   1.00
Zn1223 Zn    0.87723   0.86442   0.70657   0.00000  Uiso   1.00
Zn1224 Zn    0.79560   0.87106   0.78734   0.00000  Uiso   1.00
loop_
_geom_bond_atom_site_label_1
_geom_bond_atom_site_label_2
_geom_bond_distance
_geom_bond_site_symmetry_2
_ccdc_geom_bond_type
C1     O59     1.262   .     A
C1     C7      1.440   .     S
C1     O61     1.269   .     A
C2     C16     1.381   .     A
C2     H44     1.079   .     S
C2     C28     1.407   .     A
C3     H32     1.085   .     S
C3     C15     1.401   .     A
C3     C16     1.388   .     A
C4     O60     1.280   .     A
C4     O62     1.280   .     A
C4     C6      1.457   .     S
C5     C27     1.431   .     A
C5     C14     1.504   .     S
C5     C17     1.436   .     A
C6     C75     1.340   .     S
C6     C93     1.451   .     S
C7     C142    1.340   1_455 S
C7     H177    1.087   1_455 S
C8     C11     1.450   .     S
C8     C213    1.331   .     S
C8     H246    1.088   .     S
C9     C10     1.435   .     S
C9     C416    1.331   1_545 S
C9     H451    1.086   1_545 S
C10    O57     1.273   .     A
C10    O63     1.273   .     A
C11    O58     1.272   .     A
C11    O64     1.271   .     A
C12    C17     1.403   .     A
C12    C635    1.389   .     S
C12    H657    1.081   .     S
C13    C16     1.456   .     S
C13    O53     1.271   .     A
C13    O55     1.279   .     A
C14    O56     1.296   .     A
C14    O54     1.285   .     A
C15    C631    1.517   1_554 S
C15    C641    1.439   1_554 S
C17    C21     1.532   .     S
C18    C30     1.445   .     S
C18    N49     1.158   .     T
C19    H34     1.105   .     S
C19    C627    1.517   .     S
C19    C632    1.528   .     S
C19    H647    1.113   .     S
C20    H48     1.108   .     S
C20    H47     1.111   .     S
C20    C631    1.528   1_554 S
C20    H1053   1.110   1_544 S
C21    C22     1.532   .     S
C21    H40     1.111   .     S
C21    H39     1.111   .     S
C22    H37     1.108   .     S
C22    H36     1.111   .     S
C22    H38     1.111   .     S
C23    C24     1.447   .     S
C23    C624    1.389   1_554 S
C23    C638    1.420   1_554 S
C24    N50     1.157   .     T
C25    N51     1.157   .     T
C25    C142    1.451   1_455 S
C26    C27     1.412   .     A
C26    C635    1.420   .     S
C26    C640    1.428   .     S
C27    C31     1.406   .     A
C28    C638    1.428   1_554 S
C28    C641    1.435   1_554 S
C29    C30     1.423   .     A
C29    C640    1.435   .     S
C29    C627    1.439   .     S
C30    C31     1.394   .     A
C31    H46     1.081   .     S
H33    C836    1.110   .     S
H35    C631    1.113   1_554 S
H41    C75     1.087   .     S
H42    C416    1.088   1_545 S
H43    C213    1.086   .     S
H45    C624    1.081   1_554 S
O52    Zn66    1.933   .     S
O52    Zn67    1.939   .     S
O52    Zn65    1.956   .     S
O52    Zn68    1.931   .     S
O53    Zn66    1.926   .     S
O54    Zn68    1.932   .     S
O55    Zn67    1.923   .     S
O56    Zn65    1.919   .     S
O57    Zn65    1.925   .     S
O58    Zn68    1.932   .     S
O59    Zn66    1.932   .     S
O60    Zn67    1.938   .     S
O61    Zn68    1.932   .     S
O62    Zn65    1.929   .     S
O63    Zn66    1.937   .     S
O64    Zn67    1.928   .     S
C69    O127    1.262   .     A
C69    C75     1.440   .     S
C69    O129    1.269   .     A
C70    C84     1.381   .     A
C70    H112    1.079   .     S
C70    C96     1.407   .     A
C71    H100    1.085   .     S
C71    C83     1.401   .     A
C71    C84     1.388   .     A
C72    O128    1.280   .     A
C72    O130    1.280   .     A
C72    C74     1.457   .     S
C73    C95     1.431   .     A
C73    C82     1.504   .     S
C73    C85     1.436   .     A
C74    C143    1.340   .     S
C74    C161    1.451   .     S
C76    C79     1.450   .     S
C76    C281    1.331   .     S
C76    H314    1.088   .     S
C77    C78     1.435   .     S
C77    C484    1.331   1_545 S
C77    H519    1.086   1_545 S
C78    O125    1.273   .     A
C78    O131    1.273   .     A
C79    O126    1.272   .     A
C79    O132    1.271   .     A
C80    C85     1.403   .     A
C80    C703    1.389   .     S
C80    H725    1.081   .     S
C81    C84     1.456   .     S
C81    O121    1.271   .     A
C81    O123    1.279   .     A
C82    O124    1.296   .     A
C82    O122    1.285   .     A
C83    C699    1.517   1_554 S
C83    C709    1.439   1_554 S
C85    C89     1.532   .     S
C86    C98     1.445   .     S
C86    N117    1.158   .     T
C87    H102    1.105   .     S
C87    C695    1.517   .     S
C87    C700    1.528   .     S
C87    H715    1.113   .     S
C88    H116    1.108   .     S
C88    H115    1.111   .     S
C88    C699    1.528   1_554 S
C88    H1121   1.110   1_544 S
C89    C90     1.532   .     S
C89    H108    1.111   .     S
C89    H107    1.111   .     S
C90    H105    1.108   .     S
C90    H104    1.111   .     S
C90    H106    1.111   .     S
C91    C92     1.447   .     S
C91    C692    1.389   1_554 S
C91    C706    1.420   1_554 S
C92    N118    1.157   .     T
C93    N119    1.157   .     T
C94    C95     1.412   .     A
C94    C703    1.420   .     S
C94    C708    1.428   .     S
C95    C99     1.406   .     A
C96    C706    1.428   1_554 S
C96    C709    1.435   1_554 S
C97    C98     1.423   .     A
C97    C708    1.435   .     S
C97    C695    1.439   .     S
C98    C99     1.394   .     A
C99    H114    1.081   .     S
H101   C904    1.110   .     S
H103   C699    1.113   1_554 S
H109   C143    1.087   .     S
H110   C484    1.088   1_545 S
H111   C281    1.086   .     S
H113   C692    1.081   1_554 S
O120   Zn134   1.933   .     S
O120   Zn135   1.939   .     S
O120   Zn133   1.956   .     S
O120   Zn136   1.931   .     S
O121   Zn134   1.926   .     S
O122   Zn136   1.932   .     S
O123   Zn135   1.923   .     S
O124   Zn133   1.919   .     S
O125   Zn133   1.925   .     S
O126   Zn136   1.932   .     S
O127   Zn134   1.932   .     S
O128   Zn135   1.938   .     S
O129   Zn136   1.932   .     S
O130   Zn133   1.929   .     S
O131   Zn134   1.937   .     S
O132   Zn135   1.928   .     S
C137   O195    1.262   .     A
C137   C143    1.440   .     S
C137   O197    1.269   .     A
C138   C152    1.381   .     A
C138   H180    1.079   .     S
C138   C164    1.407   .     A
C139   H168    1.085   .     S
C139   C151    1.401   .     A
C139   C152    1.388   .     A
C140   O196    1.280   .     A
C140   O198    1.280   .     A
C140   C142    1.457   .     S
C141   C163    1.431   .     A
C141   C150    1.504   .     S
C141   C153    1.436   .     A
C142   C7      1.340   1_655 S
C142   C25     1.451   1_655 S
C144   C147    1.450   .     S
C144   C349    1.331   .     S
C144   H382    1.088   .     S
C145   C146    1.435   .     S
C145   C552    1.331   1_545 S
C145   H587    1.086   1_545 S
C146   O193    1.273   .     A
C146   O199    1.273   .     A
C147   O194    1.272   .     A
C147   O200    1.271   .     A
C148   C153    1.403   .     A
C148   C771    1.389   .     S
C148   H793    1.081   .     S
C149   C152    1.456   .     S
C149   O189    1.271   .     A
C149   O191    1.279   .     A
C150   O192    1.296   .     A
C150   O190    1.285   .     A
C151   C767    1.517   1_554 S
C151   C777    1.439   1_554 S
C153   C157    1.532   .     S
C154   C166    1.445   .     S
C154   N185    1.158   .     T
C155   H170    1.105   .     S
C155   C763    1.517   .     S
C155   C768    1.528   .     S
C155   H783    1.113   .     S
C156   H184    1.108   .     S
C156   H183    1.111   .     S
C156   C767    1.528   1_554 S
C156   H1189   1.110   1_544 S
C157   C158    1.532   .     S
C157   H176    1.111   .     S
C157   H175    1.111   .     S
C158   H173    1.108   .     S
C158   H172    1.111   .     S
C158   H174    1.111   .     S
C159   C160    1.447   .     S
C159   C760    1.389   1_554 S
C159   C774    1.420   1_554 S
C160   N186    1.157   .     T
C161   N187    1.157   .     T
C162   C163    1.412   .     A
C162   C771    1.420   .     S
C162   C776    1.428   .     S
C163   C167    1.406   .     A
C164   C774    1.428   1_554 S
C164   C777    1.435   1_554 S
C165   C166    1.423   .     A
C165   C776    1.435   .     S
C165   C763    1.439   .     S
C166   C167    1.394   .     A
C167   H182    1.081   .     S
H169   C972    1.110   .     S
H171   C767    1.113   1_554 S
H177   C7      1.087   1_655 S
H178   C552    1.088   1_545 S
H179   C349    1.086   .     S
H181   C760    1.081   1_554 S
O188   Zn202   1.933   .     S
O188   Zn203   1.939   .     S
O188   Zn201   1.956   .     S
O188   Zn204   1.931   .     S
O189   Zn202   1.926   .     S
O190   Zn204   1.932   .     S
O191   Zn203   1.923   .     S
O192   Zn201   1.919   .     S
O193   Zn201   1.925   .     S
O194   Zn204   1.932   .     S
O195   Zn202   1.932   .     S
O196   Zn203   1.938   .     S
O197   Zn204   1.932   .     S
O198   Zn201   1.929   .     S
O199   Zn202   1.937   .     S
O200   Zn203   1.928   .     S
C205   O263    1.262   .     A
C205   C211    1.440   .     S
C205   O265    1.269   .     A
C206   C220    1.381   .     A
C206   H248    1.079   .     S
C206   C232    1.407   .     A
C207   H236    1.085   .     S
C207   C219    1.401   .     A
C207   C220    1.388   .     A
C208   O264    1.280   .     A
C208   O266    1.280   .     A
C208   C210    1.457   .     S
C209   C231    1.431   .     A
C209   C218    1.504   .     S
C209   C221    1.436   .     A
C210   C279    1.340   .     S
C210   C297    1.451   .     S
C211   C346    1.340   1_455 S
C211   H381    1.087   1_455 S
C212   C215    1.450   .     S
C212   C417    1.331   .     S
C212   H450    1.088   .     S
C213   C214    1.435   .     S
C214   O261    1.273   .     A
C214   O267    1.273   .     A
C215   O262    1.272   .     A
C215   O268    1.271   .     A
C216   C221    1.403   .     A
C216   C839    1.389   .     S
C216   H861    1.081   .     S
C217   C220    1.456   .     S
C217   O257    1.271   .     A
C217   O259    1.279   .     A
C218   O260    1.296   .     A
C218   O258    1.285   .     A
C219   C835    1.517   1_554 S
C219   C845    1.439   1_554 S
C221   C225    1.532   .     S
C222   C234    1.445   .     S
C222   N253    1.158   .     T
C223   H238    1.105   .     S
C223   C831    1.517   .     S
C223   C836    1.528   .     S
C223   H851    1.113   .     S
C224   H252    1.108   .     S
C224   H251    1.111   .     S
C224   C835    1.528   1_554 S
C224   H645    1.110   1_554 S
C225   C226    1.532   .     S
C225   H244    1.111   .     S
C225   H243    1.111   .     S
C226   H241    1.108   .     S
C226   H240    1.111   .     S
C226   H242    1.111   .     S
C227   C228    1.447   .     S
C227   C828    1.389   1_554 S
C227   C842    1.420   1_554 S
C228   N254    1.157   .     T
C229   N255    1.157   .     T
C229   C346    1.451   1_455 S
C230   C231    1.412   .     A
C230   C839    1.420   .     S
C230   C844    1.428   .     S
C231   C235    1.406   .     A
C232   C842    1.428   1_554 S
C232   C845    1.435   1_554 S
C233   C234    1.423   .     A
C233   C844    1.435   .     S
C233   C831    1.439   .     S
C234   C235    1.394   .     A
C235   H250    1.081   .     S
H237   C1040   1.110   .     S
H239   C835    1.113   1_554 S
H245   C279    1.087   .     S
H247   C417    1.086   .     S
H249   C828    1.081   1_554 S
O256   Zn270   1.933   .     S
O256   Zn271   1.939   .     S
O256   Zn269   1.956   .     S
O256   Zn272   1.931   .     S
O257   Zn270   1.926   .     S
O258   Zn272   1.932   .     S
O259   Zn271   1.923   .     S
O260   Zn269   1.919   .     S
O261   Zn269   1.925   .     S
O262   Zn272   1.932   .     S
O263   Zn270   1.932   .     S
O264   Zn271   1.938   .     S
O265   Zn272   1.932   .     S
O266   Zn269   1.929   .     S
O267   Zn270   1.937   .     S
O268   Zn271   1.928   .     S
C273   O331    1.262   .     A
C273   C279    1.440   .     S
C273   O333    1.269   .     A
C274   C288    1.381   .     A
C274   H316    1.079   .     S
C274   C300    1.407   .     A
C275   H304    1.085   .     S
C275   C287    1.401   .     A
C275   C288    1.388   .     A
C276   O332    1.280   .     A
C276   O334    1.280   .     A
C276   C278    1.457   .     S
C277   C299    1.431   .     A
C277   C286    1.504   .     S
C277   C289    1.436   .     A
C278   C347    1.340   .     S
C278   C365    1.451   .     S
C280   C283    1.450   .     S
C280   C485    1.331   .     S
C280   H518    1.088   .     S
C281   C282    1.435   .     S
C282   O329    1.273   .     A
C282   O335    1.273   .     A
C283   O330    1.272   .     A
C283   O336    1.271   .     A
C284   C289    1.403   .     A
C284   C907    1.389   .     S
C284   H929    1.081   .     S
C285   C288    1.456   .     S
C285   O325    1.271   .     A
C285   O327    1.279   .     A
C286   O328    1.296   .     A
C286   O326    1.285   .     A
C287   C903    1.517   1_554 S
C287   C913    1.439   1_554 S
C289   C293    1.532   .     S
C290   C302    1.445   .     S
C290   N321    1.158   .     T
C291   H306    1.105   .     S
C291   C899    1.517   .     S
C291   C904    1.528   .     S
C291   H919    1.113   .     S
C292   H320    1.108   .     S
C292   H319    1.111   .     S
C292   C903    1.528   1_554 S
C292   H713    1.110   1_554 S
C293   C294    1.532   .     S
C293   H312    1.111   .     S
C293   H311    1.111   .     S
C294   H309    1.108   .     S
C294   H308    1.111   .     S
C294   H310    1.111   .     S
C295   C296    1.447   .     S
C295   C896    1.389   1_554 S
C295   C910    1.420   1_554 S
C296   N322    1.157   .     T
C297   N323    1.157   .     T
C298   C299    1.412   .     A
C298   C907    1.420   .     S
C298   C912    1.428   .     S
C299   C303    1.406   .     A
C300   C910    1.428   1_554 S
C300   C913    1.435   1_554 S
C301   C302    1.423   .     A
C301   C912    1.435   .     S
C301   C899    1.439   .     S
C302   C303    1.394   .     A
C303   H318    1.081   .     S
H305   C1108   1.110   .     S
H307   C903    1.113   1_554 S
H313   C347    1.087   .     S
H315   C485    1.086   .     S
H317   C896    1.081   1_554 S
O324   Zn338   1.933   .     S
O324   Zn339   1.939   .     S
O324   Zn337   1.956   .     S
O324   Zn340   1.931   .     S
O325   Zn338   1.926   .     S
O326   Zn340   1.932   .     S
O327   Zn339   1.923   .     S
O328   Zn337   1.919   .     S
O329   Zn337   1.925   .     S
O330   Zn340   1.932   .     S
O331   Zn338   1.932   .     S
O332   Zn339   1.938   .     S
O333   Zn340   1.932   .     S
O334   Zn337   1.929   .     S
O335   Zn338   1.937   .     S
O336   Zn339   1.928   .     S
C341   O399    1.262   .     A
C341   C347    1.440   .     S
C341   O401    1.269   .     A
C342   C356    1.381   .     A
C342   H384    1.079   .     S
C342   C368    1.407   .     A
C343   H372    1.085   .     S
C343   C355    1.401   .     A
C343   C356    1.388   .     A
C344   O400    1.280   .     A
C344   O402    1.280   .     A
C344   C346    1.457   .     S
C345   C367    1.431   .     A
C345   C354    1.504   .     S
C345   C357    1.436   .     A
C346   C211    1.340   1_655 S
C346   C229    1.451   1_655 S
C348   C351    1.450   .     S
C348   C553    1.331   .     S
C348   H586    1.088   .     S
C349   C350    1.435   .     S
C350   O397    1.273   .     A
C350   O403    1.273   .     A
C351   O398    1.272   .     A
C351   O404    1.271   .     A
C352   C357    1.403   .     A
C352   C975    1.389   .     S
C352   H997    1.081   .     S
C353   C356    1.456   .     S
C353   O393    1.271   .     A
C353   O395    1.279   .     A
C354   O396    1.296   .     A
C354   O394    1.285   .     A
C355   C971    1.517   1_554 S
C355   C981    1.439   1_554 S
C357   C361    1.532   .     S
C358   C370    1.445   .     S
C358   N389    1.158   .     T
C359   H374    1.105   .     S
C359   C967    1.517   .     S
C359   C972    1.528   .     S
C359   H987    1.113   .     S
C360   H388    1.108   .     S
C360   H387    1.111   .     S
C360   C971    1.528   1_554 S
C360   H781    1.110   1_554 S
C361   C362    1.532   .     S
C361   H380    1.111   .     S
C361   H379    1.111   .     S
C362   H377    1.108   .     S
C362   H376    1.111   .     S
C362   H378    1.111   .     S
C363   C364    1.447   .     S
C363   C964    1.389   1_554 S
C363   C978    1.420   1_554 S
C364   N390    1.157   .     T
C365   N391    1.157   .     T
C366   C367    1.412   .     A
C366   C975    1.420   .     S
C366   C980    1.428   .     S
C367   C371    1.406   .     A
C368   C978    1.428   1_554 S
C368   C981    1.435   1_554 S
C369   C370    1.423   .     A
C369   C980    1.435   .     S
C369   C967    1.439   .     S
C370   C371    1.394   .     A
C371   H386    1.081   .     S
H373   C1176   1.110   .     S
H375   C971    1.113   1_554 S
H381   C211    1.087   1_655 S
H383   C553    1.086   .     S
H385   C964    1.081   1_554 S
O392   Zn406   1.933   .     S
O392   Zn407   1.939   .     S
O392   Zn405   1.956   .     S
O392   Zn408   1.931   .     S
O393   Zn406   1.926   .     S
O394   Zn408   1.932   .     S
O395   Zn407   1.923   .     S
O396   Zn405   1.919   .     S
O397   Zn405   1.925   .     S
O398   Zn408   1.932   .     S
O399   Zn406   1.932   .     S
O400   Zn407   1.938   .     S
O401   Zn408   1.932   .     S
O402   Zn405   1.929   .     S
O403   Zn406   1.937   .     S
O404   Zn407   1.928   .     S
C409   O467    1.262   .     A
C409   C415    1.440   .     S
C409   O469    1.269   .     A
C410   C424    1.381   .     A
C410   H452    1.079   .     S
C410   C436    1.407   .     A
C411   H440    1.085   .     S
C411   C423    1.401   .     A
C411   C424    1.388   .     A
C412   O468    1.280   .     A
C412   O470    1.280   .     A
C412   C414    1.457   .     S
C413   C435    1.431   .     A
C413   C422    1.504   .     S
C413   C425    1.436   .     A
C414   C483    1.340   .     S
C414   C501    1.451   .     S
C415   C550    1.340   1_455 S
C415   H585    1.087   1_455 S
C416   C419    1.450   .     S
C416   C9      1.331   1_565 S
C416   H42     1.088   1_565 S
C417   C418    1.435   .     S
C418   O465    1.273   .     A
C418   O471    1.273   .     A
C419   O466    1.272   .     A
C419   O472    1.271   .     A
C420   C425    1.403   .     A
C420   C1043   1.389   .     S
C420   H1065   1.081   .     S
C421   C424    1.456   .     S
C421   O461    1.271   .     A
C421   O463    1.279   .     A
C422   O464    1.296   .     A
C422   O462    1.285   .     A
C423   C1039   1.517   1_554 S
C423   C1049   1.439   1_554 S
C425   C429    1.532   .     S
C426   C438    1.445   .     S
C426   N457    1.158   .     T
C427   H442    1.105   .     S
C427   C1035   1.517   .     S
C427   C1040   1.528   .     S
C427   H1055   1.113   .     S
C428   H456    1.108   .     S
C428   H455    1.111   .     S
C428   C1039   1.528   1_554 S
C428   H849    1.110   1_554 S
C429   C430    1.532   .     S
C429   H448    1.111   .     S
C429   H447    1.111   .     S
C430   H445    1.108   .     S
C430   H444    1.111   .     S
C430   H446    1.111   .     S
C431   C432    1.447   .     S
C431   C1032   1.389   1_554 S
C431   C1046   1.420   1_554 S
C432   N458    1.157   .     T
C433   N459    1.157   .     T
C433   C550    1.451   1_455 S
C434   C435    1.412   .     A
C434   C1043   1.420   .     S
C434   C1048   1.428   .     S
C435   C439    1.406   .     A
C436   C1046   1.428   1_554 S
C436   C1049   1.435   1_554 S
C437   C438    1.423   .     A
C437   C1048   1.435   .     S
C437   C1035   1.439   .     S
C438   C439    1.394   .     A
C439   H454    1.081   .     S
H441   C632    1.110   1_565 S
H443   C1039   1.113   1_554 S
H449   C483    1.087   .     S
H451   C9      1.086   1_565 S
H453   C1032   1.081   1_554 S
O460   Zn474   1.933   .     S
O460   Zn475   1.939   .     S
O460   Zn473   1.956   .     S
O460   Zn476   1.931   .     S
O461   Zn474   1.926   .     S
O462   Zn476   1.932   .     S
O463   Zn475   1.923   .     S
O464   Zn473   1.919   .     S
O465   Zn473   1.925   .     S
O466   Zn476   1.932   .     S
O467   Zn474   1.932   .     S
O468   Zn475   1.938   .     S
O469   Zn476   1.932   .     S
O470   Zn473   1.929   .     S
O471   Zn474   1.937   .     S
O472   Zn475   1.928   .     S
C477   O535    1.262   .     A
C477   C483    1.440   .     S
C477   O537    1.269   .     A
C478   C492    1.381   .     A
C478   H520    1.079   .     S
C478   C504    1.407   .     A
C479   H508    1.085   .     S
C479   C491    1.401   .     A
C479   C492    1.388   .     A
C480   O536    1.280   .     A
C480   O538    1.280   .     A
C480   C482    1.457   .     S
C481   C503    1.431   .     A
C481   C490    1.504   .     S
C481   C493    1.436   .     A
C482   C551    1.340   .     S
C482   C569    1.451   .     S
C484   C487    1.450   .     S
C484   C77     1.331   1_565 S
C484   H110    1.088   1_565 S
C485   C486    1.435   .     S
C486   O533    1.273   .     A
C486   O539    1.273   .     A
C487   O534    1.272   .     A
C487   O540    1.271   .     A
C488   C493    1.403   .     A
C488   C1111   1.389   .     S
C488   H1133   1.081   .     S
C489   C492    1.456   .     S
C489   O529    1.271   .     A
C489   O531    1.279   .     A
C490   O532    1.296   .     A
C490   O530    1.285   .     A
C491   C1107   1.517   1_554 S
C491   C1117   1.439   1_554 S
C493   C497    1.532   .     S
C494   C506    1.445   .     S
C494   N525    1.158   .     T
C495   H510    1.105   .     S
C495   C1103   1.517   .     S
C495   C1108   1.528   .     S
C495   H1123   1.113   .     S
C496   H524    1.108   .     S
C496   H523    1.111   .     S
C496   C1107   1.528   1_554 S
C496   H917    1.110   1_554 S
C497   C498    1.532   .     S
C497   H516    1.111   .     S
C497   H515    1.111   .     S
C498   H513    1.108   .     S
C498   H512    1.111   .     S
C498   H514    1.111   .     S
C499   C500    1.447   .     S
C499   C1100   1.389   1_554 S
C499   C1114   1.420   1_554 S
C500   N526    1.157   .     T
C501   N527    1.157   .     T
C502   C503    1.412   .     A
C502   C1111   1.420   .     S
C502   C1116   1.428   .     S
C503   C507    1.406   .     A
C504   C1114   1.428   1_554 S
C504   C1117   1.435   1_554 S
C505   C506    1.423   .     A
C505   C1116   1.435   .     S
C505   C1103   1.439   .     S
C506   C507    1.394   .     A
C507   H522    1.081   .     S
H509   C700    1.110   1_565 S
H511   C1107   1.113   1_554 S
H517   C551    1.087   .     S
H519   C77     1.086   1_565 S
H521   C1100   1.081   1_554 S
O528   Zn542   1.933   .     S
O528   Zn543   1.939   .     S
O528   Zn541   1.956   .     S
O528   Zn544   1.931   .     S
O529   Zn542   1.926   .     S
O530   Zn544   1.932   .     S
O531   Zn543   1.923   .     S
O532   Zn541   1.919   .     S
O533   Zn541   1.925   .     S
O534   Zn544   1.932   .     S
O535   Zn542   1.932   .     S
O536   Zn543   1.938   .     S
O537   Zn544   1.932   .     S
O538   Zn541   1.929   .     S
O539   Zn542   1.937   .     S
O540   Zn543   1.928   .     S
C545   O603    1.262   .     A
C545   C551    1.440   .     S
C545   O605    1.269   .     A
C546   C560    1.381   .     A
C546   H588    1.079   .     S
C546   C572    1.407   .     A
C547   H576    1.085   .     S
C547   C559    1.401   .     A
C547   C560    1.388   .     A
C548   O604    1.280   .     A
C548   O606    1.280   .     A
C548   C550    1.457   .     S
C549   C571    1.431   .     A
C549   C558    1.504   .     S
C549   C561    1.436   .     A
C550   C415    1.340   1_655 S
C550   C433    1.451   1_655 S
C552   C555    1.450   .     S
C552   C145    1.331   1_565 S
C552   H178    1.088   1_565 S
C553   C554    1.435   .     S
C554   O601    1.273   .     A
C554   O607    1.273   .     A
C555   O602    1.272   .     A
C555   O608    1.271   .     A
C556   C561    1.403   .     A
C556   C1179   1.389   .     S
C556   H1201   1.081   .     S
C557   C560    1.456   .     S
C557   O597    1.271   .     A
C557   O599    1.279   .     A
C558   O600    1.296   .     A
C558   O598    1.285   .     A
C559   C1175   1.517   1_554 S
C559   C1185   1.439   1_554 S
C561   C565    1.532   .     S
C562   C574    1.445   .     S
C562   N593    1.158   .     T
C563   H578    1.105   .     S
C563   C1171   1.517   .     S
C563   C1176   1.528   .     S
C563   H1191   1.113   .     S
C564   H592    1.108   .     S
C564   H591    1.111   .     S
C564   C1175   1.528   1_554 S
C564   H985    1.110   1_554 S
C565   C566    1.532   .     S
C565   H584    1.111   .     S
C565   H583    1.111   .     S
C566   H581    1.108   .     S
C566   H580    1.111   .     S
C566   H582    1.111   .     S
C567   C568    1.447   .     S
C567   C1168   1.389   1_554 S
C567   C1182   1.420   1_554 S
C568   N594    1.157   .     T
C569   N595    1.157   .     T
C570   C571    1.412   .     A
C570   C1179   1.420   .     S
C570   C1184   1.428   .     S
C571   C575    1.406   .     A
C572   C1182   1.428   1_554 S
C572   C1185   1.435   1_554 S
C573   C574    1.423   .     A
C573   C1184   1.435   .     S
C573   C1171   1.439   .     S
C574   C575    1.394   .     A
C575   H590    1.081   .     S
H577   C768    1.110   1_565 S
H579   C1175   1.113   1_554 S
H585   C415    1.087   1_655 S
H587   C145    1.086   1_565 S
H589   C1168   1.081   1_554 S
O596   Zn610   1.933   .     S
O596   Zn611   1.939   .     S
O596   Zn609   1.956   .     S
O596   Zn612   1.931   .     S
O597   Zn610   1.926   .     S
O598   Zn612   1.932   .     S
O599   Zn611   1.923   .     S
O600   Zn609   1.919   .     S
O601   Zn609   1.925   .     S
O602   Zn612   1.932   .     S
O603   Zn610   1.932   .     S
O604   Zn611   1.938   .     S
O605   Zn612   1.932   .     S
O606   Zn609   1.929   .     S
O607   Zn610   1.937   .     S
O608   Zn611   1.928   .     S
C613   O671    1.262   .     A
C613   C619    1.440   .     S
C613   O673    1.269   .     A
C614   C628    1.381   .     A
C614   H656    1.079   .     S
C614   C640    1.407   .     A
C615   H644    1.085   .     S
C615   C627    1.401   .     A
C615   C628    1.388   .     A
C616   O672    1.280   .     A
C616   O674    1.280   .     A
C616   C618    1.457   .     S
C617   C639    1.431   .     A
C617   C626    1.504   .     S
C617   C629    1.436   .     A
C618   C687    1.340   .     S
C618   C705    1.451   .     S
C619   C754    1.340   1_455 S
C619   H789    1.087   1_455 S
C620   C623    1.450   .     S
C620   C825    1.331   .     S
C620   H858    1.088   .     S
C621   C622    1.435   .     S
C621   C1028   1.331   1_545 S
C621   H1063   1.086   1_545 S
C622   O669    1.273   .     A
C622   O675    1.273   .     A
C623   O670    1.272   .     A
C623   O676    1.271   .     A
C624   C629    1.403   .     A
C624   C23     1.389   1_556 S
C624   H45     1.081   1_556 S
C625   C628    1.456   .     S
C625   O665    1.271   .     A
C625   O667    1.279   .     A
C626   O668    1.296   .     A
C626   O666    1.285   .     A
C629   C633    1.532   .     S
C630   C642    1.445   .     S
C630   N661    1.158   .     T
C631   H646    1.105   .     S
C631   C15     1.517   1_556 S
C631   C20     1.528   1_556 S
C631   H35     1.113   1_556 S
C632   H660    1.108   .     S
C632   H659    1.111   .     S
C632   H441    1.110   1_545 S
C633   C634    1.532   .     S
C633   H652    1.111   .     S
C633   H651    1.111   .     S
C634   H649    1.108   .     S
C634   H648    1.111   .     S
C634   H650    1.111   .     S
C635   C636    1.447   .     S
C636   N662    1.157   .     T
C637   N663    1.157   .     T
C637   C754    1.451   1_455 S
C638   C639    1.412   .     A
C638   C23     1.420   1_556 S
C638   C28     1.428   1_556 S
C639   C643    1.406   .     A
C641   C642    1.423   .     A
C641   C28     1.435   1_556 S
C641   C15     1.439   1_556 S
C642   C643    1.394   .     A
C643   H658    1.081   .     S
H645   C224    1.110   1_556 S
H653   C687    1.087   .     S
H654   C1028   1.088   1_545 S
H655   C825    1.086   .     S
O664   Zn678   1.933   .     S
O664   Zn679   1.939   .     S
O664   Zn677   1.956   .     S
O664   Zn680   1.931   .     S
O665   Zn678   1.926   .     S
O666   Zn680   1.932   .     S
O667   Zn679   1.923   .     S
O668   Zn677   1.919   .     S
O669   Zn677   1.925   .     S
O670   Zn680   1.932   .     S
O671   Zn678   1.932   .     S
O672   Zn679   1.938   .     S
O673   Zn680   1.932   .     S
O674   Zn677   1.929   .     S
O675   Zn678   1.937   .     S
O676   Zn679   1.928   .     S
C681   O739    1.262   .     A
C681   C687    1.440   .     S
C681   O741    1.269   .     A
C682   C696    1.381   .     A
C682   H724    1.079   .     S
C682   C708    1.407   .     A
C683   H712    1.085   .     S
C683   C695    1.401   .     A
C683   C696    1.388   .     A
C684   O740    1.280   .     A
C684   O742    1.280   .     A
C684   C686    1.457   .     S
C685   C707    1.431   .     A
C685   C694    1.504   .     S
C685   C697    1.436   .     A
C686   C755    1.340   .     S
C686   C773    1.451   .     S
C688   C691    1.450   .     S
C688   C893    1.331   .     S
C688   H926    1.088   .     S
C689   C690    1.435   .     S
C689   C1096   1.331   1_545 S
C689   H1131   1.086   1_545 S
C690   O737    1.273   .     A
C690   O743    1.273   .     A
C691   O738    1.272   .     A
C691   O744    1.271   .     A
C692   C697    1.403   .     A
C692   C91     1.389   1_556 S
C692   H113    1.081   1_556 S
C693   C696    1.456   .     S
C693   O733    1.271   .     A
C693   O735    1.279   .     A
C694   O736    1.296   .     A
C694   O734    1.285   .     A
C697   C701    1.532   .     S
C698   C710    1.445   .     S
C698   N729    1.158   .     T
C699   H714    1.105   .     S
C699   C83     1.517   1_556 S
C699   C88     1.528   1_556 S
C699   H103    1.113   1_556 S
C700   H728    1.108   .     S
C700   H727    1.111   .     S
C700   H509    1.110   1_545 S
C701   C702    1.532   .     S
C701   H720    1.111   .     S
C701   H719    1.111   .     S
C702   H717    1.108   .     S
C702   H716    1.111   .     S
C702   H718    1.111   .     S
C703   C704    1.447   .     S
C704   N730    1.157   .     T
C705   N731    1.157   .     T
C706   C707    1.412   .     A
C706   C91     1.420   1_556 S
C706   C96     1.428   1_556 S
C707   C711    1.406   .     A
C709   C710    1.423   .     A
C709   C96     1.435   1_556 S
C709   C83     1.439   1_556 S
C710   C711    1.394   .     A
C711   H726    1.081   .     S
H713   C292    1.110   1_556 S
H721   C755    1.087   .     S
H722   C1096   1.088   1_545 S
H723   C893    1.086   .     S
O732   Zn746   1.933   .     S
O732   Zn747   1.939   .     S
O732   Zn745   1.956   .     S
O732   Zn748   1.931   .     S
O733   Zn746   1.926   .     S
O734   Zn748   1.932   .     S
O735   Zn747   1.923   .     S
O736   Zn745   1.919   .     S
O737   Zn745   1.925   .     S
O738   Zn748   1.932   .     S
O739   Zn746   1.932   .     S
O740   Zn747   1.938   .     S
O741   Zn748   1.932   .     S
O742   Zn745   1.929   .     S
O743   Zn746   1.937   .     S
O744   Zn747   1.928   .     S
C749   O807    1.262   .     A
C749   C755    1.440   .     S
C749   O809    1.269   .     A
C750   C764    1.381   .     A
C750   H792    1.079   .     S
C750   C776    1.407   .     A
C751   H780    1.085   .     S
C751   C763    1.401   .     A
C751   C764    1.388   .     A
C752   O808    1.280   .     A
C752   O810    1.280   .     A
C752   C754    1.457   .     S
C753   C775    1.431   .     A
C753   C762    1.504   .     S
C753   C765    1.436   .     A
C754   C619    1.340   1_655 S
C754   C637    1.451   1_655 S
C756   C759    1.450   .     S
C756   C961    1.331   .     S
C756   H994    1.088   .     S
C757   C758    1.435   .     S
C757   C1164   1.331   1_545 S
C757   H1199   1.086   1_545 S
C758   O805    1.273   .     A
C758   O811    1.273   .     A
C759   O806    1.272   .     A
C759   O812    1.271   .     A
C760   C765    1.403   .     A
C760   C159    1.389   1_556 S
C760   H181    1.081   1_556 S
C761   C764    1.456   .     S
C761   O801    1.271   .     A
C761   O803    1.279   .     A
C762   O804    1.296   .     A
C762   O802    1.285   .     A
C765   C769    1.532   .     S
C766   C778    1.445   .     S
C766   N797    1.158   .     T
C767   H782    1.105   .     S
C767   C151    1.517   1_556 S
C767   C156    1.528   1_556 S
C767   H171    1.113   1_556 S
C768   H796    1.108   .     S
C768   H795    1.111   .     S
C768   H577    1.110   1_545 S
C769   C770    1.532   .     S
C769   H788    1.111   .     S
C769   H787    1.111   .     S
C770   H785    1.108   .     S
C770   H784    1.111   .     S
C770   H786    1.111   .     S
C771   C772    1.447   .     S
C772   N798    1.157   .     T
C773   N799    1.157   .     T
C774   C775    1.412   .     A
C774   C159    1.420   1_556 S
C774   C164    1.428   1_556 S
C775   C779    1.406   .     A
C777   C778    1.423   .     A
C777   C164    1.435   1_556 S
C777   C151    1.439   1_556 S
C778   C779    1.394   .     A
C779   H794    1.081   .     S
H781   C360    1.110   1_556 S
H789   C619    1.087   1_655 S
H790   C1164   1.088   1_545 S
H791   C961    1.086   .     S
O800   Zn814   1.933   .     S
O800   Zn815   1.939   .     S
O800   Zn813   1.956   .     S
O800   Zn816   1.931   .     S
O801   Zn814   1.926   .     S
O802   Zn816   1.932   .     S
O803   Zn815   1.923   .     S
O804   Zn813   1.919   .     S
O805   Zn813   1.925   .     S
O806   Zn816   1.932   .     S
O807   Zn814   1.932   .     S
O808   Zn815   1.938   .     S
O809   Zn816   1.932   .     S
O810   Zn813   1.929   .     S
O811   Zn814   1.937   .     S
O812   Zn815   1.928   .     S
C817   O875    1.262   .     A
C817   C823    1.440   .     S
C817   O877    1.269   .     A
C818   C832    1.381   .     A
C818   H860    1.079   .     S
C818   C844    1.407   .     A
C819   H848    1.085   .     S
C819   C831    1.401   .     A
C819   C832    1.388   .     A
C820   O876    1.280   .     A
C820   O878    1.280   .     A
C820   C822    1.457   .     S
C821   C843    1.431   .     A
C821   C830    1.504   .     S
C821   C833    1.436   .     A
C822   C891    1.340   .     S
C822   C909    1.451   .     S
C823   C958    1.340   1_455 S
C823   H993    1.087   1_455 S
C824   C827    1.450   .     S
C824   C1029   1.331   .     S
C824   H1062   1.088   .     S
C825   C826    1.435   .     S
C826   O873    1.273   .     A
C826   O879    1.273   .     A
C827   O874    1.272   .     A
C827   O880    1.271   .     A
C828   C833    1.403   .     A
C828   C227    1.389   1_556 S
C828   H249    1.081   1_556 S
C829   C832    1.456   .     S
C829   O869    1.271   .     A
C829   O871    1.279   .     A
C830   O872    1.296   .     A
C830   O870    1.285   .     A
C833   C837    1.532   .     S
C834   C846    1.445   .     S
C834   N865    1.158   .     T
C835   H850    1.105   .     S
C835   C219    1.517   1_556 S
C835   C224    1.528   1_556 S
C835   H239    1.113   1_556 S
C836   H864    1.108   .     S
C836   H863    1.111   .     S
C837   C838    1.532   .     S
C837   H856    1.111   .     S
C837   H855    1.111   .     S
C838   H853    1.108   .     S
C838   H852    1.111   .     S
C838   H854    1.111   .     S
C839   C840    1.447   .     S
C840   N866    1.157   .     T
C841   N867    1.157   .     T
C841   C958    1.451   1_455 S
C842   C843    1.412   .     A
C842   C227    1.420   1_556 S
C842   C232    1.428   1_556 S
C843   C847    1.406   .     A
C845   C846    1.423   .     A
C845   C232    1.435   1_556 S
C845   C219    1.439   1_556 S
C846   C847    1.394   .     A
C847   H862    1.081   .     S
H849   C428    1.110   1_556 S
H857   C891    1.087   .     S
H859   C1029   1.086   .     S
O868   Zn882   1.933   .     S
O868   Zn883   1.939   .     S
O868   Zn881   1.956   .     S
O868   Zn884   1.931   .     S
O869   Zn882   1.926   .     S
O870   Zn884   1.932   .     S
O871   Zn883   1.923   .     S
O872   Zn881   1.919   .     S
O873   Zn881   1.925   .     S
O874   Zn884   1.932   .     S
O875   Zn882   1.932   .     S
O876   Zn883   1.938   .     S
O877   Zn884   1.932   .     S
O878   Zn881   1.929   .     S
O879   Zn882   1.937   .     S
O880   Zn883   1.928   .     S
C885   O943    1.262   .     A
C885   C891    1.440   .     S
C885   O945    1.269   .     A
C886   C900    1.381   .     A
C886   H928    1.079   .     S
C886   C912    1.407   .     A
C887   H916    1.085   .     S
C887   C899    1.401   .     A
C887   C900    1.388   .     A
C888   O944    1.280   .     A
C888   O946    1.280   .     A
C888   C890    1.457   .     S
C889   C911    1.431   .     A
C889   C898    1.504   .     S
C889   C901    1.436   .     A
C890   C959    1.340   .     S
C890   C977    1.451   .     S
C892   C895    1.450   .     S
C892   C1097   1.331   .     S
C892   H1130   1.088   .     S
C893   C894    1.435   .     S
C894   O941    1.273   .     A
C894   O947    1.273   .     A
C895   O942    1.272   .     A
C895   O948    1.271   .     A
C896   C901    1.403   .     A
C896   C295    1.389   1_556 S
C896   H317    1.081   1_556 S
C897   C900    1.456   .     S
C897   O937    1.271   .     A
C897   O939    1.279   .     A
C898   O940    1.296   .     A
C898   O938    1.285   .     A
C901   C905    1.532   .     S
C902   C914    1.445   .     S
C902   N933    1.158   .     T
C903   H918    1.105   .     S
C903   C287    1.517   1_556 S
C903   C292    1.528   1_556 S
C903   H307    1.113   1_556 S
C904   H932    1.108   .     S
C904   H931    1.111   .     S
C905   C906    1.532   .     S
C905   H924    1.111   .     S
C905   H923    1.111   .     S
C906   H921    1.108   .     S
C906   H920    1.111   .     S
C906   H922    1.111   .     S
C907   C908    1.447   .     S
C908   N934    1.157   .     T
C909   N935    1.157   .     T
C910   C911    1.412   .     A
C910   C295    1.420   1_556 S
C910   C300    1.428   1_556 S
C911   C915    1.406   .     A
C913   C914    1.423   .     A
C913   C300    1.435   1_556 S
C913   C287    1.439   1_556 S
C914   C915    1.394   .     A
C915   H930    1.081   .     S
H917   C496    1.110   1_556 S
H925   C959    1.087   .     S
H927   C1097   1.086   .     S
O936   Zn950   1.933   .     S
O936   Zn951   1.939   .     S
O936   Zn949   1.956   .     S
O936   Zn952   1.931   .     S
O937   Zn950   1.926   .     S
O938   Zn952   1.932   .     S
O939   Zn951   1.923   .     S
O940   Zn949   1.919   .     S
O941   Zn949   1.925   .     S
O942   Zn952   1.932   .     S
O943   Zn950   1.932   .     S
O944   Zn951   1.938   .     S
O945   Zn952   1.932   .     S
O946   Zn949   1.929   .     S
O947   Zn950   1.937   .     S
O948   Zn951   1.928   .     S
C953   O1011   1.262   .     A
C953   C959    1.440   .     S
C953   O1013   1.269   .     A
C954   C968    1.381   .     A
C954   H996    1.079   .     S
C954   C980    1.407   .     A
C955   H984    1.085   .     S
C955   C967    1.401   .     A
C955   C968    1.388   .     A
C956   O1012   1.280   .     A
C956   O1014   1.280   .     A
C956   C958    1.457   .     S
C957   C979    1.431   .     A
C957   C966    1.504   .     S
C957   C969    1.436   .     A
C958   C823    1.340   1_655 S
C958   C841    1.451   1_655 S
C960   C963    1.450   .     S
C960   C1165   1.331   .     S
C960   H1198   1.088   .     S
C961   C962    1.435   .     S
C962   O1009   1.273   .     A
C962   O1015   1.273   .     A
C963   O1010   1.272   .     A
C963   O1016   1.271   .     A
C964   C969    1.403   .     A
C964   C363    1.389   1_556 S
C964   H385    1.081   1_556 S
C965   C968    1.456   .     S
C965   O1005   1.271   .     A
C965   O1007   1.279   .     A
C966   O1008   1.296   .     A
C966   O1006   1.285   .     A
C969   C973    1.532   .     S
C970   C982    1.445   .     S
C970   N1001   1.158   .     T
C971   H986    1.105   .     S
C971   C355    1.517   1_556 S
C971   C360    1.528   1_556 S
C971   H375    1.113   1_556 S
C972   H1000   1.108   .     S
C972   H999    1.111   .     S
C973   C974    1.532   .     S
C973   H992    1.111   .     S
C973   H991    1.111   .     S
C974   H989    1.108   .     S
C974   H988    1.111   .     S
C974   H990    1.111   .     S
C975   C976    1.447   .     S
C976   N1002   1.157   .     T
C977   N1003   1.157   .     T
C978   C979    1.412   .     A
C978   C363    1.420   1_556 S
C978   C368    1.428   1_556 S
C979   C983    1.406   .     A
C981   C982    1.423   .     A
C981   C368    1.435   1_556 S
C981   C355    1.439   1_556 S
C982   C983    1.394   .     A
C983   H998    1.081   .     S
H985   C564    1.110   1_556 S
H993   C823    1.087   1_655 S
H995   C1165   1.086   .     S
O1004  Zn1018  1.933   .     S
O1004  Zn1019  1.939   .     S
O1004  Zn1017  1.956   .     S
O1004  Zn1020  1.931   .     S
O1005  Zn1018  1.926   .     S
O1006  Zn1020  1.932   .     S
O1007  Zn1019  1.923   .     S
O1008  Zn1017  1.919   .     S
O1009  Zn1017  1.925   .     S
O1010  Zn1020  1.932   .     S
O1011  Zn1018  1.932   .     S
O1012  Zn1019  1.938   .     S
O1013  Zn1020  1.932   .     S
O1014  Zn1017  1.929   .     S
O1015  Zn1018  1.937   .     S
O1016  Zn1019  1.928   .     S
C1021  O1079   1.262   .     A
C1021  C1027   1.440   .     S
C1021  O1081   1.269   .     A
C1022  C1036   1.381   .     A
C1022  H1064   1.079   .     S
C1022  C1048   1.407   .     A
C1023  H1052   1.085   .     S
C1023  C1035   1.401   .     A
C1023  C1036   1.388   .     A
C1024  O1080   1.280   .     A
C1024  O1082   1.280   .     A
C1024  C1026   1.457   .     S
C1025  C1047   1.431   .     A
C1025  C1034   1.504   .     S
C1025  C1037   1.436   .     A
C1026  C1095   1.340   .     S
C1026  C1113   1.451   .     S
C1027  C1162   1.340   1_455 S
C1027  H1197   1.087   1_455 S
C1028  C1031   1.450   .     S
C1028  C621    1.331   1_565 S
C1028  H654    1.088   1_565 S
C1029  C1030   1.435   .     S
C1030  O1077   1.273   .     A
C1030  O1083   1.273   .     A
C1031  O1078   1.272   .     A
C1031  O1084   1.271   .     A
C1032  C1037   1.403   .     A
C1032  C431    1.389   1_556 S
C1032  H453    1.081   1_556 S
C1033  C1036   1.456   .     S
C1033  O1073   1.271   .     A
C1033  O1075   1.279   .     A
C1034  O1076   1.296   .     A
C1034  O1074   1.285   .     A
C1037  C1041   1.532   .     S
C1038  C1050   1.445   .     S
C1038  N1069   1.158   .     T
C1039  H1054   1.105   .     S
C1039  C423    1.517   1_556 S
C1039  C428    1.528   1_556 S
C1039  H443    1.113   1_556 S
C1040  H1068   1.108   .     S
C1040  H1067   1.111   .     S
C1041  C1042   1.532   .     S
C1041  H1060   1.111   .     S
C1041  H1059   1.111   .     S
C1042  H1057   1.108   .     S
C1042  H1056   1.111   .     S
C1042  H1058   1.111   .     S
C1043  C1044   1.447   .     S
C1044  N1070   1.157   .     T
C1045  N1071   1.157   .     T
C1045  C1162   1.451   1_455 S
C1046  C1047   1.412   .     A
C1046  C431    1.420   1_556 S
C1046  C436    1.428   1_556 S
C1047  C1051   1.406   .     A
C1049  C1050   1.423   .     A
C1049  C436    1.435   1_556 S
C1049  C423    1.439   1_556 S
C1050  C1051   1.394   .     A
C1051  H1066   1.081   .     S
H1053  C20     1.110   1_566 S
H1061  C1095   1.087   .     S
H1063  C621    1.086   1_565 S
O1072  Zn1086  1.933   .     S
O1072  Zn1087  1.939   .     S
O1072  Zn1085  1.956   .     S
O1072  Zn1088  1.931   .     S
O1073  Zn1086  1.926   .     S
O1074  Zn1088  1.932   .     S
O1075  Zn1087  1.923   .     S
O1076  Zn1085  1.919   .     S
O1077  Zn1085  1.925   .     S
O1078  Zn1088  1.932   .     S
O1079  Zn1086  1.932   .     S
O1080  Zn1087  1.938   .     S
O1081  Zn1088  1.932   .     S
O1082  Zn1085  1.929   .     S
O1083  Zn1086  1.937   .     S
O1084  Zn1087  1.928   .     S
C1089  O1147   1.262   .     A
C1089  C1095   1.440   .     S
C1089  O1149   1.269   .     A
C1090  C1104   1.381   .     A
C1090  H1132   1.079   .     S
C1090  C1116   1.407   .     A
C1091  H1120   1.085   .     S
C1091  C1103   1.401   .     A
C1091  C1104   1.388   .     A
C1092  O1148   1.280   .     A
C1092  O1150   1.280   .     A
C1092  C1094   1.457   .     S
C1093  C1115   1.431   .     A
C1093  C1102   1.504   .     S
C1093  C1105   1.436   .     A
C1094  C1163   1.340   .     S
C1094  C1181   1.451   .     S
C1096  C1099   1.450   .     S
C1096  C689    1.331   1_565 S
C1096  H722    1.088   1_565 S
C1097  C1098   1.435   .     S
C1098  O1145   1.273   .     A
C1098  O1151   1.273   .     A
C1099  O1146   1.272   .     A
C1099  O1152   1.271   .     A
C1100  C1105   1.403   .     A
C1100  C499    1.389   1_556 S
C1100  H521    1.081   1_556 S
C1101  C1104   1.456   .     S
C1101  O1141   1.271   .     A
C1101  O1143   1.279   .     A
C1102  O1144   1.296   .     A
C1102  O1142   1.285   .     A
C1105  C1109   1.532   .     S
C1106  C1118   1.445   .     S
C1106  N1137   1.158   .     T
C1107  H1122   1.105   .     S
C1107  C491    1.517   1_556 S
C1107  C496    1.528   1_556 S
C1107  H511    1.113   1_556 S
C1108  H1136   1.108   .     S
C1108  H1135   1.111   .     S
C1109  C1110   1.532   .     S
C1109  H1128   1.111   .     S
C1109  H1127   1.111   .     S
C1110  H1125   1.108   .     S
C1110  H1124   1.111   .     S
C1110  H1126   1.111   .     S
C1111  C1112   1.447   .     S
C1112  N1138   1.157   .     T
C1113  N1139   1.157   .     T
C1114  C1115   1.412   .     A
C1114  C499    1.420   1_556 S
C1114  C504    1.428   1_556 S
C1115  C1119   1.406   .     A
C1117  C1118   1.423   .     A
C1117  C504    1.435   1_556 S
C1117  C491    1.439   1_556 S
C1118  C1119   1.394   .     A
C1119  H1134   1.081   .     S
H1121  C88     1.110   1_566 S
H1129  C1163   1.087   .     S
H1131  C689    1.086   1_565 S
O1140  Zn1154  1.933   .     S
O1140  Zn1155  1.939   .     S
O1140  Zn1153  1.956   .     S
O1140  Zn1156  1.931   .     S
O1141  Zn1154  1.926   .     S
O1142  Zn1156  1.932   .     S
O1143  Zn1155  1.923   .     S
O1144  Zn1153  1.919   .     S
O1145  Zn1153  1.925   .     S
O1146  Zn1156  1.932   .     S
O1147  Zn1154  1.932   .     S
O1148  Zn1155  1.938   .     S
O1149  Zn1156  1.932   .     S
O1150  Zn1153  1.929   .     S
O1151  Zn1154  1.937   .     S
O1152  Zn1155  1.928   .     S
C1157  O1215   1.262   .     A
C1157  C1163   1.440   .     S
C1157  O1217   1.269   .     A
C1158  C1172   1.381   .     A
C1158  H1200   1.079   .     S
C1158  C1184   1.407   .     A
C1159  H1188   1.085   .     S
C1159  C1171   1.401   .     A
C1159  C1172   1.388   .     A
C1160  O1216   1.280   .     A
C1160  O1218   1.280   .     A
C1160  C1162   1.457   .     S
C1161  C1183   1.431   .     A
C1161  C1170   1.504   .     S
C1161  C1173   1.436   .     A
C1162  C1027   1.340   1_655 S
C1162  C1045   1.451   1_655 S
C1164  C1167   1.450   .     S
C1164  C757    1.331   1_565 S
C1164  H790    1.088   1_565 S
C1165  C1166   1.435   .     S
C1166  O1213   1.273   .     A
C1166  O1219   1.273   .     A
C1167  O1214   1.272   .     A
C1167  O1220   1.271   .     A
C1168  C1173   1.403   .     A
C1168  C567    1.389   1_556 S
C1168  H589    1.081   1_556 S
C1169  C1172   1.456   .     S
C1169  O1209   1.271   .     A
C1169  O1211   1.279   .     A
C1170  O1212   1.296   .     A
C1170  O1210   1.285   .     A
C1173  C1177   1.532   .     S
C1174  C1186   1.445   .     S
C1174  N1205   1.158   .     T
C1175  H1190   1.105   .     S
C1175  C559    1.517   1_556 S
C1175  C564    1.528   1_556 S
C1175  H579    1.113   1_556 S
C1176  H1204   1.108   .     S
C1176  H1203   1.111   .     S
C1177  C1178   1.532   .     S
C1177  H1196   1.111   .     S
C1177  H1195   1.111   .     S
C1178  H1193   1.108   .     S
C1178  H1192   1.111   .     S
C1178  H1194   1.111   .     S
C1179  C1180   1.447   .     S
C1180  N1206   1.157   .     T
C1181  N1207   1.157   .     T
C1182  C1183   1.412   .     A
C1182  C567    1.420   1_556 S
C1182  C572    1.428   1_556 S
C1183  C1187   1.406   .     A
C1185  C1186   1.423   .     A
C1185  C572    1.435   1_556 S
C1185  C559    1.439   1_556 S
C1186  C1187   1.394   .     A
C1187  H1202   1.081   .     S
H1189  C156    1.110   1_566 S
H1197  C1027   1.087   1_655 S
H1199  C757    1.086   1_565 S
O1208  Zn1222  1.933   .     S
O1208  Zn1223  1.939   .     S
O1208  Zn1221  1.956   .     S
O1208  Zn1224  1.931   .     S
O1209  Zn1222  1.926   .     S
O1210  Zn1224  1.932   .     S
O1211  Zn1223  1.923   .     S
O1212  Zn1221  1.919   .     S
O1213  Zn1221  1.925   .     S
O1214  Zn1224  1.932   .     S
O1215  Zn1222  1.932   .     S
O1216  Zn1223  1.938   .     S
O1217  Zn1224  1.932   .     S
O1218  Zn1221  1.929   .     S
O1219  Zn1222  1.937   .     S
O1220  Zn1223  1.928   .     S
