data_str_m3_o2_o5_pcu_sym.109
_audit_creation_date              2020-01-03
_audit_creation_method            'Materials Studio'
_symmetry_space_group_name_H-M    'P1'
_symmetry_Int_Tables_number       1
_symmetry_cell_setting            triclinic
loop_
_symmetry_equiv_pos_as_xyz
  x,y,z
_cell_length_a                    29.9420
_cell_length_b                    28.6736
_cell_length_c                    26.7099
_cell_angle_alpha                 89.9998
_cell_angle_beta                  91.5103
_cell_angle_gamma                 90.0000
loop_
_atom_site_label
_atom_site_type_symbol
_atom_site_fract_x
_atom_site_fract_y
_atom_site_fract_z
_atom_site_U_iso_or_equiv
_atom_site_adp_type
_atom_site_occupancy
Br1    Br    0.17876   0.13286   0.09234   0.00000  Uiso   1.00
Br2    Br    0.30983   0.36886   0.25294   0.00000  Uiso   1.00
Br3    Br    0.32124   0.13286   0.24099   0.00000  Uiso   1.00
Br4    Br    0.19017   0.36886   0.08040   0.00000  Uiso   1.00
Br5    Br    0.11986   0.27382   0.06050   0.00000  Uiso   1.00
Br6    Br    0.37259   0.21391   0.06459   0.00000  Uiso   1.00
Br7    Br    0.38014   0.27382   0.27283   0.00000  Uiso   1.00
Br8    Br    0.12741   0.21391   0.26874   0.00000  Uiso   1.00
C9     C     0.16421   0.24987   0.16626   0.00000  Uiso   1.00
C10    C     0.22675   0.44756   0.12972   0.00000  Uiso   1.00
C11    C     0.24989   0.25000   0.07297   0.00000  Uiso   1.00
C12    C     0.25011   0.25000   0.26036   0.00000  Uiso   1.00
C13    C     0.25000   0.02684   0.16667   0.00000  Uiso   1.00
C14    C     0.25000   0.47360   0.16667   0.00000  Uiso   1.00
C15    C     0.24995   0.25000   0.02182   0.00000  Uiso   1.00
C16    C     0.25005   0.25000   0.31152   0.00000  Uiso   1.00
C17    C     0.04598   0.26040   0.12340   0.00000  Uiso   1.00
C18    C     0.45110   0.23163   0.12431   0.00000  Uiso   1.00
C19    C     0.45402   0.26041   0.20994   0.00000  Uiso   1.00
C20    C     0.33579   0.24987   0.16708   0.00000  Uiso   1.00
C21    C     0.04890   0.23163   0.20902   0.00000  Uiso   1.00
C22    C     0.09209   0.26091   0.12279   0.00000  Uiso   1.00
C23    C     0.40494   0.23347   0.12400   0.00000  Uiso   1.00
C24    C     0.40791   0.26091   0.21054   0.00000  Uiso   1.00
C25    C     0.09506   0.23347   0.20933   0.00000  Uiso   1.00
C26    C     0.11652   0.24901   0.16640   0.00000  Uiso   1.00
C27    C     0.38348   0.24901   0.16694   0.00000  Uiso   1.00
C28    C     0.02424   0.24589   0.16644   0.00000  Uiso   1.00
C29    C     0.47576   0.24589   0.16689   0.00000  Uiso   1.00
C30    C     0.22022   0.10192   0.13678   0.00000  Uiso   1.00
C31    C     0.27378   0.39848   0.20250   0.00000  Uiso   1.00
C32    C     0.27978   0.10192   0.19656   0.00000  Uiso   1.00
C33    C     0.22622   0.39848   0.13083   0.00000  Uiso   1.00
C34    C     0.21921   0.05286   0.13718   0.00000  Uiso   1.00
C35    C     0.27325   0.44756   0.20361   0.00000  Uiso   1.00
C36    C     0.28079   0.05286   0.19615   0.00000  Uiso   1.00
H37    H     0.02723   0.27119   0.09015   0.00000  Uiso   1.00
H38    H     0.46761   0.21888   0.09141   0.00000  Uiso   1.00
H39    H     0.47277   0.27119   0.24318   0.00000  Uiso   1.00
H40    H     0.03239   0.21888   0.24192   0.00000  Uiso   1.00
H41    H     0.19381   0.03593   0.11429   0.00000  Uiso   1.00
H42    H     0.29121   0.46454   0.23404   0.00000  Uiso   1.00
H43    H     0.30619   0.03593   0.21904   0.00000  Uiso   1.00
H44    H     0.20879   0.46454   0.09929   0.00000  Uiso   1.00
N45    N     0.25000   0.12624   0.16667   0.00000  Uiso   1.00
N46    N     0.25000   0.37377   0.16667   0.00000  Uiso   1.00
O47    O     0.18453   0.28974   0.16667   0.00000  Uiso   1.00
O48    O     0.31547   0.21026   0.16666   0.00000  Uiso   1.00
O49    O     0.31547   0.28974   0.16666   0.00000  Uiso   1.00
O50    O     0.18453   0.21026   0.16667   0.00000  Uiso   1.00
O51    O     0.25000   0.28973   0.09511   0.00000  Uiso   1.00
O52    O     0.25000   0.21027   0.23822   0.00000  Uiso   1.00
O53    O     0.25000   0.28973   0.23822   0.00000  Uiso   1.00
O54    O     0.25000   0.21027   0.09511   0.00000  Uiso   1.00
Zn55   Zn    0.25000   0.30307   0.16667   0.00000  Uiso   1.00
Zn56   Zn    0.25000   0.19693   0.16667   0.00000  Uiso   1.00
Br57   Br    0.67876   0.13286   0.09234   0.00000  Uiso   1.00
Br58   Br    0.80983   0.36886   0.25294   0.00000  Uiso   1.00
Br59   Br    0.82124   0.13286   0.24099   0.00000  Uiso   1.00
Br60   Br    0.69017   0.36886   0.08040   0.00000  Uiso   1.00
Br61   Br    0.61986   0.27382   0.06050   0.00000  Uiso   1.00
Br62   Br    0.87259   0.21391   0.06459   0.00000  Uiso   1.00
Br63   Br    0.88014   0.27382   0.27283   0.00000  Uiso   1.00
Br64   Br    0.62741   0.21391   0.26874   0.00000  Uiso   1.00
C65    C     0.66421   0.24987   0.16626   0.00000  Uiso   1.00
C66    C     0.72675   0.44756   0.12972   0.00000  Uiso   1.00
C67    C     0.74989   0.25000   0.07297   0.00000  Uiso   1.00
C68    C     0.75011   0.25000   0.26036   0.00000  Uiso   1.00
C69    C     0.75000   0.02684   0.16667   0.00000  Uiso   1.00
C70    C     0.75000   0.47360   0.16667   0.00000  Uiso   1.00
C71    C     0.74995   0.25000   0.02182   0.00000  Uiso   1.00
C72    C     0.75005   0.25000   0.31152   0.00000  Uiso   1.00
C73    C     0.54598   0.26040   0.12340   0.00000  Uiso   1.00
C74    C     0.95110   0.23163   0.12431   0.00000  Uiso   1.00
C75    C     0.95402   0.26041   0.20994   0.00000  Uiso   1.00
C76    C     0.83579   0.24987   0.16708   0.00000  Uiso   1.00
C77    C     0.54890   0.23163   0.20902   0.00000  Uiso   1.00
C78    C     0.59209   0.26091   0.12279   0.00000  Uiso   1.00
C79    C     0.90494   0.23347   0.12400   0.00000  Uiso   1.00
C80    C     0.90791   0.26091   0.21054   0.00000  Uiso   1.00
C81    C     0.59506   0.23347   0.20933   0.00000  Uiso   1.00
C82    C     0.61652   0.24901   0.16640   0.00000  Uiso   1.00
C83    C     0.88348   0.24901   0.16694   0.00000  Uiso   1.00
C84    C     0.52424   0.24589   0.16644   0.00000  Uiso   1.00
C85    C     0.97576   0.24589   0.16689   0.00000  Uiso   1.00
C86    C     0.72022   0.10192   0.13678   0.00000  Uiso   1.00
C87    C     0.77378   0.39848   0.20250   0.00000  Uiso   1.00
C88    C     0.77978   0.10192   0.19656   0.00000  Uiso   1.00
C89    C     0.72622   0.39848   0.13083   0.00000  Uiso   1.00
C90    C     0.71921   0.05286   0.13718   0.00000  Uiso   1.00
C91    C     0.77325   0.44756   0.20361   0.00000  Uiso   1.00
C92    C     0.78079   0.05286   0.19615   0.00000  Uiso   1.00
H93    H     0.52723   0.27119   0.09015   0.00000  Uiso   1.00
H94    H     0.96761   0.21888   0.09141   0.00000  Uiso   1.00
H95    H     0.97277   0.27119   0.24318   0.00000  Uiso   1.00
H96    H     0.53239   0.21888   0.24192   0.00000  Uiso   1.00
H97    H     0.69381   0.03593   0.11429   0.00000  Uiso   1.00
H98    H     0.79121   0.46454   0.23404   0.00000  Uiso   1.00
H99    H     0.80619   0.03593   0.21904   0.00000  Uiso   1.00
H100   H     0.70879   0.46454   0.09929   0.00000  Uiso   1.00
N101   N     0.75000   0.12624   0.16667   0.00000  Uiso   1.00
N102   N     0.75000   0.37377   0.16667   0.00000  Uiso   1.00
O103   O     0.68453   0.28974   0.16667   0.00000  Uiso   1.00
O104   O     0.81547   0.21026   0.16666   0.00000  Uiso   1.00
O105   O     0.81547   0.28974   0.16666   0.00000  Uiso   1.00
O106   O     0.68453   0.21026   0.16667   0.00000  Uiso   1.00
O107   O     0.75000   0.28973   0.09511   0.00000  Uiso   1.00
O108   O     0.75000   0.21027   0.23822   0.00000  Uiso   1.00
O109   O     0.75000   0.28973   0.23822   0.00000  Uiso   1.00
O110   O     0.75000   0.21027   0.09511   0.00000  Uiso   1.00
Zn111  Zn    0.75000   0.30307   0.16667   0.00000  Uiso   1.00
Zn112  Zn    0.75000   0.19693   0.16667   0.00000  Uiso   1.00
Br113  Br    0.17876   0.63286   0.09234   0.00000  Uiso   1.00
Br114  Br    0.30983   0.86886   0.25294   0.00000  Uiso   1.00
Br115  Br    0.32124   0.63286   0.24099   0.00000  Uiso   1.00
Br116  Br    0.19017   0.86886   0.08040   0.00000  Uiso   1.00
Br117  Br    0.11986   0.77382   0.06050   0.00000  Uiso   1.00
Br118  Br    0.37259   0.71391   0.06459   0.00000  Uiso   1.00
Br119  Br    0.38014   0.77382   0.27283   0.00000  Uiso   1.00
Br120  Br    0.12741   0.71391   0.26874   0.00000  Uiso   1.00
C121   C     0.16421   0.74987   0.16626   0.00000  Uiso   1.00
C122   C     0.22675   0.94756   0.12972   0.00000  Uiso   1.00
C123   C     0.24989   0.75000   0.07297   0.00000  Uiso   1.00
C124   C     0.25011   0.75000   0.26036   0.00000  Uiso   1.00
C125   C     0.25000   0.52684   0.16667   0.00000  Uiso   1.00
C126   C     0.25000   0.97360   0.16667   0.00000  Uiso   1.00
C127   C     0.24995   0.75000   0.02182   0.00000  Uiso   1.00
C128   C     0.25005   0.75000   0.31152   0.00000  Uiso   1.00
C129   C     0.04598   0.76040   0.12340   0.00000  Uiso   1.00
C130   C     0.45110   0.73163   0.12431   0.00000  Uiso   1.00
C131   C     0.45402   0.76041   0.20994   0.00000  Uiso   1.00
C132   C     0.33579   0.74987   0.16708   0.00000  Uiso   1.00
C133   C     0.04890   0.73163   0.20902   0.00000  Uiso   1.00
C134   C     0.09209   0.76091   0.12279   0.00000  Uiso   1.00
C135   C     0.40494   0.73347   0.12400   0.00000  Uiso   1.00
C136   C     0.40791   0.76091   0.21054   0.00000  Uiso   1.00
C137   C     0.09506   0.73347   0.20933   0.00000  Uiso   1.00
C138   C     0.11652   0.74901   0.16640   0.00000  Uiso   1.00
C139   C     0.38348   0.74901   0.16694   0.00000  Uiso   1.00
C140   C     0.02424   0.74589   0.16644   0.00000  Uiso   1.00
C141   C     0.47576   0.74589   0.16689   0.00000  Uiso   1.00
C142   C     0.22022   0.60192   0.13678   0.00000  Uiso   1.00
C143   C     0.27378   0.89848   0.20250   0.00000  Uiso   1.00
C144   C     0.27978   0.60192   0.19656   0.00000  Uiso   1.00
C145   C     0.22622   0.89848   0.13083   0.00000  Uiso   1.00
C146   C     0.21921   0.55286   0.13718   0.00000  Uiso   1.00
C147   C     0.27325   0.94756   0.20361   0.00000  Uiso   1.00
C148   C     0.28079   0.55286   0.19615   0.00000  Uiso   1.00
H149   H     0.02723   0.77119   0.09015   0.00000  Uiso   1.00
H150   H     0.46761   0.71888   0.09141   0.00000  Uiso   1.00
H151   H     0.47277   0.77119   0.24318   0.00000  Uiso   1.00
H152   H     0.03239   0.71888   0.24192   0.00000  Uiso   1.00
H153   H     0.19381   0.53593   0.11429   0.00000  Uiso   1.00
H154   H     0.29121   0.96454   0.23404   0.00000  Uiso   1.00
H155   H     0.30619   0.53593   0.21904   0.00000  Uiso   1.00
H156   H     0.20879   0.96454   0.09929   0.00000  Uiso   1.00
N157   N     0.25000   0.62624   0.16667   0.00000  Uiso   1.00
N158   N     0.25000   0.87377   0.16667   0.00000  Uiso   1.00
O159   O     0.18453   0.78974   0.16667   0.00000  Uiso   1.00
O160   O     0.31547   0.71026   0.16666   0.00000  Uiso   1.00
O161   O     0.31547   0.78974   0.16666   0.00000  Uiso   1.00
O162   O     0.18453   0.71026   0.16667   0.00000  Uiso   1.00
O163   O     0.25000   0.78973   0.09511   0.00000  Uiso   1.00
O164   O     0.25000   0.71027   0.23822   0.00000  Uiso   1.00
O165   O     0.25000   0.78973   0.23822   0.00000  Uiso   1.00
O166   O     0.25000   0.71027   0.09511   0.00000  Uiso   1.00
Zn167  Zn    0.25000   0.80307   0.16667   0.00000  Uiso   1.00
Zn168  Zn    0.25000   0.69693   0.16667   0.00000  Uiso   1.00
Br169  Br    0.67876   0.63286   0.09234   0.00000  Uiso   1.00
Br170  Br    0.80983   0.86886   0.25294   0.00000  Uiso   1.00
Br171  Br    0.82124   0.63286   0.24099   0.00000  Uiso   1.00
Br172  Br    0.69017   0.86886   0.08040   0.00000  Uiso   1.00
Br173  Br    0.61986   0.77382   0.06050   0.00000  Uiso   1.00
Br174  Br    0.87259   0.71391   0.06459   0.00000  Uiso   1.00
Br175  Br    0.88014   0.77382   0.27283   0.00000  Uiso   1.00
Br176  Br    0.62741   0.71391   0.26874   0.00000  Uiso   1.00
C177   C     0.66421   0.74987   0.16626   0.00000  Uiso   1.00
C178   C     0.72675   0.94756   0.12972   0.00000  Uiso   1.00
C179   C     0.74989   0.75000   0.07297   0.00000  Uiso   1.00
C180   C     0.75011   0.75000   0.26036   0.00000  Uiso   1.00
C181   C     0.75000   0.52684   0.16667   0.00000  Uiso   1.00
C182   C     0.75000   0.97360   0.16667   0.00000  Uiso   1.00
C183   C     0.74995   0.75000   0.02182   0.00000  Uiso   1.00
C184   C     0.75005   0.75000   0.31152   0.00000  Uiso   1.00
C185   C     0.54598   0.76040   0.12340   0.00000  Uiso   1.00
C186   C     0.95110   0.73163   0.12431   0.00000  Uiso   1.00
C187   C     0.95402   0.76041   0.20994   0.00000  Uiso   1.00
C188   C     0.83579   0.74987   0.16708   0.00000  Uiso   1.00
C189   C     0.54890   0.73163   0.20902   0.00000  Uiso   1.00
C190   C     0.59209   0.76091   0.12279   0.00000  Uiso   1.00
C191   C     0.90494   0.73347   0.12400   0.00000  Uiso   1.00
C192   C     0.90791   0.76091   0.21054   0.00000  Uiso   1.00
C193   C     0.59506   0.73347   0.20933   0.00000  Uiso   1.00
C194   C     0.61652   0.74901   0.16640   0.00000  Uiso   1.00
C195   C     0.88348   0.74901   0.16694   0.00000  Uiso   1.00
C196   C     0.52424   0.74589   0.16644   0.00000  Uiso   1.00
C197   C     0.97576   0.74589   0.16689   0.00000  Uiso   1.00
C198   C     0.72022   0.60192   0.13678   0.00000  Uiso   1.00
C199   C     0.77378   0.89848   0.20250   0.00000  Uiso   1.00
C200   C     0.77978   0.60192   0.19656   0.00000  Uiso   1.00
C201   C     0.72622   0.89848   0.13083   0.00000  Uiso   1.00
C202   C     0.71921   0.55286   0.13718   0.00000  Uiso   1.00
C203   C     0.77325   0.94756   0.20361   0.00000  Uiso   1.00
C204   C     0.78079   0.55286   0.19615   0.00000  Uiso   1.00
H205   H     0.52723   0.77119   0.09015   0.00000  Uiso   1.00
H206   H     0.96761   0.71888   0.09141   0.00000  Uiso   1.00
H207   H     0.97277   0.77119   0.24318   0.00000  Uiso   1.00
H208   H     0.53239   0.71888   0.24192   0.00000  Uiso   1.00
H209   H     0.69381   0.53593   0.11429   0.00000  Uiso   1.00
H210   H     0.79121   0.96454   0.23404   0.00000  Uiso   1.00
H211   H     0.80619   0.53593   0.21904   0.00000  Uiso   1.00
H212   H     0.70879   0.96454   0.09929   0.00000  Uiso   1.00
N213   N     0.75000   0.62624   0.16667   0.00000  Uiso   1.00
N214   N     0.75000   0.87377   0.16667   0.00000  Uiso   1.00
O215   O     0.68453   0.78974   0.16667   0.00000  Uiso   1.00
O216   O     0.81547   0.71026   0.16666   0.00000  Uiso   1.00
O217   O     0.81547   0.78974   0.16666   0.00000  Uiso   1.00
O218   O     0.68453   0.71026   0.16667   0.00000  Uiso   1.00
O219   O     0.75000   0.78973   0.09511   0.00000  Uiso   1.00
O220   O     0.75000   0.71027   0.23822   0.00000  Uiso   1.00
O221   O     0.75000   0.78973   0.23822   0.00000  Uiso   1.00
O222   O     0.75000   0.71027   0.09511   0.00000  Uiso   1.00
Zn223  Zn    0.75000   0.80307   0.16667   0.00000  Uiso   1.00
Zn224  Zn    0.75000   0.69693   0.16667   0.00000  Uiso   1.00
Br225  Br    0.17876   0.13286   0.42567   0.00000  Uiso   1.00
Br226  Br    0.30983   0.36886   0.58627   0.00000  Uiso   1.00
Br227  Br    0.32124   0.13286   0.57433   0.00000  Uiso   1.00
Br228  Br    0.19017   0.36886   0.41373   0.00000  Uiso   1.00
Br229  Br    0.11986   0.27382   0.39383   0.00000  Uiso   1.00
Br230  Br    0.37259   0.21391   0.39792   0.00000  Uiso   1.00
Br231  Br    0.38014   0.27382   0.60617   0.00000  Uiso   1.00
Br232  Br    0.12741   0.21391   0.60207   0.00000  Uiso   1.00
C233   C     0.16421   0.24987   0.49959   0.00000  Uiso   1.00
C234   C     0.22675   0.44756   0.46305   0.00000  Uiso   1.00
C235   C     0.24989   0.25000   0.40631   0.00000  Uiso   1.00
C236   C     0.25011   0.25000   0.59369   0.00000  Uiso   1.00
C237   C     0.25000   0.02684   0.50000   0.00000  Uiso   1.00
C238   C     0.25000   0.47360   0.50000   0.00000  Uiso   1.00
C239   C     0.24995   0.25000   0.35515   0.00000  Uiso   1.00
C240   C     0.25005   0.25000   0.64485   0.00000  Uiso   1.00
C241   C     0.04598   0.26040   0.45673   0.00000  Uiso   1.00
C242   C     0.45110   0.23163   0.45764   0.00000  Uiso   1.00
C243   C     0.45402   0.26041   0.54327   0.00000  Uiso   1.00
C244   C     0.33579   0.24987   0.50041   0.00000  Uiso   1.00
C245   C     0.04890   0.23163   0.54236   0.00000  Uiso   1.00
C246   C     0.09209   0.26091   0.45613   0.00000  Uiso   1.00
C247   C     0.40494   0.23347   0.45733   0.00000  Uiso   1.00
C248   C     0.40791   0.26091   0.54387   0.00000  Uiso   1.00
C249   C     0.09506   0.23347   0.54267   0.00000  Uiso   1.00
C250   C     0.11652   0.24901   0.49973   0.00000  Uiso   1.00
C251   C     0.38348   0.24901   0.50027   0.00000  Uiso   1.00
C252   C     0.02424   0.24589   0.49977   0.00000  Uiso   1.00
C253   C     0.47576   0.24589   0.50023   0.00000  Uiso   1.00
C254   C     0.22022   0.10192   0.47011   0.00000  Uiso   1.00
C255   C     0.27378   0.39848   0.53584   0.00000  Uiso   1.00
C256   C     0.27978   0.10192   0.52989   0.00000  Uiso   1.00
C257   C     0.22622   0.39848   0.46416   0.00000  Uiso   1.00
C258   C     0.21921   0.05286   0.47051   0.00000  Uiso   1.00
C259   C     0.27325   0.44756   0.53695   0.00000  Uiso   1.00
C260   C     0.28079   0.05286   0.52949   0.00000  Uiso   1.00
H261   H     0.02723   0.27119   0.42348   0.00000  Uiso   1.00
H262   H     0.46761   0.21888   0.42474   0.00000  Uiso   1.00
H263   H     0.47277   0.27119   0.57652   0.00000  Uiso   1.00
H264   H     0.03239   0.21888   0.57526   0.00000  Uiso   1.00
H265   H     0.19381   0.03593   0.44762   0.00000  Uiso   1.00
H266   H     0.29121   0.46454   0.56737   0.00000  Uiso   1.00
H267   H     0.30619   0.03593   0.55238   0.00000  Uiso   1.00
H268   H     0.20879   0.46454   0.43263   0.00000  Uiso   1.00
N269   N     0.25000   0.12624   0.50000   0.00000  Uiso   1.00
N270   N     0.25000   0.37377   0.50000   0.00000  Uiso   1.00
O271   O     0.18453   0.28974   0.50000   0.00000  Uiso   1.00
O272   O     0.31547   0.21026   0.50000   0.00000  Uiso   1.00
O273   O     0.31547   0.28974   0.50000   0.00000  Uiso   1.00
O274   O     0.18453   0.21026   0.50000   0.00000  Uiso   1.00
O275   O     0.25000   0.28973   0.42845   0.00000  Uiso   1.00
O276   O     0.25000   0.21027   0.57155   0.00000  Uiso   1.00
O277   O     0.25000   0.28973   0.57155   0.00000  Uiso   1.00
O278   O     0.25000   0.21027   0.42845   0.00000  Uiso   1.00
Zn279  Zn    0.25000   0.30307   0.50000   0.00000  Uiso   1.00
Zn280  Zn    0.25000   0.19693   0.50000   0.00000  Uiso   1.00
Br281  Br    0.67876   0.13286   0.42567   0.00000  Uiso   1.00
Br282  Br    0.80983   0.36886   0.58627   0.00000  Uiso   1.00
Br283  Br    0.82124   0.13286   0.57433   0.00000  Uiso   1.00
Br284  Br    0.69017   0.36886   0.41373   0.00000  Uiso   1.00
Br285  Br    0.61986   0.27382   0.39383   0.00000  Uiso   1.00
Br286  Br    0.87259   0.21391   0.39792   0.00000  Uiso   1.00
Br287  Br    0.88014   0.27382   0.60617   0.00000  Uiso   1.00
Br288  Br    0.62741   0.21391   0.60207   0.00000  Uiso   1.00
C289   C     0.66421   0.24987   0.49959   0.00000  Uiso   1.00
C290   C     0.72675   0.44756   0.46305   0.00000  Uiso   1.00
C291   C     0.74989   0.25000   0.40631   0.00000  Uiso   1.00
C292   C     0.75011   0.25000   0.59369   0.00000  Uiso   1.00
C293   C     0.75000   0.02684   0.50000   0.00000  Uiso   1.00
C294   C     0.75000   0.47360   0.50000   0.00000  Uiso   1.00
C295   C     0.74995   0.25000   0.35515   0.00000  Uiso   1.00
C296   C     0.75005   0.25000   0.64485   0.00000  Uiso   1.00
C297   C     0.54598   0.26040   0.45673   0.00000  Uiso   1.00
C298   C     0.95110   0.23163   0.45764   0.00000  Uiso   1.00
C299   C     0.95402   0.26041   0.54327   0.00000  Uiso   1.00
C300   C     0.83579   0.24987   0.50041   0.00000  Uiso   1.00
C301   C     0.54890   0.23163   0.54236   0.00000  Uiso   1.00
C302   C     0.59209   0.26091   0.45613   0.00000  Uiso   1.00
C303   C     0.90494   0.23347   0.45733   0.00000  Uiso   1.00
C304   C     0.90791   0.26091   0.54387   0.00000  Uiso   1.00
C305   C     0.59506   0.23347   0.54267   0.00000  Uiso   1.00
C306   C     0.61652   0.24901   0.49973   0.00000  Uiso   1.00
C307   C     0.88348   0.24901   0.50027   0.00000  Uiso   1.00
C308   C     0.52424   0.24589   0.49977   0.00000  Uiso   1.00
C309   C     0.97576   0.24589   0.50023   0.00000  Uiso   1.00
C310   C     0.72022   0.10192   0.47011   0.00000  Uiso   1.00
C311   C     0.77378   0.39848   0.53584   0.00000  Uiso   1.00
C312   C     0.77978   0.10192   0.52989   0.00000  Uiso   1.00
C313   C     0.72622   0.39848   0.46416   0.00000  Uiso   1.00
C314   C     0.71921   0.05286   0.47051   0.00000  Uiso   1.00
C315   C     0.77325   0.44756   0.53695   0.00000  Uiso   1.00
C316   C     0.78079   0.05286   0.52949   0.00000  Uiso   1.00
H317   H     0.52723   0.27119   0.42348   0.00000  Uiso   1.00
H318   H     0.96761   0.21888   0.42474   0.00000  Uiso   1.00
H319   H     0.97277   0.27119   0.57652   0.00000  Uiso   1.00
H320   H     0.53239   0.21888   0.57526   0.00000  Uiso   1.00
H321   H     0.69381   0.03593   0.44762   0.00000  Uiso   1.00
H322   H     0.79121   0.46454   0.56737   0.00000  Uiso   1.00
H323   H     0.80619   0.03593   0.55238   0.00000  Uiso   1.00
H324   H     0.70879   0.46454   0.43263   0.00000  Uiso   1.00
N325   N     0.75000   0.12624   0.50000   0.00000  Uiso   1.00
N326   N     0.75000   0.37377   0.50000   0.00000  Uiso   1.00
O327   O     0.68453   0.28974   0.50000   0.00000  Uiso   1.00
O328   O     0.81547   0.21026   0.50000   0.00000  Uiso   1.00
O329   O     0.81547   0.28974   0.50000   0.00000  Uiso   1.00
O330   O     0.68453   0.21026   0.50000   0.00000  Uiso   1.00
O331   O     0.75000   0.28973   0.42845   0.00000  Uiso   1.00
O332   O     0.75000   0.21027   0.57155   0.00000  Uiso   1.00
O333   O     0.75000   0.28973   0.57155   0.00000  Uiso   1.00
O334   O     0.75000   0.21027   0.42845   0.00000  Uiso   1.00
Zn335  Zn    0.75000   0.30307   0.50000   0.00000  Uiso   1.00
Zn336  Zn    0.75000   0.19693   0.50000   0.00000  Uiso   1.00
Br337  Br    0.17876   0.63286   0.42567   0.00000  Uiso   1.00
Br338  Br    0.30983   0.86886   0.58627   0.00000  Uiso   1.00
Br339  Br    0.32124   0.63286   0.57433   0.00000  Uiso   1.00
Br340  Br    0.19017   0.86886   0.41373   0.00000  Uiso   1.00
Br341  Br    0.11986   0.77382   0.39383   0.00000  Uiso   1.00
Br342  Br    0.37259   0.71391   0.39792   0.00000  Uiso   1.00
Br343  Br    0.38014   0.77382   0.60617   0.00000  Uiso   1.00
Br344  Br    0.12741   0.71391   0.60207   0.00000  Uiso   1.00
C345   C     0.16421   0.74987   0.49959   0.00000  Uiso   1.00
C346   C     0.22675   0.94756   0.46305   0.00000  Uiso   1.00
C347   C     0.24989   0.75000   0.40631   0.00000  Uiso   1.00
C348   C     0.25011   0.75000   0.59369   0.00000  Uiso   1.00
C349   C     0.25000   0.52684   0.50000   0.00000  Uiso   1.00
C350   C     0.25000   0.97360   0.50000   0.00000  Uiso   1.00
C351   C     0.24995   0.75000   0.35515   0.00000  Uiso   1.00
C352   C     0.25005   0.75000   0.64485   0.00000  Uiso   1.00
C353   C     0.04598   0.76040   0.45673   0.00000  Uiso   1.00
C354   C     0.45110   0.73163   0.45764   0.00000  Uiso   1.00
C355   C     0.45402   0.76041   0.54327   0.00000  Uiso   1.00
C356   C     0.33579   0.74987   0.50041   0.00000  Uiso   1.00
C357   C     0.04890   0.73163   0.54236   0.00000  Uiso   1.00
C358   C     0.09209   0.76091   0.45613   0.00000  Uiso   1.00
C359   C     0.40494   0.73347   0.45733   0.00000  Uiso   1.00
C360   C     0.40791   0.76091   0.54387   0.00000  Uiso   1.00
C361   C     0.09506   0.73347   0.54267   0.00000  Uiso   1.00
C362   C     0.11652   0.74901   0.49973   0.00000  Uiso   1.00
C363   C     0.38348   0.74901   0.50027   0.00000  Uiso   1.00
C364   C     0.02424   0.74589   0.49977   0.00000  Uiso   1.00
C365   C     0.47576   0.74589   0.50023   0.00000  Uiso   1.00
C366   C     0.22022   0.60192   0.47011   0.00000  Uiso   1.00
C367   C     0.27378   0.89848   0.53584   0.00000  Uiso   1.00
C368   C     0.27978   0.60192   0.52989   0.00000  Uiso   1.00
C369   C     0.22622   0.89848   0.46416   0.00000  Uiso   1.00
C370   C     0.21921   0.55286   0.47051   0.00000  Uiso   1.00
C371   C     0.27325   0.94756   0.53695   0.00000  Uiso   1.00
C372   C     0.28079   0.55286   0.52949   0.00000  Uiso   1.00
H373   H     0.02723   0.77119   0.42348   0.00000  Uiso   1.00
H374   H     0.46761   0.71888   0.42474   0.00000  Uiso   1.00
H375   H     0.47277   0.77119   0.57652   0.00000  Uiso   1.00
H376   H     0.03239   0.71888   0.57526   0.00000  Uiso   1.00
H377   H     0.19381   0.53593   0.44762   0.00000  Uiso   1.00
H378   H     0.29121   0.96454   0.56737   0.00000  Uiso   1.00
H379   H     0.30619   0.53593   0.55238   0.00000  Uiso   1.00
H380   H     0.20879   0.96454   0.43263   0.00000  Uiso   1.00
N381   N     0.25000   0.62624   0.50000   0.00000  Uiso   1.00
N382   N     0.25000   0.87377   0.50000   0.00000  Uiso   1.00
O383   O     0.18453   0.78974   0.50000   0.00000  Uiso   1.00
O384   O     0.31547   0.71026   0.50000   0.00000  Uiso   1.00
O385   O     0.31547   0.78974   0.50000   0.00000  Uiso   1.00
O386   O     0.18453   0.71026   0.50000   0.00000  Uiso   1.00
O387   O     0.25000   0.78973   0.42845   0.00000  Uiso   1.00
O388   O     0.25000   0.71027   0.57155   0.00000  Uiso   1.00
O389   O     0.25000   0.78973   0.57155   0.00000  Uiso   1.00
O390   O     0.25000   0.71027   0.42845   0.00000  Uiso   1.00
Zn391  Zn    0.25000   0.80307   0.50000   0.00000  Uiso   1.00
Zn392  Zn    0.25000   0.69693   0.50000   0.00000  Uiso   1.00
Br393  Br    0.67876   0.63286   0.42567   0.00000  Uiso   1.00
Br394  Br    0.80983   0.86886   0.58627   0.00000  Uiso   1.00
Br395  Br    0.82124   0.63286   0.57433   0.00000  Uiso   1.00
Br396  Br    0.69017   0.86886   0.41373   0.00000  Uiso   1.00
Br397  Br    0.61986   0.77382   0.39383   0.00000  Uiso   1.00
Br398  Br    0.87259   0.71391   0.39792   0.00000  Uiso   1.00
Br399  Br    0.88014   0.77382   0.60617   0.00000  Uiso   1.00
Br400  Br    0.62741   0.71391   0.60207   0.00000  Uiso   1.00
C401   C     0.66421   0.74987   0.49959   0.00000  Uiso   1.00
C402   C     0.72675   0.94756   0.46305   0.00000  Uiso   1.00
C403   C     0.74989   0.75000   0.40631   0.00000  Uiso   1.00
C404   C     0.75011   0.75000   0.59369   0.00000  Uiso   1.00
C405   C     0.75000   0.52684   0.50000   0.00000  Uiso   1.00
C406   C     0.75000   0.97360   0.50000   0.00000  Uiso   1.00
C407   C     0.74995   0.75000   0.35515   0.00000  Uiso   1.00
C408   C     0.75005   0.75000   0.64485   0.00000  Uiso   1.00
C409   C     0.54598   0.76040   0.45673   0.00000  Uiso   1.00
C410   C     0.95110   0.73163   0.45764   0.00000  Uiso   1.00
C411   C     0.95402   0.76041   0.54327   0.00000  Uiso   1.00
C412   C     0.83579   0.74987   0.50041   0.00000  Uiso   1.00
C413   C     0.54890   0.73163   0.54236   0.00000  Uiso   1.00
C414   C     0.59209   0.76091   0.45613   0.00000  Uiso   1.00
C415   C     0.90494   0.73347   0.45733   0.00000  Uiso   1.00
C416   C     0.90791   0.76091   0.54387   0.00000  Uiso   1.00
C417   C     0.59506   0.73347   0.54267   0.00000  Uiso   1.00
C418   C     0.61652   0.74901   0.49973   0.00000  Uiso   1.00
C419   C     0.88348   0.74901   0.50027   0.00000  Uiso   1.00
C420   C     0.52424   0.74589   0.49977   0.00000  Uiso   1.00
C421   C     0.97576   0.74589   0.50023   0.00000  Uiso   1.00
C422   C     0.72022   0.60192   0.47011   0.00000  Uiso   1.00
C423   C     0.77378   0.89848   0.53584   0.00000  Uiso   1.00
C424   C     0.77978   0.60192   0.52989   0.00000  Uiso   1.00
C425   C     0.72622   0.89848   0.46416   0.00000  Uiso   1.00
C426   C     0.71921   0.55286   0.47051   0.00000  Uiso   1.00
C427   C     0.77325   0.94756   0.53695   0.00000  Uiso   1.00
C428   C     0.78079   0.55286   0.52949   0.00000  Uiso   1.00
H429   H     0.52723   0.77119   0.42348   0.00000  Uiso   1.00
H430   H     0.96761   0.71888   0.42474   0.00000  Uiso   1.00
H431   H     0.97277   0.77119   0.57652   0.00000  Uiso   1.00
H432   H     0.53239   0.71888   0.57526   0.00000  Uiso   1.00
H433   H     0.69381   0.53593   0.44762   0.00000  Uiso   1.00
H434   H     0.79121   0.96454   0.56737   0.00000  Uiso   1.00
H435   H     0.80619   0.53593   0.55238   0.00000  Uiso   1.00
H436   H     0.70879   0.96454   0.43263   0.00000  Uiso   1.00
N437   N     0.75000   0.62624   0.50000   0.00000  Uiso   1.00
N438   N     0.75000   0.87377   0.50000   0.00000  Uiso   1.00
O439   O     0.68453   0.78974   0.50000   0.00000  Uiso   1.00
O440   O     0.81547   0.71026   0.50000   0.00000  Uiso   1.00
O441   O     0.81547   0.78974   0.50000   0.00000  Uiso   1.00
O442   O     0.68453   0.71026   0.50000   0.00000  Uiso   1.00
O443   O     0.75000   0.78973   0.42845   0.00000  Uiso   1.00
O444   O     0.75000   0.71027   0.57155   0.00000  Uiso   1.00
O445   O     0.75000   0.78973   0.57155   0.00000  Uiso   1.00
O446   O     0.75000   0.71027   0.42845   0.00000  Uiso   1.00
Zn447  Zn    0.75000   0.80307   0.50000   0.00000  Uiso   1.00
Zn448  Zn    0.75000   0.69693   0.50000   0.00000  Uiso   1.00
Br449  Br    0.17876   0.13286   0.75901   0.00000  Uiso   1.00
Br450  Br    0.30983   0.36886   0.91960   0.00000  Uiso   1.00
Br451  Br    0.32124   0.13286   0.90766   0.00000  Uiso   1.00
Br452  Br    0.19017   0.36886   0.74706   0.00000  Uiso   1.00
Br453  Br    0.11986   0.27382   0.72717   0.00000  Uiso   1.00
Br454  Br    0.37259   0.21391   0.73126   0.00000  Uiso   1.00
Br455  Br    0.38014   0.27382   0.93950   0.00000  Uiso   1.00
Br456  Br    0.12741   0.21391   0.93541   0.00000  Uiso   1.00
C457   C     0.16421   0.24987   0.83292   0.00000  Uiso   1.00
C458   C     0.22675   0.44756   0.79639   0.00000  Uiso   1.00
C459   C     0.24989   0.25000   0.73964   0.00000  Uiso   1.00
C460   C     0.25011   0.25000   0.92702   0.00000  Uiso   1.00
C461   C     0.25000   0.02684   0.83333   0.00000  Uiso   1.00
C462   C     0.25000   0.47360   0.83333   0.00000  Uiso   1.00
C463   C     0.24995   0.25000   0.68848   0.00000  Uiso   1.00
C464   C     0.25005   0.25000   0.97818   0.00000  Uiso   1.00
C465   C     0.04598   0.26040   0.79006   0.00000  Uiso   1.00
C466   C     0.45110   0.23163   0.79098   0.00000  Uiso   1.00
C467   C     0.45402   0.26041   0.87660   0.00000  Uiso   1.00
C468   C     0.33579   0.24987   0.83374   0.00000  Uiso   1.00
C469   C     0.04890   0.23163   0.87569   0.00000  Uiso   1.00
C470   C     0.09209   0.26091   0.78946   0.00000  Uiso   1.00
C471   C     0.40494   0.23347   0.79067   0.00000  Uiso   1.00
C472   C     0.40791   0.26091   0.87721   0.00000  Uiso   1.00
C473   C     0.09506   0.23347   0.87600   0.00000  Uiso   1.00
C474   C     0.11652   0.24901   0.83306   0.00000  Uiso   1.00
C475   C     0.38348   0.24901   0.83360   0.00000  Uiso   1.00
C476   C     0.02424   0.24589   0.83310   0.00000  Uiso   1.00
C477   C     0.47576   0.24589   0.83356   0.00000  Uiso   1.00
C478   C     0.22022   0.10192   0.80344   0.00000  Uiso   1.00
C479   C     0.27378   0.39848   0.86917   0.00000  Uiso   1.00
C480   C     0.27978   0.10192   0.86322   0.00000  Uiso   1.00
C481   C     0.22622   0.39848   0.79750   0.00000  Uiso   1.00
C482   C     0.21921   0.05286   0.80384   0.00000  Uiso   1.00
C483   C     0.27325   0.44756   0.87028   0.00000  Uiso   1.00
C484   C     0.28079   0.05286   0.86282   0.00000  Uiso   1.00
H485   H     0.02723   0.27119   0.75682   0.00000  Uiso   1.00
H486   H     0.46761   0.21888   0.75808   0.00000  Uiso   1.00
H487   H     0.47277   0.27119   0.90985   0.00000  Uiso   1.00
H488   H     0.03239   0.21888   0.90859   0.00000  Uiso   1.00
H489   H     0.19381   0.03593   0.78096   0.00000  Uiso   1.00
H490   H     0.29121   0.46454   0.90070   0.00000  Uiso   1.00
H491   H     0.30619   0.03593   0.88571   0.00000  Uiso   1.00
H492   H     0.20879   0.46454   0.76596   0.00000  Uiso   1.00
N493   N     0.25000   0.12624   0.83333   0.00000  Uiso   1.00
N494   N     0.25000   0.37377   0.83333   0.00000  Uiso   1.00
O495   O     0.18453   0.28974   0.83334   0.00000  Uiso   1.00
O496   O     0.31547   0.21026   0.83333   0.00000  Uiso   1.00
O497   O     0.31547   0.28974   0.83333   0.00000  Uiso   1.00
O498   O     0.18453   0.21026   0.83334   0.00000  Uiso   1.00
O499   O     0.25000   0.28973   0.76178   0.00000  Uiso   1.00
O500   O     0.25000   0.21027   0.90489   0.00000  Uiso   1.00
O501   O     0.25000   0.28973   0.90489   0.00000  Uiso   1.00
O502   O     0.25000   0.21027   0.76178   0.00000  Uiso   1.00
Zn503  Zn    0.25000   0.30307   0.83333   0.00000  Uiso   1.00
Zn504  Zn    0.25000   0.19693   0.83333   0.00000  Uiso   1.00
Br505  Br    0.67876   0.13286   0.75901   0.00000  Uiso   1.00
Br506  Br    0.80983   0.36886   0.91960   0.00000  Uiso   1.00
Br507  Br    0.82124   0.13286   0.90766   0.00000  Uiso   1.00
Br508  Br    0.69017   0.36886   0.74706   0.00000  Uiso   1.00
Br509  Br    0.61986   0.27382   0.72717   0.00000  Uiso   1.00
Br510  Br    0.87259   0.21391   0.73126   0.00000  Uiso   1.00
Br511  Br    0.88014   0.27382   0.93950   0.00000  Uiso   1.00
Br512  Br    0.62741   0.21391   0.93541   0.00000  Uiso   1.00
C513   C     0.66421   0.24987   0.83292   0.00000  Uiso   1.00
C514   C     0.72675   0.44756   0.79639   0.00000  Uiso   1.00
C515   C     0.74989   0.25000   0.73964   0.00000  Uiso   1.00
C516   C     0.75011   0.25000   0.92702   0.00000  Uiso   1.00
C517   C     0.75000   0.02684   0.83333   0.00000  Uiso   1.00
C518   C     0.75000   0.47360   0.83333   0.00000  Uiso   1.00
C519   C     0.74995   0.25000   0.68848   0.00000  Uiso   1.00
C520   C     0.75005   0.25000   0.97818   0.00000  Uiso   1.00
C521   C     0.54598   0.26040   0.79006   0.00000  Uiso   1.00
C522   C     0.95110   0.23163   0.79098   0.00000  Uiso   1.00
C523   C     0.95402   0.26041   0.87660   0.00000  Uiso   1.00
C524   C     0.83579   0.24987   0.83374   0.00000  Uiso   1.00
C525   C     0.54890   0.23163   0.87569   0.00000  Uiso   1.00
C526   C     0.59209   0.26091   0.78946   0.00000  Uiso   1.00
C527   C     0.90494   0.23347   0.79067   0.00000  Uiso   1.00
C528   C     0.90791   0.26091   0.87721   0.00000  Uiso   1.00
C529   C     0.59506   0.23347   0.87600   0.00000  Uiso   1.00
C530   C     0.61652   0.24901   0.83306   0.00000  Uiso   1.00
C531   C     0.88348   0.24901   0.83360   0.00000  Uiso   1.00
C532   C     0.52424   0.24589   0.83310   0.00000  Uiso   1.00
C533   C     0.97576   0.24589   0.83356   0.00000  Uiso   1.00
C534   C     0.72022   0.10192   0.80344   0.00000  Uiso   1.00
C535   C     0.77378   0.39848   0.86917   0.00000  Uiso   1.00
C536   C     0.77978   0.10192   0.86322   0.00000  Uiso   1.00
C537   C     0.72622   0.39848   0.79750   0.00000  Uiso   1.00
C538   C     0.71921   0.05286   0.80384   0.00000  Uiso   1.00
C539   C     0.77325   0.44756   0.87028   0.00000  Uiso   1.00
C540   C     0.78079   0.05286   0.86282   0.00000  Uiso   1.00
H541   H     0.52723   0.27119   0.75682   0.00000  Uiso   1.00
H542   H     0.96761   0.21888   0.75808   0.00000  Uiso   1.00
H543   H     0.97277   0.27119   0.90985   0.00000  Uiso   1.00
H544   H     0.53239   0.21888   0.90859   0.00000  Uiso   1.00
H545   H     0.69381   0.03593   0.78096   0.00000  Uiso   1.00
H546   H     0.79121   0.46454   0.90070   0.00000  Uiso   1.00
H547   H     0.80619   0.03593   0.88571   0.00000  Uiso   1.00
H548   H     0.70879   0.46454   0.76596   0.00000  Uiso   1.00
N549   N     0.75000   0.12624   0.83333   0.00000  Uiso   1.00
N550   N     0.75000   0.37377   0.83333   0.00000  Uiso   1.00
O551   O     0.68453   0.28974   0.83334   0.00000  Uiso   1.00
O552   O     0.81547   0.21026   0.83333   0.00000  Uiso   1.00
O553   O     0.81547   0.28974   0.83333   0.00000  Uiso   1.00
O554   O     0.68453   0.21026   0.83334   0.00000  Uiso   1.00
O555   O     0.75000   0.28973   0.76178   0.00000  Uiso   1.00
O556   O     0.75000   0.21027   0.90489   0.00000  Uiso   1.00
O557   O     0.75000   0.28973   0.90489   0.00000  Uiso   1.00
O558   O     0.75000   0.21027   0.76178   0.00000  Uiso   1.00
Zn559  Zn    0.75000   0.30307   0.83333   0.00000  Uiso   1.00
Zn560  Zn    0.75000   0.19693   0.83333   0.00000  Uiso   1.00
Br561  Br    0.17876   0.63286   0.75901   0.00000  Uiso   1.00
Br562  Br    0.30983   0.86886   0.91960   0.00000  Uiso   1.00
Br563  Br    0.32124   0.63286   0.90766   0.00000  Uiso   1.00
Br564  Br    0.19017   0.86886   0.74706   0.00000  Uiso   1.00
Br565  Br    0.11986   0.77382   0.72717   0.00000  Uiso   1.00
Br566  Br    0.37259   0.71391   0.73126   0.00000  Uiso   1.00
Br567  Br    0.38014   0.77382   0.93950   0.00000  Uiso   1.00
Br568  Br    0.12741   0.71391   0.93541   0.00000  Uiso   1.00
C569   C     0.16421   0.74987   0.83292   0.00000  Uiso   1.00
C570   C     0.22675   0.94756   0.79639   0.00000  Uiso   1.00
C571   C     0.24989   0.75000   0.73964   0.00000  Uiso   1.00
C572   C     0.25011   0.75000   0.92702   0.00000  Uiso   1.00
C573   C     0.25000   0.52684   0.83333   0.00000  Uiso   1.00
C574   C     0.25000   0.97360   0.83333   0.00000  Uiso   1.00
C575   C     0.24995   0.75000   0.68848   0.00000  Uiso   1.00
C576   C     0.25005   0.75000   0.97818   0.00000  Uiso   1.00
C577   C     0.04598   0.76040   0.79006   0.00000  Uiso   1.00
C578   C     0.45110   0.73163   0.79098   0.00000  Uiso   1.00
C579   C     0.45402   0.76041   0.87660   0.00000  Uiso   1.00
C580   C     0.33579   0.74987   0.83374   0.00000  Uiso   1.00
C581   C     0.04890   0.73163   0.87569   0.00000  Uiso   1.00
C582   C     0.09209   0.76091   0.78946   0.00000  Uiso   1.00
C583   C     0.40494   0.73347   0.79067   0.00000  Uiso   1.00
C584   C     0.40791   0.76091   0.87721   0.00000  Uiso   1.00
C585   C     0.09506   0.73347   0.87600   0.00000  Uiso   1.00
C586   C     0.11652   0.74901   0.83306   0.00000  Uiso   1.00
C587   C     0.38348   0.74901   0.83360   0.00000  Uiso   1.00
C588   C     0.02424   0.74589   0.83310   0.00000  Uiso   1.00
C589   C     0.47576   0.74589   0.83356   0.00000  Uiso   1.00
C590   C     0.22022   0.60192   0.80344   0.00000  Uiso   1.00
C591   C     0.27378   0.89848   0.86917   0.00000  Uiso   1.00
C592   C     0.27978   0.60192   0.86322   0.00000  Uiso   1.00
C593   C     0.22622   0.89848   0.79750   0.00000  Uiso   1.00
C594   C     0.21921   0.55286   0.80384   0.00000  Uiso   1.00
C595   C     0.27325   0.94756   0.87028   0.00000  Uiso   1.00
C596   C     0.28079   0.55286   0.86282   0.00000  Uiso   1.00
H597   H     0.02723   0.77119   0.75682   0.00000  Uiso   1.00
H598   H     0.46761   0.71888   0.75808   0.00000  Uiso   1.00
H599   H     0.47277   0.77119   0.90985   0.00000  Uiso   1.00
H600   H     0.03239   0.71888   0.90859   0.00000  Uiso   1.00
H601   H     0.19381   0.53593   0.78096   0.00000  Uiso   1.00
H602   H     0.29121   0.96454   0.90070   0.00000  Uiso   1.00
H603   H     0.30619   0.53593   0.88571   0.00000  Uiso   1.00
H604   H     0.20879   0.96454   0.76596   0.00000  Uiso   1.00
N605   N     0.25000   0.62624   0.83333   0.00000  Uiso   1.00
N606   N     0.25000   0.87377   0.83333   0.00000  Uiso   1.00
O607   O     0.18453   0.78974   0.83334   0.00000  Uiso   1.00
O608   O     0.31547   0.71026   0.83333   0.00000  Uiso   1.00
O609   O     0.31547   0.78974   0.83333   0.00000  Uiso   1.00
O610   O     0.18453   0.71026   0.83334   0.00000  Uiso   1.00
O611   O     0.25000   0.78973   0.76178   0.00000  Uiso   1.00
O612   O     0.25000   0.71027   0.90489   0.00000  Uiso   1.00
O613   O     0.25000   0.78973   0.90489   0.00000  Uiso   1.00
O614   O     0.25000   0.71027   0.76178   0.00000  Uiso   1.00
Zn615  Zn    0.25000   0.80307   0.83333   0.00000  Uiso   1.00
Zn616  Zn    0.25000   0.69693   0.83333   0.00000  Uiso   1.00
Br617  Br    0.67876   0.63286   0.75901   0.00000  Uiso   1.00
Br618  Br    0.80983   0.86886   0.91960   0.00000  Uiso   1.00
Br619  Br    0.82124   0.63286   0.90766   0.00000  Uiso   1.00
Br620  Br    0.69017   0.86886   0.74706   0.00000  Uiso   1.00
Br621  Br    0.61986   0.77382   0.72717   0.00000  Uiso   1.00
Br622  Br    0.87259   0.71391   0.73126   0.00000  Uiso   1.00
Br623  Br    0.88014   0.77382   0.93950   0.00000  Uiso   1.00
Br624  Br    0.62741   0.71391   0.93541   0.00000  Uiso   1.00
C625   C     0.66421   0.74987   0.83292   0.00000  Uiso   1.00
C626   C     0.72675   0.94756   0.79639   0.00000  Uiso   1.00
C627   C     0.74989   0.75000   0.73964   0.00000  Uiso   1.00
C628   C     0.75011   0.75000   0.92702   0.00000  Uiso   1.00
C629   C     0.75000   0.52684   0.83333   0.00000  Uiso   1.00
C630   C     0.75000   0.97360   0.83333   0.00000  Uiso   1.00
C631   C     0.74995   0.75000   0.68848   0.00000  Uiso   1.00
C632   C     0.75005   0.75000   0.97818   0.00000  Uiso   1.00
C633   C     0.54598   0.76040   0.79006   0.00000  Uiso   1.00
C634   C     0.95110   0.73163   0.79098   0.00000  Uiso   1.00
C635   C     0.95402   0.76041   0.87660   0.00000  Uiso   1.00
C636   C     0.83579   0.74987   0.83374   0.00000  Uiso   1.00
C637   C     0.54890   0.73163   0.87569   0.00000  Uiso   1.00
C638   C     0.59209   0.76091   0.78946   0.00000  Uiso   1.00
C639   C     0.90494   0.73347   0.79067   0.00000  Uiso   1.00
C640   C     0.90791   0.76091   0.87721   0.00000  Uiso   1.00
C641   C     0.59506   0.73347   0.87600   0.00000  Uiso   1.00
C642   C     0.61652   0.74901   0.83306   0.00000  Uiso   1.00
C643   C     0.88348   0.74901   0.83360   0.00000  Uiso   1.00
C644   C     0.52424   0.74589   0.83310   0.00000  Uiso   1.00
C645   C     0.97576   0.74589   0.83356   0.00000  Uiso   1.00
C646   C     0.72022   0.60192   0.80344   0.00000  Uiso   1.00
C647   C     0.77378   0.89848   0.86917   0.00000  Uiso   1.00
C648   C     0.77978   0.60192   0.86322   0.00000  Uiso   1.00
C649   C     0.72622   0.89848   0.79750   0.00000  Uiso   1.00
C650   C     0.71921   0.55286   0.80384   0.00000  Uiso   1.00
C651   C     0.77325   0.94756   0.87028   0.00000  Uiso   1.00
C652   C     0.78079   0.55286   0.86282   0.00000  Uiso   1.00
H653   H     0.52723   0.77119   0.75682   0.00000  Uiso   1.00
H654   H     0.96761   0.71888   0.75808   0.00000  Uiso   1.00
H655   H     0.97277   0.77119   0.90985   0.00000  Uiso   1.00
H656   H     0.53239   0.71888   0.90859   0.00000  Uiso   1.00
H657   H     0.69381   0.53593   0.78096   0.00000  Uiso   1.00
H658   H     0.79121   0.96454   0.90070   0.00000  Uiso   1.00
H659   H     0.80619   0.53593   0.88571   0.00000  Uiso   1.00
H660   H     0.70879   0.96454   0.76596   0.00000  Uiso   1.00
N661   N     0.75000   0.62624   0.83333   0.00000  Uiso   1.00
N662   N     0.75000   0.87377   0.83333   0.00000  Uiso   1.00
O663   O     0.68453   0.78974   0.83334   0.00000  Uiso   1.00
O664   O     0.81547   0.71026   0.83333   0.00000  Uiso   1.00
O665   O     0.81547   0.78974   0.83333   0.00000  Uiso   1.00
O666   O     0.68453   0.71026   0.83334   0.00000  Uiso   1.00
O667   O     0.75000   0.78973   0.76178   0.00000  Uiso   1.00
O668   O     0.75000   0.71027   0.90489   0.00000  Uiso   1.00
O669   O     0.75000   0.78973   0.90489   0.00000  Uiso   1.00
O670   O     0.75000   0.71027   0.76178   0.00000  Uiso   1.00
Zn671  Zn    0.75000   0.80307   0.83333   0.00000  Uiso   1.00
Zn672  Zn    0.75000   0.69693   0.83333   0.00000  Uiso   1.00
loop_
_geom_bond_atom_site_label_1
_geom_bond_atom_site_label_2
_geom_bond_distance
_geom_bond_site_symmetry_2
_ccdc_geom_bond_type
Br1    C30     1.913   .     S
Br2    C31     1.904   .     S
Br3    C32     1.913   .     S
Br4    C33     1.904   .     S
Br5    C22     1.916   .     S
Br6    C23     1.921   .     S
Br7    C24     1.916   .     S
Br8    C25     1.921   .     S
C9     O50     1.288   .     A
C9     C26     1.428   .     S
C9     O47     1.295   .     A
C10    C33     1.408   .     A
C10    H44     1.079   .     S
C10    C14     1.407   .     A
C11    O54     1.283   .     A
C11    O51     1.284   .     A
C11    C15     1.366   .     S
C12    C16     1.366   .     S
C12    O52     1.283   .     A
C12    O53     1.284   .     A
C13    C34     1.410   .     A
C13    C36     1.410   .     A
C13    C126    1.527   1_545 S
C14    C35     1.407   .     A
C14    C125    1.527   .     S
C15    C464    1.166   1_554 S
C16    C239    1.166   .     S
C17    C22     1.381   .     A
C17    H37     1.083   .     S
C17    C28     1.399   .     A
C18    H38     1.083   .     S
C18    C29     1.401   .     A
C18    C23     1.383   .     A
C19    C24     1.381   .     A
C19    H39     1.083   .     S
C19    C29     1.399   .     A
C20    O49     1.295   .     A
C20    C27     1.428   .     S
C20    O48     1.288   .     A
C21    C28     1.401   .     A
C21    C25     1.383   .     A
C21    H40     1.083   .     S
C22    C26     1.401   .     A
C23    C27     1.402   .     A
C24    C27     1.401   .     A
C25    C26     1.402   .     A
C28    C85     1.452   1_455 S
C29    C84     1.452   .     S
C30    N45     1.372   .     A
C30    C34     1.407   .     A
C31    C35     1.408   .     A
C31    N46     1.375   .     A
C32    N45     1.372   .     A
C32    C36     1.407   .     A
C33    N46     1.375   .     A
C34    H41     1.079   .     S
C35    H42     1.079   .     S
C36    H43     1.079   .     S
N45    Zn56    2.027   .     S
N46    Zn55    2.027   .     S
O47    Zn55    1.997   .     S
O48    Zn56    1.997   .     S
O49    Zn55    1.997   .     S
O50    Zn56    1.997   .     S
O51    Zn55    1.949   .     S
O52    Zn56    1.949   .     S
O53    Zn55    1.949   .     S
O54    Zn56    1.949   .     S
Br57   C86     1.913   .     S
Br58   C87     1.904   .     S
Br59   C88     1.913   .     S
Br60   C89     1.904   .     S
Br61   C78     1.916   .     S
Br62   C79     1.921   .     S
Br63   C80     1.916   .     S
Br64   C81     1.921   .     S
C65    O106    1.288   .     A
C65    C82     1.428   .     S
C65    O103    1.295   .     A
C66    C89     1.408   .     A
C66    H100    1.079   .     S
C66    C70     1.407   .     A
C67    O110    1.283   .     A
C67    O107    1.284   .     A
C67    C71     1.366   .     S
C68    C72     1.366   .     S
C68    O108    1.283   .     A
C68    O109    1.284   .     A
C69    C90     1.410   .     A
C69    C92     1.410   .     A
C69    C182    1.527   1_545 S
C70    C91     1.407   .     A
C70    C181    1.527   .     S
C71    C520    1.166   1_554 S
C72    C295    1.166   .     S
C73    C78     1.381   .     A
C73    H93     1.083   .     S
C73    C84     1.399   .     A
C74    H94     1.083   .     S
C74    C85     1.401   .     A
C74    C79     1.383   .     A
C75    C80     1.381   .     A
C75    H95     1.083   .     S
C75    C85     1.399   .     A
C76    O105    1.295   .     A
C76    C83     1.428   .     S
C76    O104    1.288   .     A
C77    C84     1.401   .     A
C77    C81     1.383   .     A
C77    H96     1.083   .     S
C78    C82     1.401   .     A
C79    C83     1.402   .     A
C80    C83     1.401   .     A
C81    C82     1.402   .     A
C85    C28     1.452   1_655 S
C86    N101    1.372   .     A
C86    C90     1.407   .     A
C87    C91     1.408   .     A
C87    N102    1.375   .     A
C88    N101    1.372   .     A
C88    C92     1.407   .     A
C89    N102    1.375   .     A
C90    H97     1.079   .     S
C91    H98     1.079   .     S
C92    H99     1.079   .     S
N101   Zn112   2.027   .     S
N102   Zn111   2.027   .     S
O103   Zn111   1.997   .     S
O104   Zn112   1.997   .     S
O105   Zn111   1.997   .     S
O106   Zn112   1.997   .     S
O107   Zn111   1.949   .     S
O108   Zn112   1.949   .     S
O109   Zn111   1.949   .     S
O110   Zn112   1.949   .     S
Br113  C142    1.913   .     S
Br114  C143    1.904   .     S
Br115  C144    1.913   .     S
Br116  C145    1.904   .     S
Br117  C134    1.916   .     S
Br118  C135    1.921   .     S
Br119  C136    1.916   .     S
Br120  C137    1.921   .     S
C121   O162    1.288   .     A
C121   C138    1.428   .     S
C121   O159    1.295   .     A
C122   C145    1.408   .     A
C122   H156    1.079   .     S
C122   C126    1.407   .     A
C123   O166    1.283   .     A
C123   O163    1.284   .     A
C123   C127    1.366   .     S
C124   C128    1.366   .     S
C124   O164    1.283   .     A
C124   O165    1.284   .     A
C125   C146    1.410   .     A
C125   C148    1.410   .     A
C126   C147    1.407   .     A
C126   C13     1.527   1_565 S
C127   C576    1.166   1_554 S
C128   C351    1.166   .     S
C129   C134    1.381   .     A
C129   H149    1.083   .     S
C129   C140    1.399   .     A
C130   H150    1.083   .     S
C130   C141    1.401   .     A
C130   C135    1.383   .     A
C131   C136    1.381   .     A
C131   H151    1.083   .     S
C131   C141    1.399   .     A
C132   O161    1.295   .     A
C132   C139    1.428   .     S
C132   O160    1.288   .     A
C133   C140    1.401   .     A
C133   C137    1.383   .     A
C133   H152    1.083   .     S
C134   C138    1.401   .     A
C135   C139    1.402   .     A
C136   C139    1.401   .     A
C137   C138    1.402   .     A
C140   C197    1.452   1_455 S
C141   C196    1.452   .     S
C142   N157    1.372   .     A
C142   C146    1.407   .     A
C143   C147    1.408   .     A
C143   N158    1.375   .     A
C144   N157    1.372   .     A
C144   C148    1.407   .     A
C145   N158    1.375   .     A
C146   H153    1.079   .     S
C147   H154    1.079   .     S
C148   H155    1.079   .     S
N157   Zn168   2.027   .     S
N158   Zn167   2.027   .     S
O159   Zn167   1.997   .     S
O160   Zn168   1.997   .     S
O161   Zn167   1.997   .     S
O162   Zn168   1.997   .     S
O163   Zn167   1.949   .     S
O164   Zn168   1.949   .     S
O165   Zn167   1.949   .     S
O166   Zn168   1.949   .     S
Br169  C198    1.913   .     S
Br170  C199    1.904   .     S
Br171  C200    1.913   .     S
Br172  C201    1.904   .     S
Br173  C190    1.916   .     S
Br174  C191    1.921   .     S
Br175  C192    1.916   .     S
Br176  C193    1.921   .     S
C177   O218    1.288   .     A
C177   C194    1.428   .     S
C177   O215    1.295   .     A
C178   C201    1.408   .     A
C178   H212    1.079   .     S
C178   C182    1.407   .     A
C179   O222    1.283   .     A
C179   O219    1.284   .     A
C179   C183    1.366   .     S
C180   C184    1.366   .     S
C180   O220    1.283   .     A
C180   O221    1.284   .     A
C181   C202    1.410   .     A
C181   C204    1.410   .     A
C182   C203    1.407   .     A
C182   C69     1.527   1_565 S
C183   C632    1.166   1_554 S
C184   C407    1.166   .     S
C185   C190    1.381   .     A
C185   H205    1.083   .     S
C185   C196    1.399   .     A
C186   H206    1.083   .     S
C186   C197    1.401   .     A
C186   C191    1.383   .     A
C187   C192    1.381   .     A
C187   H207    1.083   .     S
C187   C197    1.399   .     A
C188   O217    1.295   .     A
C188   C195    1.428   .     S
C188   O216    1.288   .     A
C189   C196    1.401   .     A
C189   C193    1.383   .     A
C189   H208    1.083   .     S
C190   C194    1.401   .     A
C191   C195    1.402   .     A
C192   C195    1.401   .     A
C193   C194    1.402   .     A
C197   C140    1.452   1_655 S
C198   N213    1.372   .     A
C198   C202    1.407   .     A
C199   C203    1.408   .     A
C199   N214    1.375   .     A
C200   N213    1.372   .     A
C200   C204    1.407   .     A
C201   N214    1.375   .     A
C202   H209    1.079   .     S
C203   H210    1.079   .     S
C204   H211    1.079   .     S
N213   Zn224   2.027   .     S
N214   Zn223   2.027   .     S
O215   Zn223   1.997   .     S
O216   Zn224   1.997   .     S
O217   Zn223   1.997   .     S
O218   Zn224   1.997   .     S
O219   Zn223   1.949   .     S
O220   Zn224   1.949   .     S
O221   Zn223   1.949   .     S
O222   Zn224   1.949   .     S
Br225  C254    1.913   .     S
Br226  C255    1.904   .     S
Br227  C256    1.913   .     S
Br228  C257    1.904   .     S
Br229  C246    1.916   .     S
Br230  C247    1.921   .     S
Br231  C248    1.916   .     S
Br232  C249    1.921   .     S
C233   O274    1.288   .     A
C233   C250    1.428   .     S
C233   O271    1.295   .     A
C234   C257    1.408   .     A
C234   H268    1.079   .     S
C234   C238    1.407   .     A
C235   O278    1.283   .     A
C235   O275    1.284   .     A
C235   C239    1.366   .     S
C236   C240    1.366   .     S
C236   O276    1.283   .     A
C236   O277    1.284   .     A
C237   C258    1.410   .     A
C237   C260    1.410   .     A
C237   C350    1.527   1_545 S
C238   C259    1.407   .     A
C238   C349    1.527   .     S
C240   C463    1.166   .     S
C241   C246    1.381   .     A
C241   H261    1.083   .     S
C241   C252    1.399   .     A
C242   H262    1.083   .     S
C242   C253    1.401   .     A
C242   C247    1.383   .     A
C243   C248    1.381   .     A
C243   H263    1.083   .     S
C243   C253    1.399   .     A
C244   O273    1.295   .     A
C244   C251    1.428   .     S
C244   O272    1.288   .     A
C245   C252    1.401   .     A
C245   C249    1.383   .     A
C245   H264    1.083   .     S
C246   C250    1.401   .     A
C247   C251    1.402   .     A
C248   C251    1.401   .     A
C249   C250    1.402   .     A
C252   C309    1.452   1_455 S
C253   C308    1.452   .     S
C254   N269    1.372   .     A
C254   C258    1.407   .     A
C255   C259    1.408   .     A
C255   N270    1.375   .     A
C256   N269    1.372   .     A
C256   C260    1.407   .     A
C257   N270    1.375   .     A
C258   H265    1.079   .     S
C259   H266    1.079   .     S
C260   H267    1.079   .     S
N269   Zn280   2.027   .     S
N270   Zn279   2.027   .     S
O271   Zn279   1.997   .     S
O272   Zn280   1.997   .     S
O273   Zn279   1.997   .     S
O274   Zn280   1.997   .     S
O275   Zn279   1.949   .     S
O276   Zn280   1.949   .     S
O277   Zn279   1.949   .     S
O278   Zn280   1.949   .     S
Br281  C310    1.913   .     S
Br282  C311    1.904   .     S
Br283  C312    1.913   .     S
Br284  C313    1.904   .     S
Br285  C302    1.916   .     S
Br286  C303    1.921   .     S
Br287  C304    1.916   .     S
Br288  C305    1.921   .     S
C289   O330    1.288   .     A
C289   C306    1.428   .     S
C289   O327    1.295   .     A
C290   C313    1.408   .     A
C290   H324    1.079   .     S
C290   C294    1.407   .     A
C291   O334    1.283   .     A
C291   O331    1.284   .     A
C291   C295    1.366   .     S
C292   C296    1.366   .     S
C292   O332    1.283   .     A
C292   O333    1.284   .     A
C293   C314    1.410   .     A
C293   C316    1.410   .     A
C293   C406    1.527   1_545 S
C294   C315    1.407   .     A
C294   C405    1.527   .     S
C296   C519    1.166   .     S
C297   C302    1.381   .     A
C297   H317    1.083   .     S
C297   C308    1.399   .     A
C298   H318    1.083   .     S
C298   C309    1.401   .     A
C298   C303    1.383   .     A
C299   C304    1.381   .     A
C299   H319    1.083   .     S
C299   C309    1.399   .     A
C300   O329    1.295   .     A
C300   C307    1.428   .     S
C300   O328    1.288   .     A
C301   C308    1.401   .     A
C301   C305    1.383   .     A
C301   H320    1.083   .     S
C302   C306    1.401   .     A
C303   C307    1.402   .     A
C304   C307    1.401   .     A
C305   C306    1.402   .     A
C309   C252    1.452   1_655 S
C310   N325    1.372   .     A
C310   C314    1.407   .     A
C311   C315    1.408   .     A
C311   N326    1.375   .     A
C312   N325    1.372   .     A
C312   C316    1.407   .     A
C313   N326    1.375   .     A
C314   H321    1.079   .     S
C315   H322    1.079   .     S
C316   H323    1.079   .     S
N325   Zn336   2.027   .     S
N326   Zn335   2.027   .     S
O327   Zn335   1.997   .     S
O328   Zn336   1.997   .     S
O329   Zn335   1.997   .     S
O330   Zn336   1.997   .     S
O331   Zn335   1.949   .     S
O332   Zn336   1.949   .     S
O333   Zn335   1.949   .     S
O334   Zn336   1.949   .     S
Br337  C366    1.913   .     S
Br338  C367    1.904   .     S
Br339  C368    1.913   .     S
Br340  C369    1.904   .     S
Br341  C358    1.916   .     S
Br342  C359    1.921   .     S
Br343  C360    1.916   .     S
Br344  C361    1.921   .     S
C345   O386    1.288   .     A
C345   C362    1.428   .     S
C345   O383    1.295   .     A
C346   C369    1.408   .     A
C346   H380    1.079   .     S
C346   C350    1.407   .     A
C347   O390    1.283   .     A
C347   O387    1.284   .     A
C347   C351    1.366   .     S
C348   C352    1.366   .     S
C348   O388    1.283   .     A
C348   O389    1.284   .     A
C349   C370    1.410   .     A
C349   C372    1.410   .     A
C350   C371    1.407   .     A
C350   C237    1.527   1_565 S
C352   C575    1.166   .     S
C353   C358    1.381   .     A
C353   H373    1.083   .     S
C353   C364    1.399   .     A
C354   H374    1.083   .     S
C354   C365    1.401   .     A
C354   C359    1.383   .     A
C355   C360    1.381   .     A
C355   H375    1.083   .     S
C355   C365    1.399   .     A
C356   O385    1.295   .     A
C356   C363    1.428   .     S
C356   O384    1.288   .     A
C357   C364    1.401   .     A
C357   C361    1.383   .     A
C357   H376    1.083   .     S
C358   C362    1.401   .     A
C359   C363    1.402   .     A
C360   C363    1.401   .     A
C361   C362    1.402   .     A
C364   C421    1.452   1_455 S
C365   C420    1.452   .     S
C366   N381    1.372   .     A
C366   C370    1.407   .     A
C367   C371    1.408   .     A
C367   N382    1.375   .     A
C368   N381    1.372   .     A
C368   C372    1.407   .     A
C369   N382    1.375   .     A
C370   H377    1.079   .     S
C371   H378    1.079   .     S
C372   H379    1.079   .     S
N381   Zn392   2.027   .     S
N382   Zn391   2.027   .     S
O383   Zn391   1.997   .     S
O384   Zn392   1.997   .     S
O385   Zn391   1.997   .     S
O386   Zn392   1.997   .     S
O387   Zn391   1.949   .     S
O388   Zn392   1.949   .     S
O389   Zn391   1.949   .     S
O390   Zn392   1.949   .     S
Br393  C422    1.913   .     S
Br394  C423    1.904   .     S
Br395  C424    1.913   .     S
Br396  C425    1.904   .     S
Br397  C414    1.916   .     S
Br398  C415    1.921   .     S
Br399  C416    1.916   .     S
Br400  C417    1.921   .     S
C401   O442    1.288   .     A
C401   C418    1.428   .     S
C401   O439    1.295   .     A
C402   C425    1.408   .     A
C402   H436    1.079   .     S
C402   C406    1.407   .     A
C403   O446    1.283   .     A
C403   O443    1.284   .     A
C403   C407    1.366   .     S
C404   C408    1.366   .     S
C404   O444    1.283   .     A
C404   O445    1.284   .     A
C405   C426    1.410   .     A
C405   C428    1.410   .     A
C406   C427    1.407   .     A
C406   C293    1.527   1_565 S
C408   C631    1.166   .     S
C409   C414    1.381   .     A
C409   H429    1.083   .     S
C409   C420    1.399   .     A
C410   H430    1.083   .     S
C410   C421    1.401   .     A
C410   C415    1.383   .     A
C411   C416    1.381   .     A
C411   H431    1.083   .     S
C411   C421    1.399   .     A
C412   O441    1.295   .     A
C412   C419    1.428   .     S
C412   O440    1.288   .     A
C413   C420    1.401   .     A
C413   C417    1.383   .     A
C413   H432    1.083   .     S
C414   C418    1.401   .     A
C415   C419    1.402   .     A
C416   C419    1.401   .     A
C417   C418    1.402   .     A
C421   C364    1.452   1_655 S
C422   N437    1.372   .     A
C422   C426    1.407   .     A
C423   C427    1.408   .     A
C423   N438    1.375   .     A
C424   N437    1.372   .     A
C424   C428    1.407   .     A
C425   N438    1.375   .     A
C426   H433    1.079   .     S
C427   H434    1.079   .     S
C428   H435    1.079   .     S
N437   Zn448   2.027   .     S
N438   Zn447   2.027   .     S
O439   Zn447   1.997   .     S
O440   Zn448   1.997   .     S
O441   Zn447   1.997   .     S
O442   Zn448   1.997   .     S
O443   Zn447   1.949   .     S
O444   Zn448   1.949   .     S
O445   Zn447   1.949   .     S
O446   Zn448   1.949   .     S
Br449  C478    1.913   .     S
Br450  C479    1.904   .     S
Br451  C480    1.913   .     S
Br452  C481    1.904   .     S
Br453  C470    1.916   .     S
Br454  C471    1.921   .     S
Br455  C472    1.916   .     S
Br456  C473    1.921   .     S
C457   O498    1.288   .     A
C457   C474    1.428   .     S
C457   O495    1.295   .     A
C458   C481    1.408   .     A
C458   H492    1.079   .     S
C458   C462    1.407   .     A
C459   O502    1.283   .     A
C459   O499    1.284   .     A
C459   C463    1.366   .     S
C460   C464    1.366   .     S
C460   O500    1.283   .     A
C460   O501    1.284   .     A
C461   C482    1.410   .     A
C461   C484    1.410   .     A
C461   C574    1.527   1_545 S
C462   C483    1.407   .     A
C462   C573    1.527   .     S
C464   C15     1.166   1_556 S
C465   C470    1.381   .     A
C465   H485    1.083   .     S
C465   C476    1.399   .     A
C466   H486    1.083   .     S
C466   C477    1.401   .     A
C466   C471    1.383   .     A
C467   C472    1.381   .     A
C467   H487    1.083   .     S
C467   C477    1.399   .     A
C468   O497    1.295   .     A
C468   C475    1.428   .     S
C468   O496    1.288   .     A
C469   C476    1.401   .     A
C469   C473    1.383   .     A
C469   H488    1.083   .     S
C470   C474    1.401   .     A
C471   C475    1.402   .     A
C472   C475    1.401   .     A
C473   C474    1.402   .     A
C476   C533    1.452   1_455 S
C477   C532    1.452   .     S
C478   N493    1.372   .     A
C478   C482    1.407   .     A
C479   C483    1.408   .     A
C479   N494    1.375   .     A
C480   N493    1.372   .     A
C480   C484    1.407   .     A
C481   N494    1.375   .     A
C482   H489    1.079   .     S
C483   H490    1.079   .     S
C484   H491    1.079   .     S
N493   Zn504   2.027   .     S
N494   Zn503   2.027   .     S
O495   Zn503   1.997   .     S
O496   Zn504   1.997   .     S
O497   Zn503   1.997   .     S
O498   Zn504   1.997   .     S
O499   Zn503   1.949   .     S
O500   Zn504   1.949   .     S
O501   Zn503   1.949   .     S
O502   Zn504   1.949   .     S
Br505  C534    1.913   .     S
Br506  C535    1.904   .     S
Br507  C536    1.913   .     S
Br508  C537    1.904   .     S
Br509  C526    1.916   .     S
Br510  C527    1.921   .     S
Br511  C528    1.916   .     S
Br512  C529    1.921   .     S
C513   O554    1.288   .     A
C513   C530    1.428   .     S
C513   O551    1.295   .     A
C514   C537    1.408   .     A
C514   H548    1.079   .     S
C514   C518    1.407   .     A
C515   O558    1.283   .     A
C515   O555    1.284   .     A
C515   C519    1.366   .     S
C516   C520    1.366   .     S
C516   O556    1.283   .     A
C516   O557    1.284   .     A
C517   C538    1.410   .     A
C517   C540    1.410   .     A
C517   C630    1.527   1_545 S
C518   C539    1.407   .     A
C518   C629    1.527   .     S
C520   C71     1.166   1_556 S
C521   C526    1.381   .     A
C521   H541    1.083   .     S
C521   C532    1.399   .     A
C522   H542    1.083   .     S
C522   C533    1.401   .     A
C522   C527    1.383   .     A
C523   C528    1.381   .     A
C523   H543    1.083   .     S
C523   C533    1.399   .     A
C524   O553    1.295   .     A
C524   C531    1.428   .     S
C524   O552    1.288   .     A
C525   C532    1.401   .     A
C525   C529    1.383   .     A
C525   H544    1.083   .     S
C526   C530    1.401   .     A
C527   C531    1.402   .     A
C528   C531    1.401   .     A
C529   C530    1.402   .     A
C533   C476    1.452   1_655 S
C534   N549    1.372   .     A
C534   C538    1.407   .     A
C535   C539    1.408   .     A
C535   N550    1.375   .     A
C536   N549    1.372   .     A
C536   C540    1.407   .     A
C537   N550    1.375   .     A
C538   H545    1.079   .     S
C539   H546    1.079   .     S
C540   H547    1.079   .     S
N549   Zn560   2.027   .     S
N550   Zn559   2.027   .     S
O551   Zn559   1.997   .     S
O552   Zn560   1.997   .     S
O553   Zn559   1.997   .     S
O554   Zn560   1.997   .     S
O555   Zn559   1.949   .     S
O556   Zn560   1.949   .     S
O557   Zn559   1.949   .     S
O558   Zn560   1.949   .     S
Br561  C590    1.913   .     S
Br562  C591    1.904   .     S
Br563  C592    1.913   .     S
Br564  C593    1.904   .     S
Br565  C582    1.916   .     S
Br566  C583    1.921   .     S
Br567  C584    1.916   .     S
Br568  C585    1.921   .     S
C569   O610    1.288   .     A
C569   C586    1.428   .     S
C569   O607    1.295   .     A
C570   C593    1.408   .     A
C570   H604    1.079   .     S
C570   C574    1.407   .     A
C571   O614    1.283   .     A
C571   O611    1.284   .     A
C571   C575    1.366   .     S
C572   C576    1.366   .     S
C572   O612    1.283   .     A
C572   O613    1.284   .     A
C573   C594    1.410   .     A
C573   C596    1.410   .     A
C574   C595    1.407   .     A
C574   C461    1.527   1_565 S
C576   C127    1.166   1_556 S
C577   C582    1.381   .     A
C577   H597    1.083   .     S
C577   C588    1.399   .     A
C578   H598    1.083   .     S
C578   C589    1.401   .     A
C578   C583    1.383   .     A
C579   C584    1.381   .     A
C579   H599    1.083   .     S
C579   C589    1.399   .     A
C580   O609    1.295   .     A
C580   C587    1.428   .     S
C580   O608    1.288   .     A
C581   C588    1.401   .     A
C581   C585    1.383   .     A
C581   H600    1.083   .     S
C582   C586    1.401   .     A
C583   C587    1.402   .     A
C584   C587    1.401   .     A
C585   C586    1.402   .     A
C588   C645    1.452   1_455 S
C589   C644    1.452   .     S
C590   N605    1.372   .     A
C590   C594    1.407   .     A
C591   C595    1.408   .     A
C591   N606    1.375   .     A
C592   N605    1.372   .     A
C592   C596    1.407   .     A
C593   N606    1.375   .     A
C594   H601    1.079   .     S
C595   H602    1.079   .     S
C596   H603    1.079   .     S
N605   Zn616   2.027   .     S
N606   Zn615   2.027   .     S
O607   Zn615   1.997   .     S
O608   Zn616   1.997   .     S
O609   Zn615   1.997   .     S
O610   Zn616   1.997   .     S
O611   Zn615   1.949   .     S
O612   Zn616   1.949   .     S
O613   Zn615   1.949   .     S
O614   Zn616   1.949   .     S
Br617  C646    1.913   .     S
Br618  C647    1.904   .     S
Br619  C648    1.913   .     S
Br620  C649    1.904   .     S
Br621  C638    1.916   .     S
Br622  C639    1.921   .     S
Br623  C640    1.916   .     S
Br624  C641    1.921   .     S
C625   O666    1.288   .     A
C625   C642    1.428   .     S
C625   O663    1.295   .     A
C626   C649    1.408   .     A
C626   H660    1.079   .     S
C626   C630    1.407   .     A
C627   O670    1.283   .     A
C627   O667    1.284   .     A
C627   C631    1.366   .     S
C628   C632    1.366   .     S
C628   O668    1.283   .     A
C628   O669    1.284   .     A
C629   C650    1.410   .     A
C629   C652    1.410   .     A
C630   C651    1.407   .     A
C630   C517    1.527   1_565 S
C632   C183    1.166   1_556 S
C633   C638    1.381   .     A
C633   H653    1.083   .     S
C633   C644    1.399   .     A
C634   H654    1.083   .     S
C634   C645    1.401   .     A
C634   C639    1.383   .     A
C635   C640    1.381   .     A
C635   H655    1.083   .     S
C635   C645    1.399   .     A
C636   O665    1.295   .     A
C636   C643    1.428   .     S
C636   O664    1.288   .     A
C637   C644    1.401   .     A
C637   C641    1.383   .     A
C637   H656    1.083   .     S
C638   C642    1.401   .     A
C639   C643    1.402   .     A
C640   C643    1.401   .     A
C641   C642    1.402   .     A
C645   C588    1.452   1_655 S
C646   N661    1.372   .     A
C646   C650    1.407   .     A
C647   C651    1.408   .     A
C647   N662    1.375   .     A
C648   N661    1.372   .     A
C648   C652    1.407   .     A
C649   N662    1.375   .     A
C650   H657    1.079   .     S
C651   H658    1.079   .     S
C652   H659    1.079   .     S
N661   Zn672   2.027   .     S
N662   Zn671   2.027   .     S
O663   Zn671   1.997   .     S
O664   Zn672   1.997   .     S
O665   Zn671   1.997   .     S
O666   Zn672   1.997   .     S
O667   Zn671   1.949   .     S
O668   Zn672   1.949   .     S
O669   Zn671   1.949   .     S
O670   Zn672   1.949   .     S
