data_str_m3_o1_o17_pcu_sym.34
_audit_creation_date              2020-01-03
_audit_creation_method            'Materials Studio'
_symmetry_space_group_name_H-M    'P1'
_symmetry_Int_Tables_number       1
_symmetry_cell_setting            triclinic
loop_
_symmetry_equiv_pos_as_xyz
  x,y,z
_cell_length_a                    32.0505
_cell_length_b                    29.5235
_cell_length_c                    29.9341
_cell_angle_alpha                 89.4528
_cell_angle_beta                  89.8121
_cell_angle_gamma                 90.0725
loop_
_atom_site_label
_atom_site_type_symbol
_atom_site_fract_x
_atom_site_fract_y
_atom_site_fract_z
_atom_site_U_iso_or_equiv
_atom_site_adp_type
_atom_site_occupancy
C1     C     0.08665   0.16665   0.24983   0.00000  Uiso   1.00
C2     C     0.04250   0.16656   0.25038   0.00000  Uiso   1.00
C3     C     0.20184   0.02383   0.26079   0.00000  Uiso   1.00
C4     C     0.13165   0.30944   0.23853   0.00000  Uiso   1.00
C5     C     0.13163   0.02403   0.23863   0.00000  Uiso   1.00
C6     C     0.20175   0.30929   0.26115   0.00000  Uiso   1.00
C7     C     0.16690   0.16685   0.16348   0.00000  Uiso   1.00
C8     C     0.16737   0.16640   0.33657   0.00000  Uiso   1.00
C9     C     0.20039   0.14465   0.40739   0.00000  Uiso   1.00
C10    C     0.13653   0.19273   0.09281   0.00000  Uiso   1.00
C11    C     0.16750   0.16593   0.38443   0.00000  Uiso   1.00
C12    C     0.24670   0.16666   0.25019   0.00000  Uiso   1.00
C13    C     0.16693   0.16731   0.11570   0.00000  Uiso   1.00
C14    C     0.13516   0.18829   0.40683   0.00000  Uiso   1.00
C15    C     0.19833   0.14350   0.09324   0.00000  Uiso   1.00
C16    C     0.13793   0.19360   0.45306   0.00000  Uiso   1.00
C17    C     0.20136   0.14780   0.04693   0.00000  Uiso   1.00
C18    C     0.17027   0.17150   0.47664   0.00000  Uiso   1.00
C19    C     0.17023   0.17188   0.02337   0.00000  Uiso   1.00
C20    C     0.20226   0.14834   0.45369   0.00000  Uiso   1.00
C21    C     0.13865   0.19563   0.04637   0.00000  Uiso   1.00
C22    C     0.10943   0.22081   0.47614   0.00000  Uiso   1.00
C23    C     0.10976   0.22179   0.02240   0.00000  Uiso   1.00
C24    C     0.23506   0.12889   0.02376   0.00000  Uiso   1.00
C25    C     0.22050   0.07785   0.37443   0.00000  Uiso   1.00
C26    C     0.24705   0.04381   0.40066   0.00000  Uiso   1.00
C27    C     0.24176   0.32923   0.38274   0.00000  Uiso   1.00
C28    C     0.07479   0.18796   0.13267   0.00000  Uiso   1.00
C29    C     0.03840   0.18449   0.09983   0.00000  Uiso   1.00
C30    C     0.00167   0.15870   0.12047   0.00000  Uiso   1.00
C31    C     0.06527   0.18004   0.38949   0.00000  Uiso   1.00
C32    C     0.06785   0.13278   0.36860   0.00000  Uiso   1.00
C33    C     0.02514   0.10986   0.36771   0.00000  Uiso   1.00
C34    C     0.23573   0.12965   0.47753   0.00000  Uiso   1.00
C35    C     0.21694   0.07256   0.11643   0.00000  Uiso   1.00
C36    C     0.24593   0.04645   0.14777   0.00000  Uiso   1.00
C37    C     0.23579   0.32924   0.14834   0.00000  Uiso   1.00
C38    C     0.02132   0.12669   0.24006   0.00000  Uiso   1.00
C39    C     0.31203   0.20634   0.26130   0.00000  Uiso   1.00
C40    C     0.31198   0.12666   0.24028   0.00000  Uiso   1.00
C41    C     0.02139   0.20632   0.26123   0.00000  Uiso   1.00
C42    C     0.29084   0.16656   0.25062   0.00000  Uiso   1.00
H43    H     0.08634   0.24090   0.45859   0.00000  Uiso   1.00
H44    H     0.10364   0.29147   0.22919   0.00000  Uiso   1.00
H45    H     0.10360   0.04210   0.22939   0.00000  Uiso   1.00
H46    H     0.22988   0.29123   0.27001   0.00000  Uiso   1.00
H47    H     0.22671   0.07304   0.33840   0.00000  Uiso   1.00
H48    H     0.18676   0.06999   0.38020   0.00000  Uiso   1.00
H49    H     0.28049   0.05354   0.39831   0.00000  Uiso   1.00
H50    H     0.23743   0.04382   0.43632   0.00000  Uiso   1.00
H51    H     0.20843   0.31889   0.38404   0.00000  Uiso   1.00
H52    H     0.26020   0.30514   0.40341   0.00000  Uiso   1.00
H53    H     0.25314   0.32751   0.34771   0.00000  Uiso   1.00
H54    H     0.26084   0.11305   0.04117   0.00000  Uiso   1.00
H55    H     0.06291   0.20326   0.16392   0.00000  Uiso   1.00
H56    H     0.08609   0.15335   0.14165   0.00000  Uiso   1.00
H57    H     0.02784   0.21904   0.09014   0.00000  Uiso   1.00
H58    H     0.04885   0.16656   0.06931   0.00000  Uiso   1.00
H59    H     0.01132   0.12395   0.13054   0.00000  Uiso   1.00
H60    H     0.30948   0.15615   0.09564   0.00000  Uiso   1.00
H61    H     0.32296   0.17683   0.15018   0.00000  Uiso   1.00
H62    H     0.03922   0.19889   0.37350   0.00000  Uiso   1.00
H63    H     0.05696   0.17656   0.42543   0.00000  Uiso   1.00
H64    H     0.07991   0.13566   0.33409   0.00000  Uiso   1.00
H65    H     0.08671   0.24233   0.03922   0.00000  Uiso   1.00
H66    H     0.08966   0.11116   0.38816   0.00000  Uiso   1.00
H67    H     0.01253   0.10621   0.40217   0.00000  Uiso   1.00
H68    H     0.02810   0.07568   0.35287   0.00000  Uiso   1.00
H69    H     0.00299   0.13003   0.34714   0.00000  Uiso   1.00
H70    H     0.22046   0.05876   0.08217   0.00000  Uiso   1.00
H71    H     0.18411   0.06698   0.12765   0.00000  Uiso   1.00
H72    H     0.27881   0.05139   0.13683   0.00000  Uiso   1.00
H73    H     0.24259   0.05991   0.18209   0.00000  Uiso   1.00
H74    H     0.20302   0.32353   0.15924   0.00000  Uiso   1.00
H75    H     0.25686   0.31141   0.17204   0.00000  Uiso   1.00
H76    H     0.26226   0.11488   0.46068   0.00000  Uiso   1.00
H77    H     0.24028   0.31476   0.11455   0.00000  Uiso   1.00
H78    H     0.03758   0.09584   0.23139   0.00000  Uiso   1.00
H79    H     0.29575   0.23721   0.26987   0.00000  Uiso   1.00
H80    H     0.29571   0.09574   0.23187   0.00000  Uiso   1.00
H81    H     0.03773   0.23718   0.26977   0.00000  Uiso   1.00
H82    H     0.23028   0.04165   0.26864   0.00000  Uiso   1.00
N83    N     0.16667   0.28573   0.25000   0.00000  Uiso   1.00
N84    N     0.16667   0.04760   0.25000   0.00000  Uiso   1.00
O85    O     0.10559   0.20487   0.24999   0.00000  Uiso   1.00
O86    O     0.10639   0.21716   0.11575   0.00000  Uiso   1.00
O87    O     0.10208   0.20608   0.38242   0.00000  Uiso   1.00
O88    O     0.22776   0.11904   0.11726   0.00000  Uiso   1.00
O89    O     0.22774   0.12846   0.25001   0.00000  Uiso   1.00
O90    O     0.22774   0.20487   0.25001   0.00000  Uiso   1.00
O91    O     0.10559   0.12846   0.25000   0.00000  Uiso   1.00
O92    O     0.16666   0.20489   0.18392   0.00000  Uiso   1.00
O93    O     0.16667   0.12844   0.31608   0.00000  Uiso   1.00
O94    O     0.16667   0.20489   0.31608   0.00000  Uiso   1.00
O95    O     0.16666   0.12844   0.18393   0.00000  Uiso   1.00
O96    O     0.23225   0.12297   0.38449   0.00000  Uiso   1.00
Zn97   Zn    0.16667   0.21771   0.25000   0.00000  Uiso   1.00
Zn98   Zn    0.16667   0.11563   0.25000   0.00000  Uiso   1.00
C99    C     0.41998   0.16665   0.24983   0.00000  Uiso   1.00
C100   C     0.37584   0.16656   0.25038   0.00000  Uiso   1.00
C101   C     0.53517   0.02383   0.26079   0.00000  Uiso   1.00
C102   C     0.46498   0.30944   0.23853   0.00000  Uiso   1.00
C103   C     0.46496   0.02403   0.23863   0.00000  Uiso   1.00
C104   C     0.53508   0.30929   0.26115   0.00000  Uiso   1.00
C105   C     0.50023   0.16685   0.16348   0.00000  Uiso   1.00
C106   C     0.50070   0.16640   0.33657   0.00000  Uiso   1.00
C107   C     0.53373   0.14465   0.40739   0.00000  Uiso   1.00
C108   C     0.46986   0.19273   0.09281   0.00000  Uiso   1.00
C109   C     0.50084   0.16593   0.38443   0.00000  Uiso   1.00
C110   C     0.58003   0.16666   0.25019   0.00000  Uiso   1.00
C111   C     0.50027   0.16731   0.11570   0.00000  Uiso   1.00
C112   C     0.46849   0.18829   0.40683   0.00000  Uiso   1.00
C113   C     0.53167   0.14350   0.09324   0.00000  Uiso   1.00
C114   C     0.47127   0.19360   0.45306   0.00000  Uiso   1.00
C115   C     0.53470   0.14780   0.04693   0.00000  Uiso   1.00
C116   C     0.50361   0.17150   0.47664   0.00000  Uiso   1.00
C117   C     0.50357   0.17188   0.02337   0.00000  Uiso   1.00
C118   C     0.53560   0.14834   0.45369   0.00000  Uiso   1.00
C119   C     0.47198   0.19563   0.04637   0.00000  Uiso   1.00
C120   C     0.44276   0.22081   0.47614   0.00000  Uiso   1.00
C121   C     0.44310   0.22179   0.02240   0.00000  Uiso   1.00
C122   C     0.56839   0.12889   0.02376   0.00000  Uiso   1.00
C123   C     0.55384   0.07785   0.37443   0.00000  Uiso   1.00
C124   C     0.58039   0.04381   0.40066   0.00000  Uiso   1.00
C125   C     0.57509   0.32923   0.38274   0.00000  Uiso   1.00
C126   C     0.40812   0.18796   0.13267   0.00000  Uiso   1.00
C127   C     0.37174   0.18449   0.09983   0.00000  Uiso   1.00
C128   C     0.33500   0.15870   0.12047   0.00000  Uiso   1.00
C129   C     0.39860   0.18004   0.38949   0.00000  Uiso   1.00
C130   C     0.40119   0.13278   0.36860   0.00000  Uiso   1.00
C131   C     0.35848   0.10986   0.36771   0.00000  Uiso   1.00
C132   C     0.56906   0.12965   0.47753   0.00000  Uiso   1.00
C133   C     0.55027   0.07256   0.11643   0.00000  Uiso   1.00
C134   C     0.57926   0.04645   0.14777   0.00000  Uiso   1.00
C135   C     0.56913   0.32924   0.14834   0.00000  Uiso   1.00
C136   C     0.35465   0.12669   0.24006   0.00000  Uiso   1.00
C137   C     0.64536   0.20634   0.26130   0.00000  Uiso   1.00
C138   C     0.64531   0.12666   0.24028   0.00000  Uiso   1.00
C139   C     0.35472   0.20632   0.26123   0.00000  Uiso   1.00
C140   C     0.62417   0.16656   0.25062   0.00000  Uiso   1.00
H141   H     0.41967   0.24090   0.45859   0.00000  Uiso   1.00
H142   H     0.43697   0.29147   0.22919   0.00000  Uiso   1.00
H143   H     0.43693   0.04210   0.22939   0.00000  Uiso   1.00
H144   H     0.56322   0.29123   0.27001   0.00000  Uiso   1.00
H145   H     0.56004   0.07304   0.33840   0.00000  Uiso   1.00
H146   H     0.52010   0.06999   0.38020   0.00000  Uiso   1.00
H147   H     0.61383   0.05354   0.39831   0.00000  Uiso   1.00
H148   H     0.57076   0.04382   0.43632   0.00000  Uiso   1.00
H149   H     0.54176   0.31889   0.38404   0.00000  Uiso   1.00
H150   H     0.59353   0.30514   0.40341   0.00000  Uiso   1.00
H151   H     0.58647   0.32751   0.34771   0.00000  Uiso   1.00
H152   H     0.59418   0.11305   0.04117   0.00000  Uiso   1.00
H153   H     0.39625   0.20326   0.16392   0.00000  Uiso   1.00
H154   H     0.41942   0.15335   0.14165   0.00000  Uiso   1.00
H155   H     0.36118   0.21904   0.09014   0.00000  Uiso   1.00
H156   H     0.38219   0.16656   0.06931   0.00000  Uiso   1.00
H157   H     0.34465   0.12395   0.13054   0.00000  Uiso   1.00
H158   H     0.64281   0.15615   0.09564   0.00000  Uiso   1.00
H159   H     0.65629   0.17683   0.15018   0.00000  Uiso   1.00
H160   H     0.37255   0.19889   0.37350   0.00000  Uiso   1.00
H161   H     0.39030   0.17656   0.42543   0.00000  Uiso   1.00
H162   H     0.41324   0.13566   0.33409   0.00000  Uiso   1.00
H163   H     0.42004   0.24233   0.03922   0.00000  Uiso   1.00
H164   H     0.42299   0.11116   0.38816   0.00000  Uiso   1.00
H165   H     0.34586   0.10621   0.40217   0.00000  Uiso   1.00
H166   H     0.36143   0.07568   0.35287   0.00000  Uiso   1.00
H167   H     0.33632   0.13003   0.34714   0.00000  Uiso   1.00
H168   H     0.55379   0.05876   0.08217   0.00000  Uiso   1.00
H169   H     0.51744   0.06698   0.12765   0.00000  Uiso   1.00
H170   H     0.61215   0.05139   0.13683   0.00000  Uiso   1.00
H171   H     0.57593   0.05991   0.18209   0.00000  Uiso   1.00
H172   H     0.53636   0.32353   0.15924   0.00000  Uiso   1.00
H173   H     0.59019   0.31141   0.17204   0.00000  Uiso   1.00
H174   H     0.59560   0.11488   0.46068   0.00000  Uiso   1.00
H175   H     0.57361   0.31476   0.11455   0.00000  Uiso   1.00
H176   H     0.37091   0.09584   0.23139   0.00000  Uiso   1.00
H177   H     0.62908   0.23721   0.26987   0.00000  Uiso   1.00
H178   H     0.62904   0.09574   0.23187   0.00000  Uiso   1.00
H179   H     0.37107   0.23718   0.26977   0.00000  Uiso   1.00
H180   H     0.56362   0.04165   0.26864   0.00000  Uiso   1.00
N181   N     0.50000   0.28573   0.25000   0.00000  Uiso   1.00
N182   N     0.50000   0.04760   0.25000   0.00000  Uiso   1.00
O183   O     0.43892   0.20487   0.24999   0.00000  Uiso   1.00
O184   O     0.43972   0.21716   0.11575   0.00000  Uiso   1.00
O185   O     0.43541   0.20608   0.38242   0.00000  Uiso   1.00
O186   O     0.56109   0.11904   0.11726   0.00000  Uiso   1.00
O187   O     0.56108   0.12846   0.25001   0.00000  Uiso   1.00
O188   O     0.56108   0.20487   0.25001   0.00000  Uiso   1.00
O189   O     0.43892   0.12846   0.25000   0.00000  Uiso   1.00
O190   O     0.49999   0.20489   0.18392   0.00000  Uiso   1.00
O191   O     0.50001   0.12844   0.31608   0.00000  Uiso   1.00
O192   O     0.50001   0.20489   0.31608   0.00000  Uiso   1.00
O193   O     0.49999   0.12844   0.18393   0.00000  Uiso   1.00
O194   O     0.56559   0.12297   0.38449   0.00000  Uiso   1.00
Zn195  Zn    0.50000   0.21771   0.25000   0.00000  Uiso   1.00
Zn196  Zn    0.50000   0.11563   0.25000   0.00000  Uiso   1.00
C197   C     0.75331   0.16665   0.24983   0.00000  Uiso   1.00
C198   C     0.70917   0.16656   0.25038   0.00000  Uiso   1.00
C199   C     0.86850   0.02383   0.26079   0.00000  Uiso   1.00
C200   C     0.79832   0.30944   0.23853   0.00000  Uiso   1.00
C201   C     0.79829   0.02403   0.23863   0.00000  Uiso   1.00
C202   C     0.86842   0.30929   0.26115   0.00000  Uiso   1.00
C203   C     0.83356   0.16685   0.16348   0.00000  Uiso   1.00
C204   C     0.83404   0.16640   0.33657   0.00000  Uiso   1.00
C205   C     0.86706   0.14465   0.40739   0.00000  Uiso   1.00
C206   C     0.80319   0.19273   0.09281   0.00000  Uiso   1.00
C207   C     0.83417   0.16593   0.38443   0.00000  Uiso   1.00
C208   C     0.91336   0.16666   0.25019   0.00000  Uiso   1.00
C209   C     0.83360   0.16731   0.11570   0.00000  Uiso   1.00
C210   C     0.80183   0.18829   0.40683   0.00000  Uiso   1.00
C211   C     0.86500   0.14350   0.09324   0.00000  Uiso   1.00
C212   C     0.80460   0.19360   0.45306   0.00000  Uiso   1.00
C213   C     0.86803   0.14780   0.04693   0.00000  Uiso   1.00
C214   C     0.83694   0.17150   0.47664   0.00000  Uiso   1.00
C215   C     0.83690   0.17188   0.02337   0.00000  Uiso   1.00
C216   C     0.86893   0.14834   0.45369   0.00000  Uiso   1.00
C217   C     0.80531   0.19563   0.04637   0.00000  Uiso   1.00
C218   C     0.77609   0.22081   0.47614   0.00000  Uiso   1.00
C219   C     0.77643   0.22179   0.02240   0.00000  Uiso   1.00
C220   C     0.90173   0.12889   0.02376   0.00000  Uiso   1.00
C221   C     0.88717   0.07785   0.37443   0.00000  Uiso   1.00
C222   C     0.91372   0.04381   0.40066   0.00000  Uiso   1.00
C223   C     0.90842   0.32923   0.38274   0.00000  Uiso   1.00
C224   C     0.74146   0.18796   0.13267   0.00000  Uiso   1.00
C225   C     0.70507   0.18449   0.09983   0.00000  Uiso   1.00
C226   C     0.66833   0.15870   0.12047   0.00000  Uiso   1.00
C227   C     0.73194   0.18004   0.38949   0.00000  Uiso   1.00
C228   C     0.73452   0.13278   0.36860   0.00000  Uiso   1.00
C229   C     0.69181   0.10986   0.36771   0.00000  Uiso   1.00
C230   C     0.90240   0.12965   0.47753   0.00000  Uiso   1.00
C231   C     0.88361   0.07256   0.11643   0.00000  Uiso   1.00
C232   C     0.91259   0.04645   0.14777   0.00000  Uiso   1.00
C233   C     0.90246   0.32924   0.14834   0.00000  Uiso   1.00
C234   C     0.68799   0.12669   0.24006   0.00000  Uiso   1.00
C235   C     0.97869   0.20634   0.26130   0.00000  Uiso   1.00
C236   C     0.97865   0.12666   0.24028   0.00000  Uiso   1.00
C237   C     0.68805   0.20632   0.26123   0.00000  Uiso   1.00
C238   C     0.95750   0.16656   0.25062   0.00000  Uiso   1.00
H239   H     0.75301   0.24090   0.45859   0.00000  Uiso   1.00
H240   H     0.77031   0.29147   0.22919   0.00000  Uiso   1.00
H241   H     0.77027   0.04210   0.22939   0.00000  Uiso   1.00
H242   H     0.89655   0.29123   0.27001   0.00000  Uiso   1.00
H243   H     0.89337   0.07304   0.33840   0.00000  Uiso   1.00
H244   H     0.85343   0.06999   0.38020   0.00000  Uiso   1.00
H245   H     0.94716   0.05354   0.39831   0.00000  Uiso   1.00
H246   H     0.90410   0.04382   0.43632   0.00000  Uiso   1.00
H247   H     0.87509   0.31889   0.38404   0.00000  Uiso   1.00
H248   H     0.92686   0.30514   0.40341   0.00000  Uiso   1.00
H249   H     0.91980   0.32751   0.34771   0.00000  Uiso   1.00
H250   H     0.92751   0.11305   0.04117   0.00000  Uiso   1.00
H251   H     0.72958   0.20326   0.16392   0.00000  Uiso   1.00
H252   H     0.75276   0.15335   0.14165   0.00000  Uiso   1.00
H253   H     0.69451   0.21904   0.09014   0.00000  Uiso   1.00
H254   H     0.71552   0.16656   0.06931   0.00000  Uiso   1.00
H255   H     0.67798   0.12395   0.13054   0.00000  Uiso   1.00
H256   H     0.97615   0.15615   0.09564   0.00000  Uiso   1.00
H257   H     0.98963   0.17683   0.15018   0.00000  Uiso   1.00
H258   H     0.70588   0.19889   0.37350   0.00000  Uiso   1.00
H259   H     0.72363   0.17656   0.42543   0.00000  Uiso   1.00
H260   H     0.74658   0.13566   0.33409   0.00000  Uiso   1.00
H261   H     0.75338   0.24233   0.03922   0.00000  Uiso   1.00
H262   H     0.75632   0.11116   0.38816   0.00000  Uiso   1.00
H263   H     0.67920   0.10621   0.40217   0.00000  Uiso   1.00
H264   H     0.69476   0.07568   0.35287   0.00000  Uiso   1.00
H265   H     0.66965   0.13003   0.34714   0.00000  Uiso   1.00
H266   H     0.88712   0.05876   0.08217   0.00000  Uiso   1.00
H267   H     0.85078   0.06698   0.12765   0.00000  Uiso   1.00
H268   H     0.94548   0.05139   0.13683   0.00000  Uiso   1.00
H269   H     0.90926   0.05991   0.18209   0.00000  Uiso   1.00
H270   H     0.86969   0.32353   0.15924   0.00000  Uiso   1.00
H271   H     0.92353   0.31141   0.17204   0.00000  Uiso   1.00
H272   H     0.92893   0.11488   0.46068   0.00000  Uiso   1.00
H273   H     0.90695   0.31476   0.11455   0.00000  Uiso   1.00
H274   H     0.70425   0.09584   0.23139   0.00000  Uiso   1.00
H275   H     0.96241   0.23721   0.26987   0.00000  Uiso   1.00
H276   H     0.96238   0.09574   0.23187   0.00000  Uiso   1.00
H277   H     0.70440   0.23718   0.26977   0.00000  Uiso   1.00
H278   H     0.89695   0.04165   0.26864   0.00000  Uiso   1.00
N279   N     0.83333   0.28573   0.25000   0.00000  Uiso   1.00
N280   N     0.83333   0.04760   0.25000   0.00000  Uiso   1.00
O281   O     0.77226   0.20487   0.24999   0.00000  Uiso   1.00
O282   O     0.77305   0.21716   0.11575   0.00000  Uiso   1.00
O283   O     0.76874   0.20608   0.38242   0.00000  Uiso   1.00
O284   O     0.89442   0.11904   0.11726   0.00000  Uiso   1.00
O285   O     0.89441   0.12846   0.25001   0.00000  Uiso   1.00
O286   O     0.89441   0.20487   0.25001   0.00000  Uiso   1.00
O287   O     0.77226   0.12846   0.25000   0.00000  Uiso   1.00
O288   O     0.83333   0.20489   0.18392   0.00000  Uiso   1.00
O289   O     0.83334   0.12844   0.31608   0.00000  Uiso   1.00
O290   O     0.83334   0.20489   0.31608   0.00000  Uiso   1.00
O291   O     0.83333   0.12844   0.18393   0.00000  Uiso   1.00
O292   O     0.89892   0.12297   0.38449   0.00000  Uiso   1.00
Zn293  Zn    0.83333   0.21771   0.25000   0.00000  Uiso   1.00
Zn294  Zn    0.83333   0.11563   0.25000   0.00000  Uiso   1.00
C295   C     0.08665   0.49998   0.24983   0.00000  Uiso   1.00
C296   C     0.04250   0.49989   0.25038   0.00000  Uiso   1.00
C297   C     0.20184   0.35716   0.26079   0.00000  Uiso   1.00
C298   C     0.13165   0.64277   0.23853   0.00000  Uiso   1.00
C299   C     0.13163   0.35736   0.23863   0.00000  Uiso   1.00
C300   C     0.20175   0.64262   0.26115   0.00000  Uiso   1.00
C301   C     0.16690   0.50019   0.16348   0.00000  Uiso   1.00
C302   C     0.16737   0.49973   0.33657   0.00000  Uiso   1.00
C303   C     0.20039   0.47798   0.40739   0.00000  Uiso   1.00
C304   C     0.13653   0.52606   0.09281   0.00000  Uiso   1.00
C305   C     0.16750   0.49927   0.38443   0.00000  Uiso   1.00
C306   C     0.24670   0.49999   0.25019   0.00000  Uiso   1.00
C307   C     0.16693   0.50064   0.11570   0.00000  Uiso   1.00
C308   C     0.13516   0.52162   0.40683   0.00000  Uiso   1.00
C309   C     0.19833   0.47683   0.09324   0.00000  Uiso   1.00
C310   C     0.13793   0.52694   0.45306   0.00000  Uiso   1.00
C311   C     0.20136   0.48113   0.04693   0.00000  Uiso   1.00
C312   C     0.17027   0.50483   0.47664   0.00000  Uiso   1.00
C313   C     0.17023   0.50521   0.02337   0.00000  Uiso   1.00
C314   C     0.20226   0.48167   0.45369   0.00000  Uiso   1.00
C315   C     0.13865   0.52896   0.04637   0.00000  Uiso   1.00
C316   C     0.10943   0.55414   0.47614   0.00000  Uiso   1.00
C317   C     0.10976   0.55512   0.02240   0.00000  Uiso   1.00
C318   C     0.23506   0.46223   0.02376   0.00000  Uiso   1.00
C319   C     0.22050   0.41118   0.37443   0.00000  Uiso   1.00
C320   C     0.24705   0.37714   0.40066   0.00000  Uiso   1.00
C321   C     0.24176   0.66256   0.38274   0.00000  Uiso   1.00
C322   C     0.07479   0.52129   0.13267   0.00000  Uiso   1.00
C323   C     0.03840   0.51782   0.09983   0.00000  Uiso   1.00
C324   C     0.00167   0.49203   0.12047   0.00000  Uiso   1.00
C325   C     0.06527   0.51337   0.38949   0.00000  Uiso   1.00
C326   C     0.06785   0.46612   0.36860   0.00000  Uiso   1.00
C327   C     0.02514   0.44319   0.36771   0.00000  Uiso   1.00
C328   C     0.23573   0.46299   0.47753   0.00000  Uiso   1.00
C329   C     0.21694   0.40589   0.11643   0.00000  Uiso   1.00
C330   C     0.24593   0.37978   0.14777   0.00000  Uiso   1.00
C331   C     0.23579   0.66257   0.14834   0.00000  Uiso   1.00
C332   C     0.02132   0.46002   0.24006   0.00000  Uiso   1.00
C333   C     0.31203   0.53967   0.26130   0.00000  Uiso   1.00
C334   C     0.31198   0.45999   0.24028   0.00000  Uiso   1.00
C335   C     0.02139   0.53965   0.26123   0.00000  Uiso   1.00
C336   C     0.29084   0.49989   0.25062   0.00000  Uiso   1.00
H337   H     0.08634   0.57423   0.45859   0.00000  Uiso   1.00
H338   H     0.10364   0.62480   0.22919   0.00000  Uiso   1.00
H339   H     0.10360   0.37543   0.22939   0.00000  Uiso   1.00
H340   H     0.22988   0.62456   0.27001   0.00000  Uiso   1.00
H341   H     0.22671   0.40637   0.33840   0.00000  Uiso   1.00
H342   H     0.18676   0.40333   0.38020   0.00000  Uiso   1.00
H343   H     0.28049   0.38687   0.39831   0.00000  Uiso   1.00
H344   H     0.23743   0.37715   0.43632   0.00000  Uiso   1.00
H345   H     0.20843   0.65223   0.38404   0.00000  Uiso   1.00
H346   H     0.26020   0.63847   0.40341   0.00000  Uiso   1.00
H347   H     0.25314   0.66084   0.34771   0.00000  Uiso   1.00
H348   H     0.26084   0.44638   0.04117   0.00000  Uiso   1.00
H349   H     0.06291   0.53659   0.16392   0.00000  Uiso   1.00
H350   H     0.08609   0.48668   0.14165   0.00000  Uiso   1.00
H351   H     0.02784   0.55238   0.09014   0.00000  Uiso   1.00
H352   H     0.04885   0.49989   0.06931   0.00000  Uiso   1.00
H353   H     0.01132   0.45728   0.13054   0.00000  Uiso   1.00
H354   H     0.30948   0.48948   0.09564   0.00000  Uiso   1.00
H355   H     0.32296   0.51016   0.15018   0.00000  Uiso   1.00
H356   H     0.03922   0.53222   0.37350   0.00000  Uiso   1.00
H357   H     0.05696   0.50989   0.42543   0.00000  Uiso   1.00
H358   H     0.07991   0.46899   0.33409   0.00000  Uiso   1.00
H359   H     0.08671   0.57566   0.03922   0.00000  Uiso   1.00
H360   H     0.08966   0.44449   0.38816   0.00000  Uiso   1.00
H361   H     0.01253   0.43954   0.40217   0.00000  Uiso   1.00
H362   H     0.02810   0.40902   0.35287   0.00000  Uiso   1.00
H363   H     0.00299   0.46336   0.34714   0.00000  Uiso   1.00
H364   H     0.22046   0.39209   0.08217   0.00000  Uiso   1.00
H365   H     0.18411   0.40031   0.12765   0.00000  Uiso   1.00
H366   H     0.27881   0.38472   0.13683   0.00000  Uiso   1.00
H367   H     0.24259   0.39325   0.18209   0.00000  Uiso   1.00
H368   H     0.20302   0.65686   0.15924   0.00000  Uiso   1.00
H369   H     0.25686   0.64475   0.17204   0.00000  Uiso   1.00
H370   H     0.26226   0.44821   0.46068   0.00000  Uiso   1.00
H371   H     0.24028   0.64810   0.11455   0.00000  Uiso   1.00
H372   H     0.03758   0.42917   0.23139   0.00000  Uiso   1.00
H373   H     0.29575   0.57055   0.26987   0.00000  Uiso   1.00
H374   H     0.29571   0.42907   0.23187   0.00000  Uiso   1.00
H375   H     0.03773   0.57052   0.26977   0.00000  Uiso   1.00
H376   H     0.23028   0.37498   0.26864   0.00000  Uiso   1.00
N377   N     0.16667   0.61907   0.25000   0.00000  Uiso   1.00
N378   N     0.16667   0.38093   0.25000   0.00000  Uiso   1.00
O379   O     0.10559   0.53821   0.24999   0.00000  Uiso   1.00
O380   O     0.10639   0.55049   0.11575   0.00000  Uiso   1.00
O381   O     0.10208   0.53941   0.38242   0.00000  Uiso   1.00
O382   O     0.22776   0.45238   0.11726   0.00000  Uiso   1.00
O383   O     0.22774   0.46179   0.25001   0.00000  Uiso   1.00
O384   O     0.22774   0.53821   0.25001   0.00000  Uiso   1.00
O385   O     0.10559   0.46179   0.25000   0.00000  Uiso   1.00
O386   O     0.16666   0.53823   0.18392   0.00000  Uiso   1.00
O387   O     0.16667   0.46177   0.31608   0.00000  Uiso   1.00
O388   O     0.16667   0.53823   0.31608   0.00000  Uiso   1.00
O389   O     0.16666   0.46177   0.18393   0.00000  Uiso   1.00
O390   O     0.23225   0.45631   0.38449   0.00000  Uiso   1.00
Zn391  Zn    0.16667   0.55104   0.25000   0.00000  Uiso   1.00
Zn392  Zn    0.16667   0.44896   0.25000   0.00000  Uiso   1.00
C393   C     0.41998   0.49998   0.24983   0.00000  Uiso   1.00
C394   C     0.37584   0.49989   0.25038   0.00000  Uiso   1.00
C395   C     0.53517   0.35716   0.26079   0.00000  Uiso   1.00
C396   C     0.46498   0.64277   0.23853   0.00000  Uiso   1.00
C397   C     0.46496   0.35736   0.23863   0.00000  Uiso   1.00
C398   C     0.53508   0.64262   0.26115   0.00000  Uiso   1.00
C399   C     0.50023   0.50019   0.16348   0.00000  Uiso   1.00
C400   C     0.50070   0.49973   0.33657   0.00000  Uiso   1.00
C401   C     0.53373   0.47798   0.40739   0.00000  Uiso   1.00
C402   C     0.46986   0.52606   0.09281   0.00000  Uiso   1.00
C403   C     0.50084   0.49927   0.38443   0.00000  Uiso   1.00
C404   C     0.58003   0.49999   0.25019   0.00000  Uiso   1.00
C405   C     0.50027   0.50064   0.11570   0.00000  Uiso   1.00
C406   C     0.46849   0.52162   0.40683   0.00000  Uiso   1.00
C407   C     0.53167   0.47683   0.09324   0.00000  Uiso   1.00
C408   C     0.47127   0.52694   0.45306   0.00000  Uiso   1.00
C409   C     0.53470   0.48113   0.04693   0.00000  Uiso   1.00
C410   C     0.50361   0.50483   0.47664   0.00000  Uiso   1.00
C411   C     0.50357   0.50521   0.02337   0.00000  Uiso   1.00
C412   C     0.53560   0.48167   0.45369   0.00000  Uiso   1.00
C413   C     0.47198   0.52896   0.04637   0.00000  Uiso   1.00
C414   C     0.44276   0.55414   0.47614   0.00000  Uiso   1.00
C415   C     0.44310   0.55512   0.02240   0.00000  Uiso   1.00
C416   C     0.56839   0.46223   0.02376   0.00000  Uiso   1.00
C417   C     0.55384   0.41118   0.37443   0.00000  Uiso   1.00
C418   C     0.58039   0.37714   0.40066   0.00000  Uiso   1.00
C419   C     0.57509   0.66256   0.38274   0.00000  Uiso   1.00
C420   C     0.40812   0.52129   0.13267   0.00000  Uiso   1.00
C421   C     0.37174   0.51782   0.09983   0.00000  Uiso   1.00
C422   C     0.33500   0.49203   0.12047   0.00000  Uiso   1.00
C423   C     0.39860   0.51337   0.38949   0.00000  Uiso   1.00
C424   C     0.40119   0.46612   0.36860   0.00000  Uiso   1.00
C425   C     0.35848   0.44319   0.36771   0.00000  Uiso   1.00
C426   C     0.56906   0.46299   0.47753   0.00000  Uiso   1.00
C427   C     0.55027   0.40589   0.11643   0.00000  Uiso   1.00
C428   C     0.57926   0.37978   0.14777   0.00000  Uiso   1.00
C429   C     0.56913   0.66257   0.14834   0.00000  Uiso   1.00
C430   C     0.35465   0.46002   0.24006   0.00000  Uiso   1.00
C431   C     0.64536   0.53967   0.26130   0.00000  Uiso   1.00
C432   C     0.64531   0.45999   0.24028   0.00000  Uiso   1.00
C433   C     0.35472   0.53965   0.26123   0.00000  Uiso   1.00
C434   C     0.62417   0.49989   0.25062   0.00000  Uiso   1.00
H435   H     0.41967   0.57423   0.45859   0.00000  Uiso   1.00
H436   H     0.43697   0.62480   0.22919   0.00000  Uiso   1.00
H437   H     0.43693   0.37543   0.22939   0.00000  Uiso   1.00
H438   H     0.56322   0.62456   0.27001   0.00000  Uiso   1.00
H439   H     0.56004   0.40637   0.33840   0.00000  Uiso   1.00
H440   H     0.52010   0.40333   0.38020   0.00000  Uiso   1.00
H441   H     0.61383   0.38687   0.39831   0.00000  Uiso   1.00
H442   H     0.57076   0.37715   0.43632   0.00000  Uiso   1.00
H443   H     0.54176   0.65223   0.38404   0.00000  Uiso   1.00
H444   H     0.59353   0.63847   0.40341   0.00000  Uiso   1.00
H445   H     0.58647   0.66084   0.34771   0.00000  Uiso   1.00
H446   H     0.59418   0.44638   0.04117   0.00000  Uiso   1.00
H447   H     0.39625   0.53659   0.16392   0.00000  Uiso   1.00
H448   H     0.41942   0.48668   0.14165   0.00000  Uiso   1.00
H449   H     0.36118   0.55238   0.09014   0.00000  Uiso   1.00
H450   H     0.38219   0.49989   0.06931   0.00000  Uiso   1.00
H451   H     0.34465   0.45728   0.13054   0.00000  Uiso   1.00
H452   H     0.64281   0.48948   0.09564   0.00000  Uiso   1.00
H453   H     0.65629   0.51016   0.15018   0.00000  Uiso   1.00
H454   H     0.37255   0.53222   0.37350   0.00000  Uiso   1.00
H455   H     0.39030   0.50989   0.42543   0.00000  Uiso   1.00
H456   H     0.41324   0.46899   0.33409   0.00000  Uiso   1.00
H457   H     0.42004   0.57566   0.03922   0.00000  Uiso   1.00
H458   H     0.42299   0.44449   0.38816   0.00000  Uiso   1.00
H459   H     0.34586   0.43954   0.40217   0.00000  Uiso   1.00
H460   H     0.36143   0.40902   0.35287   0.00000  Uiso   1.00
H461   H     0.33632   0.46336   0.34714   0.00000  Uiso   1.00
H462   H     0.55379   0.39209   0.08217   0.00000  Uiso   1.00
H463   H     0.51744   0.40031   0.12765   0.00000  Uiso   1.00
H464   H     0.61215   0.38472   0.13683   0.00000  Uiso   1.00
H465   H     0.57593   0.39325   0.18209   0.00000  Uiso   1.00
H466   H     0.53636   0.65686   0.15924   0.00000  Uiso   1.00
H467   H     0.59019   0.64475   0.17204   0.00000  Uiso   1.00
H468   H     0.59560   0.44821   0.46068   0.00000  Uiso   1.00
H469   H     0.57361   0.64810   0.11455   0.00000  Uiso   1.00
H470   H     0.37091   0.42917   0.23139   0.00000  Uiso   1.00
H471   H     0.62908   0.57055   0.26987   0.00000  Uiso   1.00
H472   H     0.62904   0.42907   0.23187   0.00000  Uiso   1.00
H473   H     0.37107   0.57052   0.26977   0.00000  Uiso   1.00
H474   H     0.56362   0.37498   0.26864   0.00000  Uiso   1.00
N475   N     0.50000   0.61907   0.25000   0.00000  Uiso   1.00
N476   N     0.50000   0.38093   0.25000   0.00000  Uiso   1.00
O477   O     0.43892   0.53821   0.24999   0.00000  Uiso   1.00
O478   O     0.43972   0.55049   0.11575   0.00000  Uiso   1.00
O479   O     0.43541   0.53941   0.38242   0.00000  Uiso   1.00
O480   O     0.56109   0.45238   0.11726   0.00000  Uiso   1.00
O481   O     0.56108   0.46179   0.25001   0.00000  Uiso   1.00
O482   O     0.56108   0.53821   0.25001   0.00000  Uiso   1.00
O483   O     0.43892   0.46179   0.25000   0.00000  Uiso   1.00
O484   O     0.49999   0.53823   0.18392   0.00000  Uiso   1.00
O485   O     0.50001   0.46177   0.31608   0.00000  Uiso   1.00
O486   O     0.50001   0.53823   0.31608   0.00000  Uiso   1.00
O487   O     0.49999   0.46177   0.18393   0.00000  Uiso   1.00
O488   O     0.56559   0.45631   0.38449   0.00000  Uiso   1.00
Zn489  Zn    0.50000   0.55104   0.25000   0.00000  Uiso   1.00
Zn490  Zn    0.50000   0.44896   0.25000   0.00000  Uiso   1.00
C491   C     0.75331   0.49998   0.24983   0.00000  Uiso   1.00
C492   C     0.70917   0.49989   0.25038   0.00000  Uiso   1.00
C493   C     0.86850   0.35716   0.26079   0.00000  Uiso   1.00
C494   C     0.79832   0.64277   0.23853   0.00000  Uiso   1.00
C495   C     0.79829   0.35736   0.23863   0.00000  Uiso   1.00
C496   C     0.86842   0.64262   0.26115   0.00000  Uiso   1.00
C497   C     0.83356   0.50019   0.16348   0.00000  Uiso   1.00
C498   C     0.83404   0.49973   0.33657   0.00000  Uiso   1.00
C499   C     0.86706   0.47798   0.40739   0.00000  Uiso   1.00
C500   C     0.80319   0.52606   0.09281   0.00000  Uiso   1.00
C501   C     0.83417   0.49927   0.38443   0.00000  Uiso   1.00
C502   C     0.91336   0.49999   0.25019   0.00000  Uiso   1.00
C503   C     0.83360   0.50064   0.11570   0.00000  Uiso   1.00
C504   C     0.80183   0.52162   0.40683   0.00000  Uiso   1.00
C505   C     0.86500   0.47683   0.09324   0.00000  Uiso   1.00
C506   C     0.80460   0.52694   0.45306   0.00000  Uiso   1.00
C507   C     0.86803   0.48113   0.04693   0.00000  Uiso   1.00
C508   C     0.83694   0.50483   0.47664   0.00000  Uiso   1.00
C509   C     0.83690   0.50521   0.02337   0.00000  Uiso   1.00
C510   C     0.86893   0.48167   0.45369   0.00000  Uiso   1.00
C511   C     0.80531   0.52896   0.04637   0.00000  Uiso   1.00
C512   C     0.77609   0.55414   0.47614   0.00000  Uiso   1.00
C513   C     0.77643   0.55512   0.02240   0.00000  Uiso   1.00
C514   C     0.90173   0.46223   0.02376   0.00000  Uiso   1.00
C515   C     0.88717   0.41118   0.37443   0.00000  Uiso   1.00
C516   C     0.91372   0.37714   0.40066   0.00000  Uiso   1.00
C517   C     0.90842   0.66256   0.38274   0.00000  Uiso   1.00
C518   C     0.74146   0.52129   0.13267   0.00000  Uiso   1.00
C519   C     0.70507   0.51782   0.09983   0.00000  Uiso   1.00
C520   C     0.66833   0.49203   0.12047   0.00000  Uiso   1.00
C521   C     0.73194   0.51337   0.38949   0.00000  Uiso   1.00
C522   C     0.73452   0.46612   0.36860   0.00000  Uiso   1.00
C523   C     0.69181   0.44319   0.36771   0.00000  Uiso   1.00
C524   C     0.90240   0.46299   0.47753   0.00000  Uiso   1.00
C525   C     0.88361   0.40589   0.11643   0.00000  Uiso   1.00
C526   C     0.91259   0.37978   0.14777   0.00000  Uiso   1.00
C527   C     0.90246   0.66257   0.14834   0.00000  Uiso   1.00
C528   C     0.68799   0.46002   0.24006   0.00000  Uiso   1.00
C529   C     0.97869   0.53967   0.26130   0.00000  Uiso   1.00
C530   C     0.97865   0.45999   0.24028   0.00000  Uiso   1.00
C531   C     0.68805   0.53965   0.26123   0.00000  Uiso   1.00
C532   C     0.95750   0.49989   0.25062   0.00000  Uiso   1.00
H533   H     0.75301   0.57423   0.45859   0.00000  Uiso   1.00
H534   H     0.77031   0.62480   0.22919   0.00000  Uiso   1.00
H535   H     0.77027   0.37543   0.22939   0.00000  Uiso   1.00
H536   H     0.89655   0.62456   0.27001   0.00000  Uiso   1.00
H537   H     0.89337   0.40637   0.33840   0.00000  Uiso   1.00
H538   H     0.85343   0.40333   0.38020   0.00000  Uiso   1.00
H539   H     0.94716   0.38687   0.39831   0.00000  Uiso   1.00
H540   H     0.90410   0.37715   0.43632   0.00000  Uiso   1.00
H541   H     0.87509   0.65223   0.38404   0.00000  Uiso   1.00
H542   H     0.92686   0.63847   0.40341   0.00000  Uiso   1.00
H543   H     0.91980   0.66084   0.34771   0.00000  Uiso   1.00
H544   H     0.92751   0.44638   0.04117   0.00000  Uiso   1.00
H545   H     0.72958   0.53659   0.16392   0.00000  Uiso   1.00
H546   H     0.75276   0.48668   0.14165   0.00000  Uiso   1.00
H547   H     0.69451   0.55238   0.09014   0.00000  Uiso   1.00
H548   H     0.71552   0.49989   0.06931   0.00000  Uiso   1.00
H549   H     0.67798   0.45728   0.13054   0.00000  Uiso   1.00
H550   H     0.97615   0.48948   0.09564   0.00000  Uiso   1.00
H551   H     0.98963   0.51016   0.15018   0.00000  Uiso   1.00
H552   H     0.70588   0.53222   0.37350   0.00000  Uiso   1.00
H553   H     0.72363   0.50989   0.42543   0.00000  Uiso   1.00
H554   H     0.74658   0.46899   0.33409   0.00000  Uiso   1.00
H555   H     0.75338   0.57566   0.03922   0.00000  Uiso   1.00
H556   H     0.75632   0.44449   0.38816   0.00000  Uiso   1.00
H557   H     0.67920   0.43954   0.40217   0.00000  Uiso   1.00
H558   H     0.69476   0.40902   0.35287   0.00000  Uiso   1.00
H559   H     0.66965   0.46336   0.34714   0.00000  Uiso   1.00
H560   H     0.88712   0.39209   0.08217   0.00000  Uiso   1.00
H561   H     0.85078   0.40031   0.12765   0.00000  Uiso   1.00
H562   H     0.94548   0.38472   0.13683   0.00000  Uiso   1.00
H563   H     0.90926   0.39325   0.18209   0.00000  Uiso   1.00
H564   H     0.86969   0.65686   0.15924   0.00000  Uiso   1.00
H565   H     0.92353   0.64475   0.17204   0.00000  Uiso   1.00
H566   H     0.92893   0.44821   0.46068   0.00000  Uiso   1.00
H567   H     0.90695   0.64810   0.11455   0.00000  Uiso   1.00
H568   H     0.70425   0.42917   0.23139   0.00000  Uiso   1.00
H569   H     0.96241   0.57055   0.26987   0.00000  Uiso   1.00
H570   H     0.96238   0.42907   0.23187   0.00000  Uiso   1.00
H571   H     0.70440   0.57052   0.26977   0.00000  Uiso   1.00
H572   H     0.89695   0.37498   0.26864   0.00000  Uiso   1.00
N573   N     0.83333   0.61907   0.25000   0.00000  Uiso   1.00
N574   N     0.83333   0.38093   0.25000   0.00000  Uiso   1.00
O575   O     0.77226   0.53821   0.24999   0.00000  Uiso   1.00
O576   O     0.77305   0.55049   0.11575   0.00000  Uiso   1.00
O577   O     0.76874   0.53941   0.38242   0.00000  Uiso   1.00
O578   O     0.89442   0.45238   0.11726   0.00000  Uiso   1.00
O579   O     0.89441   0.46179   0.25001   0.00000  Uiso   1.00
O580   O     0.89441   0.53821   0.25001   0.00000  Uiso   1.00
O581   O     0.77226   0.46179   0.25000   0.00000  Uiso   1.00
O582   O     0.83333   0.53823   0.18392   0.00000  Uiso   1.00
O583   O     0.83334   0.46177   0.31608   0.00000  Uiso   1.00
O584   O     0.83334   0.53823   0.31608   0.00000  Uiso   1.00
O585   O     0.83333   0.46177   0.18393   0.00000  Uiso   1.00
O586   O     0.89892   0.45631   0.38449   0.00000  Uiso   1.00
Zn587  Zn    0.83333   0.55104   0.25000   0.00000  Uiso   1.00
Zn588  Zn    0.83333   0.44896   0.25000   0.00000  Uiso   1.00
C589   C     0.08665   0.83332   0.24983   0.00000  Uiso   1.00
C590   C     0.04250   0.83322   0.25038   0.00000  Uiso   1.00
C591   C     0.20184   0.69049   0.26079   0.00000  Uiso   1.00
C592   C     0.13165   0.97611   0.23853   0.00000  Uiso   1.00
C593   C     0.13163   0.69069   0.23863   0.00000  Uiso   1.00
C594   C     0.20175   0.97595   0.26115   0.00000  Uiso   1.00
C595   C     0.16690   0.83352   0.16348   0.00000  Uiso   1.00
C596   C     0.16737   0.83307   0.33657   0.00000  Uiso   1.00
C597   C     0.20039   0.81131   0.40739   0.00000  Uiso   1.00
C598   C     0.13653   0.85940   0.09281   0.00000  Uiso   1.00
C599   C     0.16750   0.83260   0.38443   0.00000  Uiso   1.00
C600   C     0.24670   0.83333   0.25019   0.00000  Uiso   1.00
C601   C     0.16693   0.83397   0.11570   0.00000  Uiso   1.00
C602   C     0.13516   0.85495   0.40683   0.00000  Uiso   1.00
C603   C     0.19833   0.81016   0.09324   0.00000  Uiso   1.00
C604   C     0.13793   0.86027   0.45306   0.00000  Uiso   1.00
C605   C     0.20136   0.81446   0.04693   0.00000  Uiso   1.00
C606   C     0.17027   0.83817   0.47664   0.00000  Uiso   1.00
C607   C     0.17023   0.83854   0.02337   0.00000  Uiso   1.00
C608   C     0.20226   0.81501   0.45369   0.00000  Uiso   1.00
C609   C     0.13865   0.86229   0.04637   0.00000  Uiso   1.00
C610   C     0.10943   0.88747   0.47614   0.00000  Uiso   1.00
C611   C     0.10976   0.88846   0.02240   0.00000  Uiso   1.00
C612   C     0.23506   0.79556   0.02376   0.00000  Uiso   1.00
C613   C     0.22050   0.74452   0.37443   0.00000  Uiso   1.00
C614   C     0.24705   0.71047   0.40066   0.00000  Uiso   1.00
C615   C     0.24176   0.99590   0.38274   0.00000  Uiso   1.00
C616   C     0.07479   0.85462   0.13267   0.00000  Uiso   1.00
C617   C     0.03840   0.85116   0.09983   0.00000  Uiso   1.00
C618   C     0.00167   0.82536   0.12047   0.00000  Uiso   1.00
C619   C     0.06527   0.84670   0.38949   0.00000  Uiso   1.00
C620   C     0.06785   0.79945   0.36860   0.00000  Uiso   1.00
C621   C     0.02514   0.77652   0.36771   0.00000  Uiso   1.00
C622   C     0.23573   0.79632   0.47753   0.00000  Uiso   1.00
C623   C     0.21694   0.73923   0.11643   0.00000  Uiso   1.00
C624   C     0.24593   0.71311   0.14777   0.00000  Uiso   1.00
C625   C     0.23579   0.99590   0.14834   0.00000  Uiso   1.00
C626   C     0.02132   0.79336   0.24006   0.00000  Uiso   1.00
C627   C     0.31203   0.87300   0.26130   0.00000  Uiso   1.00
C628   C     0.31198   0.79333   0.24028   0.00000  Uiso   1.00
C629   C     0.02139   0.87299   0.26123   0.00000  Uiso   1.00
C630   C     0.29084   0.83323   0.25062   0.00000  Uiso   1.00
H631   H     0.08634   0.90756   0.45859   0.00000  Uiso   1.00
H632   H     0.10364   0.95814   0.22919   0.00000  Uiso   1.00
H633   H     0.10360   0.70876   0.22939   0.00000  Uiso   1.00
H634   H     0.22988   0.95790   0.27001   0.00000  Uiso   1.00
H635   H     0.22671   0.73970   0.33840   0.00000  Uiso   1.00
H636   H     0.18676   0.73666   0.38020   0.00000  Uiso   1.00
H637   H     0.28049   0.72020   0.39831   0.00000  Uiso   1.00
H638   H     0.23743   0.71049   0.43632   0.00000  Uiso   1.00
H639   H     0.20843   0.98556   0.38404   0.00000  Uiso   1.00
H640   H     0.26020   0.97181   0.40341   0.00000  Uiso   1.00
H641   H     0.25314   0.99418   0.34771   0.00000  Uiso   1.00
H642   H     0.26084   0.77972   0.04117   0.00000  Uiso   1.00
H643   H     0.06291   0.86993   0.16392   0.00000  Uiso   1.00
H644   H     0.08609   0.82001   0.14165   0.00000  Uiso   1.00
H645   H     0.02784   0.88571   0.09014   0.00000  Uiso   1.00
H646   H     0.04885   0.83323   0.06931   0.00000  Uiso   1.00
H647   H     0.01132   0.79062   0.13054   0.00000  Uiso   1.00
H648   H     0.30948   0.82282   0.09564   0.00000  Uiso   1.00
H649   H     0.32296   0.84350   0.15018   0.00000  Uiso   1.00
H650   H     0.03922   0.86555   0.37350   0.00000  Uiso   1.00
H651   H     0.05696   0.84322   0.42543   0.00000  Uiso   1.00
H652   H     0.07991   0.80233   0.33409   0.00000  Uiso   1.00
H653   H     0.08671   0.90899   0.03922   0.00000  Uiso   1.00
H654   H     0.08966   0.77783   0.38816   0.00000  Uiso   1.00
H655   H     0.01253   0.77288   0.40217   0.00000  Uiso   1.00
H656   H     0.02810   0.74235   0.35287   0.00000  Uiso   1.00
H657   H     0.00299   0.79670   0.34714   0.00000  Uiso   1.00
H658   H     0.22046   0.72542   0.08217   0.00000  Uiso   1.00
H659   H     0.18411   0.73365   0.12765   0.00000  Uiso   1.00
H660   H     0.27881   0.71806   0.13683   0.00000  Uiso   1.00
H661   H     0.24259   0.72658   0.18209   0.00000  Uiso   1.00
H662   H     0.20302   0.99020   0.15924   0.00000  Uiso   1.00
H663   H     0.25686   0.97808   0.17204   0.00000  Uiso   1.00
H664   H     0.26226   0.78154   0.46068   0.00000  Uiso   1.00
H665   H     0.24028   0.98143   0.11455   0.00000  Uiso   1.00
H666   H     0.03758   0.76250   0.23139   0.00000  Uiso   1.00
H667   H     0.29575   0.90388   0.26987   0.00000  Uiso   1.00
H668   H     0.29571   0.76240   0.23187   0.00000  Uiso   1.00
H669   H     0.03773   0.90385   0.26977   0.00000  Uiso   1.00
H670   H     0.23028   0.70831   0.26864   0.00000  Uiso   1.00
N671   N     0.16667   0.95240   0.25000   0.00000  Uiso   1.00
N672   N     0.16667   0.71427   0.25000   0.00000  Uiso   1.00
O673   O     0.10559   0.87154   0.24999   0.00000  Uiso   1.00
O674   O     0.10639   0.88383   0.11575   0.00000  Uiso   1.00
O675   O     0.10208   0.87274   0.38242   0.00000  Uiso   1.00
O676   O     0.22776   0.78571   0.11726   0.00000  Uiso   1.00
O677   O     0.22774   0.79513   0.25001   0.00000  Uiso   1.00
O678   O     0.22774   0.87154   0.25001   0.00000  Uiso   1.00
O679   O     0.10559   0.79513   0.25000   0.00000  Uiso   1.00
O680   O     0.16666   0.87156   0.18392   0.00000  Uiso   1.00
O681   O     0.16667   0.79511   0.31608   0.00000  Uiso   1.00
O682   O     0.16667   0.87156   0.31608   0.00000  Uiso   1.00
O683   O     0.16666   0.79511   0.18393   0.00000  Uiso   1.00
O684   O     0.23225   0.78964   0.38449   0.00000  Uiso   1.00
Zn685  Zn    0.16667   0.88437   0.25000   0.00000  Uiso   1.00
Zn686  Zn    0.16667   0.78229   0.25000   0.00000  Uiso   1.00
C687   C     0.41998   0.83332   0.24983   0.00000  Uiso   1.00
C688   C     0.37584   0.83322   0.25038   0.00000  Uiso   1.00
C689   C     0.53517   0.69049   0.26079   0.00000  Uiso   1.00
C690   C     0.46498   0.97611   0.23853   0.00000  Uiso   1.00
C691   C     0.46496   0.69069   0.23863   0.00000  Uiso   1.00
C692   C     0.53508   0.97595   0.26115   0.00000  Uiso   1.00
C693   C     0.50023   0.83352   0.16348   0.00000  Uiso   1.00
C694   C     0.50070   0.83307   0.33657   0.00000  Uiso   1.00
C695   C     0.53373   0.81131   0.40739   0.00000  Uiso   1.00
C696   C     0.46986   0.85940   0.09281   0.00000  Uiso   1.00
C697   C     0.50084   0.83260   0.38443   0.00000  Uiso   1.00
C698   C     0.58003   0.83333   0.25019   0.00000  Uiso   1.00
C699   C     0.50027   0.83397   0.11570   0.00000  Uiso   1.00
C700   C     0.46849   0.85495   0.40683   0.00000  Uiso   1.00
C701   C     0.53167   0.81016   0.09324   0.00000  Uiso   1.00
C702   C     0.47127   0.86027   0.45306   0.00000  Uiso   1.00
C703   C     0.53470   0.81446   0.04693   0.00000  Uiso   1.00
C704   C     0.50361   0.83817   0.47664   0.00000  Uiso   1.00
C705   C     0.50357   0.83854   0.02337   0.00000  Uiso   1.00
C706   C     0.53560   0.81501   0.45369   0.00000  Uiso   1.00
C707   C     0.47198   0.86229   0.04637   0.00000  Uiso   1.00
C708   C     0.44276   0.88747   0.47614   0.00000  Uiso   1.00
C709   C     0.44310   0.88846   0.02240   0.00000  Uiso   1.00
C710   C     0.56839   0.79556   0.02376   0.00000  Uiso   1.00
C711   C     0.55384   0.74452   0.37443   0.00000  Uiso   1.00
C712   C     0.58039   0.71047   0.40066   0.00000  Uiso   1.00
C713   C     0.57509   0.99590   0.38274   0.00000  Uiso   1.00
C714   C     0.40812   0.85462   0.13267   0.00000  Uiso   1.00
C715   C     0.37174   0.85116   0.09983   0.00000  Uiso   1.00
C716   C     0.33500   0.82536   0.12047   0.00000  Uiso   1.00
C717   C     0.39860   0.84670   0.38949   0.00000  Uiso   1.00
C718   C     0.40119   0.79945   0.36860   0.00000  Uiso   1.00
C719   C     0.35848   0.77652   0.36771   0.00000  Uiso   1.00
C720   C     0.56906   0.79632   0.47753   0.00000  Uiso   1.00
C721   C     0.55027   0.73923   0.11643   0.00000  Uiso   1.00
C722   C     0.57926   0.71311   0.14777   0.00000  Uiso   1.00
C723   C     0.56913   0.99590   0.14834   0.00000  Uiso   1.00
C724   C     0.35465   0.79336   0.24006   0.00000  Uiso   1.00
C725   C     0.64536   0.87300   0.26130   0.00000  Uiso   1.00
C726   C     0.64531   0.79333   0.24028   0.00000  Uiso   1.00
C727   C     0.35472   0.87299   0.26123   0.00000  Uiso   1.00
C728   C     0.62417   0.83323   0.25062   0.00000  Uiso   1.00
H729   H     0.41967   0.90756   0.45859   0.00000  Uiso   1.00
H730   H     0.43697   0.95814   0.22919   0.00000  Uiso   1.00
H731   H     0.43693   0.70876   0.22939   0.00000  Uiso   1.00
H732   H     0.56322   0.95790   0.27001   0.00000  Uiso   1.00
H733   H     0.56004   0.73970   0.33840   0.00000  Uiso   1.00
H734   H     0.52010   0.73666   0.38020   0.00000  Uiso   1.00
H735   H     0.61383   0.72020   0.39831   0.00000  Uiso   1.00
H736   H     0.57076   0.71049   0.43632   0.00000  Uiso   1.00
H737   H     0.54176   0.98556   0.38404   0.00000  Uiso   1.00
H738   H     0.59353   0.97181   0.40341   0.00000  Uiso   1.00
H739   H     0.58647   0.99418   0.34771   0.00000  Uiso   1.00
H740   H     0.59418   0.77972   0.04117   0.00000  Uiso   1.00
H741   H     0.39625   0.86993   0.16392   0.00000  Uiso   1.00
H742   H     0.41942   0.82001   0.14165   0.00000  Uiso   1.00
H743   H     0.36118   0.88571   0.09014   0.00000  Uiso   1.00
H744   H     0.38219   0.83323   0.06931   0.00000  Uiso   1.00
H745   H     0.34465   0.79062   0.13054   0.00000  Uiso   1.00
H746   H     0.64281   0.82282   0.09564   0.00000  Uiso   1.00
H747   H     0.65629   0.84350   0.15018   0.00000  Uiso   1.00
H748   H     0.37255   0.86555   0.37350   0.00000  Uiso   1.00
H749   H     0.39030   0.84322   0.42543   0.00000  Uiso   1.00
H750   H     0.41324   0.80233   0.33409   0.00000  Uiso   1.00
H751   H     0.42004   0.90899   0.03922   0.00000  Uiso   1.00
H752   H     0.42299   0.77783   0.38816   0.00000  Uiso   1.00
H753   H     0.34586   0.77288   0.40217   0.00000  Uiso   1.00
H754   H     0.36143   0.74235   0.35287   0.00000  Uiso   1.00
H755   H     0.33632   0.79670   0.34714   0.00000  Uiso   1.00
H756   H     0.55379   0.72542   0.08217   0.00000  Uiso   1.00
H757   H     0.51744   0.73365   0.12765   0.00000  Uiso   1.00
H758   H     0.61215   0.71806   0.13683   0.00000  Uiso   1.00
H759   H     0.57593   0.72658   0.18209   0.00000  Uiso   1.00
H760   H     0.53636   0.99020   0.15924   0.00000  Uiso   1.00
H761   H     0.59019   0.97808   0.17204   0.00000  Uiso   1.00
H762   H     0.59560   0.78154   0.46068   0.00000  Uiso   1.00
H763   H     0.57361   0.98143   0.11455   0.00000  Uiso   1.00
H764   H     0.37091   0.76250   0.23139   0.00000  Uiso   1.00
H765   H     0.62908   0.90388   0.26987   0.00000  Uiso   1.00
H766   H     0.62904   0.76240   0.23187   0.00000  Uiso   1.00
H767   H     0.37107   0.90385   0.26977   0.00000  Uiso   1.00
H768   H     0.56362   0.70831   0.26864   0.00000  Uiso   1.00
N769   N     0.50000   0.95240   0.25000   0.00000  Uiso   1.00
N770   N     0.50000   0.71427   0.25000   0.00000  Uiso   1.00
O771   O     0.43892   0.87154   0.24999   0.00000  Uiso   1.00
O772   O     0.43972   0.88383   0.11575   0.00000  Uiso   1.00
O773   O     0.43541   0.87274   0.38242   0.00000  Uiso   1.00
O774   O     0.56109   0.78571   0.11726   0.00000  Uiso   1.00
O775   O     0.56108   0.79513   0.25001   0.00000  Uiso   1.00
O776   O     0.56108   0.87154   0.25001   0.00000  Uiso   1.00
O777   O     0.43892   0.79513   0.25000   0.00000  Uiso   1.00
O778   O     0.49999   0.87156   0.18392   0.00000  Uiso   1.00
O779   O     0.50001   0.79511   0.31608   0.00000  Uiso   1.00
O780   O     0.50001   0.87156   0.31608   0.00000  Uiso   1.00
O781   O     0.49999   0.79511   0.18393   0.00000  Uiso   1.00
O782   O     0.56559   0.78964   0.38449   0.00000  Uiso   1.00
Zn783  Zn    0.50000   0.88437   0.25000   0.00000  Uiso   1.00
Zn784  Zn    0.50000   0.78229   0.25000   0.00000  Uiso   1.00
C785   C     0.75331   0.83332   0.24983   0.00000  Uiso   1.00
C786   C     0.70917   0.83322   0.25038   0.00000  Uiso   1.00
C787   C     0.86850   0.69049   0.26079   0.00000  Uiso   1.00
C788   C     0.79832   0.97611   0.23853   0.00000  Uiso   1.00
C789   C     0.79829   0.69069   0.23863   0.00000  Uiso   1.00
C790   C     0.86842   0.97595   0.26115   0.00000  Uiso   1.00
C791   C     0.83356   0.83352   0.16348   0.00000  Uiso   1.00
C792   C     0.83404   0.83307   0.33657   0.00000  Uiso   1.00
C793   C     0.86706   0.81131   0.40739   0.00000  Uiso   1.00
C794   C     0.80319   0.85940   0.09281   0.00000  Uiso   1.00
C795   C     0.83417   0.83260   0.38443   0.00000  Uiso   1.00
C796   C     0.91336   0.83333   0.25019   0.00000  Uiso   1.00
C797   C     0.83360   0.83397   0.11570   0.00000  Uiso   1.00
C798   C     0.80183   0.85495   0.40683   0.00000  Uiso   1.00
C799   C     0.86500   0.81016   0.09324   0.00000  Uiso   1.00
C800   C     0.80460   0.86027   0.45306   0.00000  Uiso   1.00
C801   C     0.86803   0.81446   0.04693   0.00000  Uiso   1.00
C802   C     0.83694   0.83817   0.47664   0.00000  Uiso   1.00
C803   C     0.83690   0.83854   0.02337   0.00000  Uiso   1.00
C804   C     0.86893   0.81501   0.45369   0.00000  Uiso   1.00
C805   C     0.80531   0.86229   0.04637   0.00000  Uiso   1.00
C806   C     0.77609   0.88747   0.47614   0.00000  Uiso   1.00
C807   C     0.77643   0.88846   0.02240   0.00000  Uiso   1.00
C808   C     0.90173   0.79556   0.02376   0.00000  Uiso   1.00
C809   C     0.88717   0.74452   0.37443   0.00000  Uiso   1.00
C810   C     0.91372   0.71047   0.40066   0.00000  Uiso   1.00
C811   C     0.90842   0.99590   0.38274   0.00000  Uiso   1.00
C812   C     0.74146   0.85462   0.13267   0.00000  Uiso   1.00
C813   C     0.70507   0.85116   0.09983   0.00000  Uiso   1.00
C814   C     0.66833   0.82536   0.12047   0.00000  Uiso   1.00
C815   C     0.73194   0.84670   0.38949   0.00000  Uiso   1.00
C816   C     0.73452   0.79945   0.36860   0.00000  Uiso   1.00
C817   C     0.69181   0.77652   0.36771   0.00000  Uiso   1.00
C818   C     0.90240   0.79632   0.47753   0.00000  Uiso   1.00
C819   C     0.88361   0.73923   0.11643   0.00000  Uiso   1.00
C820   C     0.91259   0.71311   0.14777   0.00000  Uiso   1.00
C821   C     0.90246   0.99590   0.14834   0.00000  Uiso   1.00
C822   C     0.68799   0.79336   0.24006   0.00000  Uiso   1.00
C823   C     0.97869   0.87300   0.26130   0.00000  Uiso   1.00
C824   C     0.97865   0.79333   0.24028   0.00000  Uiso   1.00
C825   C     0.68805   0.87299   0.26123   0.00000  Uiso   1.00
C826   C     0.95750   0.83323   0.25062   0.00000  Uiso   1.00
H827   H     0.75301   0.90756   0.45859   0.00000  Uiso   1.00
H828   H     0.77031   0.95814   0.22919   0.00000  Uiso   1.00
H829   H     0.77027   0.70876   0.22939   0.00000  Uiso   1.00
H830   H     0.89655   0.95790   0.27001   0.00000  Uiso   1.00
H831   H     0.89337   0.73970   0.33840   0.00000  Uiso   1.00
H832   H     0.85343   0.73666   0.38020   0.00000  Uiso   1.00
H833   H     0.94716   0.72020   0.39831   0.00000  Uiso   1.00
H834   H     0.90410   0.71049   0.43632   0.00000  Uiso   1.00
H835   H     0.87509   0.98556   0.38404   0.00000  Uiso   1.00
H836   H     0.92686   0.97181   0.40341   0.00000  Uiso   1.00
H837   H     0.91980   0.99418   0.34771   0.00000  Uiso   1.00
H838   H     0.92751   0.77972   0.04117   0.00000  Uiso   1.00
H839   H     0.72958   0.86993   0.16392   0.00000  Uiso   1.00
H840   H     0.75276   0.82001   0.14165   0.00000  Uiso   1.00
H841   H     0.69451   0.88571   0.09014   0.00000  Uiso   1.00
H842   H     0.71552   0.83323   0.06931   0.00000  Uiso   1.00
H843   H     0.67798   0.79062   0.13054   0.00000  Uiso   1.00
H844   H     0.97615   0.82282   0.09564   0.00000  Uiso   1.00
H845   H     0.98963   0.84350   0.15018   0.00000  Uiso   1.00
H846   H     0.70588   0.86555   0.37350   0.00000  Uiso   1.00
H847   H     0.72363   0.84322   0.42543   0.00000  Uiso   1.00
H848   H     0.74658   0.80233   0.33409   0.00000  Uiso   1.00
H849   H     0.75338   0.90899   0.03922   0.00000  Uiso   1.00
H850   H     0.75632   0.77783   0.38816   0.00000  Uiso   1.00
H851   H     0.67920   0.77288   0.40217   0.00000  Uiso   1.00
H852   H     0.69476   0.74235   0.35287   0.00000  Uiso   1.00
H853   H     0.66965   0.79670   0.34714   0.00000  Uiso   1.00
H854   H     0.88712   0.72542   0.08217   0.00000  Uiso   1.00
H855   H     0.85078   0.73365   0.12765   0.00000  Uiso   1.00
H856   H     0.94548   0.71806   0.13683   0.00000  Uiso   1.00
H857   H     0.90926   0.72658   0.18209   0.00000  Uiso   1.00
H858   H     0.86969   0.99020   0.15924   0.00000  Uiso   1.00
H859   H     0.92353   0.97808   0.17204   0.00000  Uiso   1.00
H860   H     0.92893   0.78154   0.46068   0.00000  Uiso   1.00
H861   H     0.90695   0.98143   0.11455   0.00000  Uiso   1.00
H862   H     0.70425   0.76250   0.23139   0.00000  Uiso   1.00
H863   H     0.96241   0.90388   0.26987   0.00000  Uiso   1.00
H864   H     0.96238   0.76240   0.23187   0.00000  Uiso   1.00
H865   H     0.70440   0.90385   0.26977   0.00000  Uiso   1.00
H866   H     0.89695   0.70831   0.26864   0.00000  Uiso   1.00
N867   N     0.83333   0.95240   0.25000   0.00000  Uiso   1.00
N868   N     0.83333   0.71427   0.25000   0.00000  Uiso   1.00
O869   O     0.77226   0.87154   0.24999   0.00000  Uiso   1.00
O870   O     0.77305   0.88383   0.11575   0.00000  Uiso   1.00
O871   O     0.76874   0.87274   0.38242   0.00000  Uiso   1.00
O872   O     0.89442   0.78571   0.11726   0.00000  Uiso   1.00
O873   O     0.89441   0.79513   0.25001   0.00000  Uiso   1.00
O874   O     0.89441   0.87154   0.25001   0.00000  Uiso   1.00
O875   O     0.77226   0.79513   0.25000   0.00000  Uiso   1.00
O876   O     0.83333   0.87156   0.18392   0.00000  Uiso   1.00
O877   O     0.83334   0.79511   0.31608   0.00000  Uiso   1.00
O878   O     0.83334   0.87156   0.31608   0.00000  Uiso   1.00
O879   O     0.83333   0.79511   0.18393   0.00000  Uiso   1.00
O880   O     0.89892   0.78964   0.38449   0.00000  Uiso   1.00
Zn881  Zn    0.83333   0.88437   0.25000   0.00000  Uiso   1.00
Zn882  Zn    0.83333   0.78229   0.25000   0.00000  Uiso   1.00
C883   C     0.08665   0.16665   0.74983   0.00000  Uiso   1.00
C884   C     0.04250   0.16656   0.75038   0.00000  Uiso   1.00
C885   C     0.20184   0.02383   0.76079   0.00000  Uiso   1.00
C886   C     0.13165   0.30944   0.73853   0.00000  Uiso   1.00
C887   C     0.13163   0.02403   0.73863   0.00000  Uiso   1.00
C888   C     0.20175   0.30929   0.76115   0.00000  Uiso   1.00
C889   C     0.16690   0.16685   0.66348   0.00000  Uiso   1.00
C890   C     0.16737   0.16640   0.83657   0.00000  Uiso   1.00
C891   C     0.20039   0.14465   0.90739   0.00000  Uiso   1.00
C892   C     0.13653   0.19273   0.59281   0.00000  Uiso   1.00
C893   C     0.16750   0.16593   0.88443   0.00000  Uiso   1.00
C894   C     0.24670   0.16666   0.75019   0.00000  Uiso   1.00
C895   C     0.16693   0.16731   0.61570   0.00000  Uiso   1.00
C896   C     0.13516   0.18829   0.90683   0.00000  Uiso   1.00
C897   C     0.19833   0.14350   0.59324   0.00000  Uiso   1.00
C898   C     0.13793   0.19360   0.95306   0.00000  Uiso   1.00
C899   C     0.20136   0.14780   0.54693   0.00000  Uiso   1.00
C900   C     0.17027   0.17150   0.97664   0.00000  Uiso   1.00
C901   C     0.17023   0.17188   0.52337   0.00000  Uiso   1.00
C902   C     0.20226   0.14834   0.95369   0.00000  Uiso   1.00
C903   C     0.13865   0.19563   0.54637   0.00000  Uiso   1.00
C904   C     0.10943   0.22081   0.97614   0.00000  Uiso   1.00
C905   C     0.10976   0.22179   0.52240   0.00000  Uiso   1.00
C906   C     0.23506   0.12889   0.52376   0.00000  Uiso   1.00
C907   C     0.22050   0.07785   0.87443   0.00000  Uiso   1.00
C908   C     0.24705   0.04381   0.90066   0.00000  Uiso   1.00
C909   C     0.24176   0.32923   0.88274   0.00000  Uiso   1.00
C910   C     0.07479   0.18796   0.63267   0.00000  Uiso   1.00
C911   C     0.03840   0.18449   0.59983   0.00000  Uiso   1.00
C912   C     0.00167   0.15870   0.62047   0.00000  Uiso   1.00
C913   C     0.06527   0.18004   0.88949   0.00000  Uiso   1.00
C914   C     0.06785   0.13278   0.86860   0.00000  Uiso   1.00
C915   C     0.02514   0.10986   0.86771   0.00000  Uiso   1.00
C916   C     0.23573   0.12965   0.97753   0.00000  Uiso   1.00
C917   C     0.21694   0.07256   0.61643   0.00000  Uiso   1.00
C918   C     0.24593   0.04645   0.64777   0.00000  Uiso   1.00
C919   C     0.23579   0.32924   0.64834   0.00000  Uiso   1.00
C920   C     0.02132   0.12669   0.74006   0.00000  Uiso   1.00
C921   C     0.31203   0.20634   0.76130   0.00000  Uiso   1.00
C922   C     0.31198   0.12666   0.74028   0.00000  Uiso   1.00
C923   C     0.02139   0.20632   0.76123   0.00000  Uiso   1.00
C924   C     0.29084   0.16656   0.75062   0.00000  Uiso   1.00
H925   H     0.08634   0.24090   0.95859   0.00000  Uiso   1.00
H926   H     0.10364   0.29147   0.72919   0.00000  Uiso   1.00
H927   H     0.10360   0.04210   0.72939   0.00000  Uiso   1.00
H928   H     0.22988   0.29123   0.77001   0.00000  Uiso   1.00
H929   H     0.22671   0.07304   0.83840   0.00000  Uiso   1.00
H930   H     0.18676   0.06999   0.88020   0.00000  Uiso   1.00
H931   H     0.28049   0.05354   0.89831   0.00000  Uiso   1.00
H932   H     0.23743   0.04382   0.93632   0.00000  Uiso   1.00
H933   H     0.20843   0.31889   0.88404   0.00000  Uiso   1.00
H934   H     0.26020   0.30514   0.90341   0.00000  Uiso   1.00
H935   H     0.25314   0.32751   0.84771   0.00000  Uiso   1.00
H936   H     0.26084   0.11305   0.54117   0.00000  Uiso   1.00
H937   H     0.06291   0.20326   0.66392   0.00000  Uiso   1.00
H938   H     0.08609   0.15335   0.64165   0.00000  Uiso   1.00
H939   H     0.02784   0.21904   0.59014   0.00000  Uiso   1.00
H940   H     0.04885   0.16656   0.56931   0.00000  Uiso   1.00
H941   H     0.01132   0.12395   0.63054   0.00000  Uiso   1.00
H942   H     0.30948   0.15615   0.59564   0.00000  Uiso   1.00
H943   H     0.32296   0.17683   0.65018   0.00000  Uiso   1.00
H944   H     0.03922   0.19889   0.87350   0.00000  Uiso   1.00
H945   H     0.05696   0.17656   0.92543   0.00000  Uiso   1.00
H946   H     0.07991   0.13566   0.83409   0.00000  Uiso   1.00
H947   H     0.08671   0.24233   0.53922   0.00000  Uiso   1.00
H948   H     0.08966   0.11116   0.88816   0.00000  Uiso   1.00
H949   H     0.01253   0.10621   0.90217   0.00000  Uiso   1.00
H950   H     0.02810   0.07568   0.85287   0.00000  Uiso   1.00
H951   H     0.00299   0.13003   0.84714   0.00000  Uiso   1.00
H952   H     0.22046   0.05876   0.58217   0.00000  Uiso   1.00
H953   H     0.18411   0.06698   0.62765   0.00000  Uiso   1.00
H954   H     0.27881   0.05139   0.63683   0.00000  Uiso   1.00
H955   H     0.24259   0.05991   0.68209   0.00000  Uiso   1.00
H956   H     0.20302   0.32353   0.65924   0.00000  Uiso   1.00
H957   H     0.25686   0.31141   0.67204   0.00000  Uiso   1.00
H958   H     0.26226   0.11488   0.96068   0.00000  Uiso   1.00
H959   H     0.24028   0.31476   0.61455   0.00000  Uiso   1.00
H960   H     0.03758   0.09584   0.73139   0.00000  Uiso   1.00
H961   H     0.29575   0.23721   0.76987   0.00000  Uiso   1.00
H962   H     0.29571   0.09574   0.73187   0.00000  Uiso   1.00
H963   H     0.03773   0.23718   0.76977   0.00000  Uiso   1.00
H964   H     0.23028   0.04165   0.76864   0.00000  Uiso   1.00
N965   N     0.16667   0.28573   0.75000   0.00000  Uiso   1.00
N966   N     0.16667   0.04760   0.75000   0.00000  Uiso   1.00
O967   O     0.10559   0.20487   0.74999   0.00000  Uiso   1.00
O968   O     0.10639   0.21716   0.61575   0.00000  Uiso   1.00
O969   O     0.10208   0.20608   0.88242   0.00000  Uiso   1.00
O970   O     0.22776   0.11904   0.61726   0.00000  Uiso   1.00
O971   O     0.22774   0.12846   0.75001   0.00000  Uiso   1.00
O972   O     0.22774   0.20487   0.75001   0.00000  Uiso   1.00
O973   O     0.10559   0.12846   0.75000   0.00000  Uiso   1.00
O974   O     0.16666   0.20489   0.68392   0.00000  Uiso   1.00
O975   O     0.16667   0.12844   0.81608   0.00000  Uiso   1.00
O976   O     0.16667   0.20489   0.81608   0.00000  Uiso   1.00
O977   O     0.16666   0.12844   0.68393   0.00000  Uiso   1.00
O978   O     0.23225   0.12297   0.88449   0.00000  Uiso   1.00
Zn979  Zn    0.16667   0.21771   0.75000   0.00000  Uiso   1.00
Zn980  Zn    0.16667   0.11563   0.75000   0.00000  Uiso   1.00
C981   C     0.41998   0.16665   0.74983   0.00000  Uiso   1.00
C982   C     0.37584   0.16656   0.75038   0.00000  Uiso   1.00
C983   C     0.53517   0.02383   0.76079   0.00000  Uiso   1.00
C984   C     0.46498   0.30944   0.73853   0.00000  Uiso   1.00
C985   C     0.46496   0.02403   0.73863   0.00000  Uiso   1.00
C986   C     0.53508   0.30929   0.76115   0.00000  Uiso   1.00
C987   C     0.50023   0.16685   0.66348   0.00000  Uiso   1.00
C988   C     0.50070   0.16640   0.83657   0.00000  Uiso   1.00
C989   C     0.53373   0.14465   0.90739   0.00000  Uiso   1.00
C990   C     0.46986   0.19273   0.59281   0.00000  Uiso   1.00
C991   C     0.50084   0.16593   0.88443   0.00000  Uiso   1.00
C992   C     0.58003   0.16666   0.75019   0.00000  Uiso   1.00
C993   C     0.50027   0.16731   0.61570   0.00000  Uiso   1.00
C994   C     0.46849   0.18829   0.90683   0.00000  Uiso   1.00
C995   C     0.53167   0.14350   0.59324   0.00000  Uiso   1.00
C996   C     0.47127   0.19360   0.95306   0.00000  Uiso   1.00
C997   C     0.53470   0.14780   0.54693   0.00000  Uiso   1.00
C998   C     0.50361   0.17150   0.97664   0.00000  Uiso   1.00
C999   C     0.50357   0.17188   0.52337   0.00000  Uiso   1.00
C1000  C     0.53560   0.14834   0.95369   0.00000  Uiso   1.00
C1001  C     0.47198   0.19563   0.54637   0.00000  Uiso   1.00
C1002  C     0.44276   0.22081   0.97614   0.00000  Uiso   1.00
C1003  C     0.44310   0.22179   0.52240   0.00000  Uiso   1.00
C1004  C     0.56839   0.12889   0.52376   0.00000  Uiso   1.00
C1005  C     0.55384   0.07785   0.87443   0.00000  Uiso   1.00
C1006  C     0.58039   0.04381   0.90066   0.00000  Uiso   1.00
C1007  C     0.57509   0.32923   0.88274   0.00000  Uiso   1.00
C1008  C     0.40812   0.18796   0.63267   0.00000  Uiso   1.00
C1009  C     0.37174   0.18449   0.59983   0.00000  Uiso   1.00
C1010  C     0.33500   0.15870   0.62047   0.00000  Uiso   1.00
C1011  C     0.39860   0.18004   0.88949   0.00000  Uiso   1.00
C1012  C     0.40119   0.13278   0.86860   0.00000  Uiso   1.00
C1013  C     0.35848   0.10986   0.86771   0.00000  Uiso   1.00
C1014  C     0.56906   0.12965   0.97753   0.00000  Uiso   1.00
C1015  C     0.55027   0.07256   0.61643   0.00000  Uiso   1.00
C1016  C     0.57926   0.04645   0.64777   0.00000  Uiso   1.00
C1017  C     0.56913   0.32924   0.64834   0.00000  Uiso   1.00
C1018  C     0.35465   0.12669   0.74006   0.00000  Uiso   1.00
C1019  C     0.64536   0.20634   0.76130   0.00000  Uiso   1.00
C1020  C     0.64531   0.12666   0.74028   0.00000  Uiso   1.00
C1021  C     0.35472   0.20632   0.76123   0.00000  Uiso   1.00
C1022  C     0.62417   0.16656   0.75062   0.00000  Uiso   1.00
H1023  H     0.41967   0.24090   0.95859   0.00000  Uiso   1.00
H1024  H     0.43697   0.29147   0.72919   0.00000  Uiso   1.00
H1025  H     0.43693   0.04210   0.72939   0.00000  Uiso   1.00
H1026  H     0.56322   0.29123   0.77001   0.00000  Uiso   1.00
H1027  H     0.56004   0.07304   0.83840   0.00000  Uiso   1.00
H1028  H     0.52010   0.06999   0.88020   0.00000  Uiso   1.00
H1029  H     0.61383   0.05354   0.89831   0.00000  Uiso   1.00
H1030  H     0.57076   0.04382   0.93632   0.00000  Uiso   1.00
H1031  H     0.54176   0.31889   0.88404   0.00000  Uiso   1.00
H1032  H     0.59353   0.30514   0.90341   0.00000  Uiso   1.00
H1033  H     0.58647   0.32751   0.84771   0.00000  Uiso   1.00
H1034  H     0.59418   0.11305   0.54117   0.00000  Uiso   1.00
H1035  H     0.39625   0.20326   0.66392   0.00000  Uiso   1.00
H1036  H     0.41942   0.15335   0.64165   0.00000  Uiso   1.00
H1037  H     0.36118   0.21904   0.59014   0.00000  Uiso   1.00
H1038  H     0.38219   0.16656   0.56931   0.00000  Uiso   1.00
H1039  H     0.34465   0.12395   0.63054   0.00000  Uiso   1.00
H1040  H     0.64281   0.15615   0.59564   0.00000  Uiso   1.00
H1041  H     0.65629   0.17683   0.65018   0.00000  Uiso   1.00
H1042  H     0.37255   0.19889   0.87350   0.00000  Uiso   1.00
H1043  H     0.39030   0.17656   0.92543   0.00000  Uiso   1.00
H1044  H     0.41324   0.13566   0.83409   0.00000  Uiso   1.00
H1045  H     0.42004   0.24233   0.53922   0.00000  Uiso   1.00
H1046  H     0.42299   0.11116   0.88816   0.00000  Uiso   1.00
H1047  H     0.34586   0.10621   0.90217   0.00000  Uiso   1.00
H1048  H     0.36143   0.07568   0.85287   0.00000  Uiso   1.00
H1049  H     0.33632   0.13003   0.84714   0.00000  Uiso   1.00
H1050  H     0.55379   0.05876   0.58217   0.00000  Uiso   1.00
H1051  H     0.51744   0.06698   0.62765   0.00000  Uiso   1.00
H1052  H     0.61215   0.05139   0.63683   0.00000  Uiso   1.00
H1053  H     0.57593   0.05991   0.68209   0.00000  Uiso   1.00
H1054  H     0.53636   0.32353   0.65924   0.00000  Uiso   1.00
H1055  H     0.59019   0.31141   0.67204   0.00000  Uiso   1.00
H1056  H     0.59560   0.11488   0.96068   0.00000  Uiso   1.00
H1057  H     0.57361   0.31476   0.61455   0.00000  Uiso   1.00
H1058  H     0.37091   0.09584   0.73139   0.00000  Uiso   1.00
H1059  H     0.62908   0.23721   0.76987   0.00000  Uiso   1.00
H1060  H     0.62904   0.09574   0.73187   0.00000  Uiso   1.00
H1061  H     0.37107   0.23718   0.76977   0.00000  Uiso   1.00
H1062  H     0.56362   0.04165   0.76864   0.00000  Uiso   1.00
N1063  N     0.50000   0.28573   0.75000   0.00000  Uiso   1.00
N1064  N     0.50000   0.04760   0.75000   0.00000  Uiso   1.00
O1065  O     0.43892   0.20487   0.74999   0.00000  Uiso   1.00
O1066  O     0.43972   0.21716   0.61575   0.00000  Uiso   1.00
O1067  O     0.43541   0.20608   0.88242   0.00000  Uiso   1.00
O1068  O     0.56109   0.11904   0.61726   0.00000  Uiso   1.00
O1069  O     0.56108   0.12846   0.75001   0.00000  Uiso   1.00
O1070  O     0.56108   0.20487   0.75001   0.00000  Uiso   1.00
O1071  O     0.43892   0.12846   0.75000   0.00000  Uiso   1.00
O1072  O     0.49999   0.20489   0.68392   0.00000  Uiso   1.00
O1073  O     0.50001   0.12844   0.81608   0.00000  Uiso   1.00
O1074  O     0.50001   0.20489   0.81608   0.00000  Uiso   1.00
O1075  O     0.49999   0.12844   0.68393   0.00000  Uiso   1.00
O1076  O     0.56559   0.12297   0.88449   0.00000  Uiso   1.00
Zn1077 Zn    0.50000   0.21771   0.75000   0.00000  Uiso   1.00
Zn1078 Zn    0.50000   0.11563   0.75000   0.00000  Uiso   1.00
C1079  C     0.75331   0.16665   0.74983   0.00000  Uiso   1.00
C1080  C     0.70917   0.16656   0.75038   0.00000  Uiso   1.00
C1081  C     0.86850   0.02383   0.76079   0.00000  Uiso   1.00
C1082  C     0.79832   0.30944   0.73853   0.00000  Uiso   1.00
C1083  C     0.79829   0.02403   0.73863   0.00000  Uiso   1.00
C1084  C     0.86842   0.30929   0.76115   0.00000  Uiso   1.00
C1085  C     0.83356   0.16685   0.66348   0.00000  Uiso   1.00
C1086  C     0.83404   0.16640   0.83657   0.00000  Uiso   1.00
C1087  C     0.86706   0.14465   0.90739   0.00000  Uiso   1.00
C1088  C     0.80319   0.19273   0.59281   0.00000  Uiso   1.00
C1089  C     0.83417   0.16593   0.88443   0.00000  Uiso   1.00
C1090  C     0.91336   0.16666   0.75019   0.00000  Uiso   1.00
C1091  C     0.83360   0.16731   0.61570   0.00000  Uiso   1.00
C1092  C     0.80183   0.18829   0.90683   0.00000  Uiso   1.00
C1093  C     0.86500   0.14350   0.59324   0.00000  Uiso   1.00
C1094  C     0.80460   0.19360   0.95306   0.00000  Uiso   1.00
C1095  C     0.86803   0.14780   0.54693   0.00000  Uiso   1.00
C1096  C     0.83694   0.17150   0.97664   0.00000  Uiso   1.00
C1097  C     0.83690   0.17188   0.52337   0.00000  Uiso   1.00
C1098  C     0.86893   0.14834   0.95369   0.00000  Uiso   1.00
C1099  C     0.80531   0.19563   0.54637   0.00000  Uiso   1.00
C1100  C     0.77609   0.22081   0.97614   0.00000  Uiso   1.00
C1101  C     0.77643   0.22179   0.52240   0.00000  Uiso   1.00
C1102  C     0.90173   0.12889   0.52376   0.00000  Uiso   1.00
C1103  C     0.88717   0.07785   0.87443   0.00000  Uiso   1.00
C1104  C     0.91372   0.04381   0.90066   0.00000  Uiso   1.00
C1105  C     0.90842   0.32923   0.88274   0.00000  Uiso   1.00
C1106  C     0.74146   0.18796   0.63267   0.00000  Uiso   1.00
C1107  C     0.70507   0.18449   0.59983   0.00000  Uiso   1.00
C1108  C     0.66833   0.15870   0.62047   0.00000  Uiso   1.00
C1109  C     0.73194   0.18004   0.88949   0.00000  Uiso   1.00
C1110  C     0.73452   0.13278   0.86860   0.00000  Uiso   1.00
C1111  C     0.69181   0.10986   0.86771   0.00000  Uiso   1.00
C1112  C     0.90240   0.12965   0.97753   0.00000  Uiso   1.00
C1113  C     0.88361   0.07256   0.61643   0.00000  Uiso   1.00
C1114  C     0.91259   0.04645   0.64777   0.00000  Uiso   1.00
C1115  C     0.90246   0.32924   0.64834   0.00000  Uiso   1.00
C1116  C     0.68799   0.12669   0.74006   0.00000  Uiso   1.00
C1117  C     0.97869   0.20634   0.76130   0.00000  Uiso   1.00
C1118  C     0.97865   0.12666   0.74028   0.00000  Uiso   1.00
C1119  C     0.68805   0.20632   0.76123   0.00000  Uiso   1.00
C1120  C     0.95750   0.16656   0.75062   0.00000  Uiso   1.00
H1121  H     0.75301   0.24090   0.95859   0.00000  Uiso   1.00
H1122  H     0.77031   0.29147   0.72919   0.00000  Uiso   1.00
H1123  H     0.77027   0.04210   0.72939   0.00000  Uiso   1.00
H1124  H     0.89655   0.29123   0.77001   0.00000  Uiso   1.00
H1125  H     0.89337   0.07304   0.83840   0.00000  Uiso   1.00
H1126  H     0.85343   0.06999   0.88020   0.00000  Uiso   1.00
H1127  H     0.94716   0.05354   0.89831   0.00000  Uiso   1.00
H1128  H     0.90410   0.04382   0.93632   0.00000  Uiso   1.00
H1129  H     0.87509   0.31889   0.88404   0.00000  Uiso   1.00
H1130  H     0.92686   0.30514   0.90341   0.00000  Uiso   1.00
H1131  H     0.91980   0.32751   0.84771   0.00000  Uiso   1.00
H1132  H     0.92751   0.11305   0.54117   0.00000  Uiso   1.00
H1133  H     0.72958   0.20326   0.66392   0.00000  Uiso   1.00
H1134  H     0.75276   0.15335   0.64165   0.00000  Uiso   1.00
H1135  H     0.69451   0.21904   0.59014   0.00000  Uiso   1.00
H1136  H     0.71552   0.16656   0.56931   0.00000  Uiso   1.00
H1137  H     0.67798   0.12395   0.63054   0.00000  Uiso   1.00
H1138  H     0.97615   0.15615   0.59564   0.00000  Uiso   1.00
H1139  H     0.98963   0.17683   0.65018   0.00000  Uiso   1.00
H1140  H     0.70588   0.19889   0.87350   0.00000  Uiso   1.00
H1141  H     0.72363   0.17656   0.92543   0.00000  Uiso   1.00
H1142  H     0.74658   0.13566   0.83409   0.00000  Uiso   1.00
H1143  H     0.75338   0.24233   0.53922   0.00000  Uiso   1.00
H1144  H     0.75632   0.11116   0.88816   0.00000  Uiso   1.00
H1145  H     0.67920   0.10621   0.90217   0.00000  Uiso   1.00
H1146  H     0.69476   0.07568   0.85287   0.00000  Uiso   1.00
H1147  H     0.66965   0.13003   0.84714   0.00000  Uiso   1.00
H1148  H     0.88712   0.05876   0.58217   0.00000  Uiso   1.00
H1149  H     0.85078   0.06698   0.62765   0.00000  Uiso   1.00
H1150  H     0.94548   0.05139   0.63683   0.00000  Uiso   1.00
H1151  H     0.90926   0.05991   0.68209   0.00000  Uiso   1.00
H1152  H     0.86969   0.32353   0.65924   0.00000  Uiso   1.00
H1153  H     0.92353   0.31141   0.67204   0.00000  Uiso   1.00
H1154  H     0.92893   0.11488   0.96068   0.00000  Uiso   1.00
H1155  H     0.90695   0.31476   0.61455   0.00000  Uiso   1.00
H1156  H     0.70425   0.09584   0.73139   0.00000  Uiso   1.00
H1157  H     0.96241   0.23721   0.76987   0.00000  Uiso   1.00
H1158  H     0.96238   0.09574   0.73187   0.00000  Uiso   1.00
H1159  H     0.70440   0.23718   0.76977   0.00000  Uiso   1.00
H1160  H     0.89695   0.04165   0.76864   0.00000  Uiso   1.00
N1161  N     0.83333   0.28573   0.75000   0.00000  Uiso   1.00
N1162  N     0.83333   0.04760   0.75000   0.00000  Uiso   1.00
O1163  O     0.77226   0.20487   0.74999   0.00000  Uiso   1.00
O1164  O     0.77305   0.21716   0.61575   0.00000  Uiso   1.00
O1165  O     0.76874   0.20608   0.88242   0.00000  Uiso   1.00
O1166  O     0.89442   0.11904   0.61726   0.00000  Uiso   1.00
O1167  O     0.89441   0.12846   0.75001   0.00000  Uiso   1.00
O1168  O     0.89441   0.20487   0.75001   0.00000  Uiso   1.00
O1169  O     0.77226   0.12846   0.75000   0.00000  Uiso   1.00
O1170  O     0.83333   0.20489   0.68392   0.00000  Uiso   1.00
O1171  O     0.83334   0.12844   0.81608   0.00000  Uiso   1.00
O1172  O     0.83334   0.20489   0.81608   0.00000  Uiso   1.00
O1173  O     0.83333   0.12844   0.68393   0.00000  Uiso   1.00
O1174  O     0.89892   0.12297   0.88449   0.00000  Uiso   1.00
Zn1175 Zn    0.83333   0.21771   0.75000   0.00000  Uiso   1.00
Zn1176 Zn    0.83333   0.11563   0.75000   0.00000  Uiso   1.00
C1177  C     0.08665   0.49998   0.74983   0.00000  Uiso   1.00
C1178  C     0.04250   0.49989   0.75038   0.00000  Uiso   1.00
C1179  C     0.20184   0.35716   0.76079   0.00000  Uiso   1.00
C1180  C     0.13165   0.64277   0.73853   0.00000  Uiso   1.00
C1181  C     0.13163   0.35736   0.73863   0.00000  Uiso   1.00
C1182  C     0.20175   0.64262   0.76115   0.00000  Uiso   1.00
C1183  C     0.16690   0.50019   0.66348   0.00000  Uiso   1.00
C1184  C     0.16737   0.49973   0.83657   0.00000  Uiso   1.00
C1185  C     0.20039   0.47798   0.90739   0.00000  Uiso   1.00
C1186  C     0.13653   0.52606   0.59281   0.00000  Uiso   1.00
C1187  C     0.16750   0.49927   0.88443   0.00000  Uiso   1.00
C1188  C     0.24670   0.49999   0.75019   0.00000  Uiso   1.00
C1189  C     0.16693   0.50064   0.61570   0.00000  Uiso   1.00
C1190  C     0.13516   0.52162   0.90683   0.00000  Uiso   1.00
C1191  C     0.19833   0.47683   0.59324   0.00000  Uiso   1.00
C1192  C     0.13793   0.52694   0.95306   0.00000  Uiso   1.00
C1193  C     0.20136   0.48113   0.54693   0.00000  Uiso   1.00
C1194  C     0.17027   0.50483   0.97664   0.00000  Uiso   1.00
C1195  C     0.17023   0.50521   0.52337   0.00000  Uiso   1.00
C1196  C     0.20226   0.48167   0.95369   0.00000  Uiso   1.00
C1197  C     0.13865   0.52896   0.54637   0.00000  Uiso   1.00
C1198  C     0.10943   0.55414   0.97614   0.00000  Uiso   1.00
C1199  C     0.10976   0.55512   0.52240   0.00000  Uiso   1.00
C1200  C     0.23506   0.46223   0.52376   0.00000  Uiso   1.00
C1201  C     0.22050   0.41118   0.87443   0.00000  Uiso   1.00
C1202  C     0.24705   0.37714   0.90066   0.00000  Uiso   1.00
C1203  C     0.24176   0.66256   0.88274   0.00000  Uiso   1.00
C1204  C     0.07479   0.52129   0.63267   0.00000  Uiso   1.00
C1205  C     0.03840   0.51782   0.59983   0.00000  Uiso   1.00
C1206  C     0.00167   0.49203   0.62047   0.00000  Uiso   1.00
C1207  C     0.06527   0.51337   0.88949   0.00000  Uiso   1.00
C1208  C     0.06785   0.46612   0.86860   0.00000  Uiso   1.00
C1209  C     0.02514   0.44319   0.86771   0.00000  Uiso   1.00
C1210  C     0.23573   0.46299   0.97753   0.00000  Uiso   1.00
C1211  C     0.21694   0.40589   0.61643   0.00000  Uiso   1.00
C1212  C     0.24593   0.37978   0.64777   0.00000  Uiso   1.00
C1213  C     0.23579   0.66257   0.64834   0.00000  Uiso   1.00
C1214  C     0.02132   0.46002   0.74006   0.00000  Uiso   1.00
C1215  C     0.31203   0.53967   0.76130   0.00000  Uiso   1.00
C1216  C     0.31198   0.45999   0.74028   0.00000  Uiso   1.00
C1217  C     0.02139   0.53965   0.76123   0.00000  Uiso   1.00
C1218  C     0.29084   0.49989   0.75062   0.00000  Uiso   1.00
H1219  H     0.08634   0.57423   0.95859   0.00000  Uiso   1.00
H1220  H     0.10364   0.62480   0.72919   0.00000  Uiso   1.00
H1221  H     0.10360   0.37543   0.72939   0.00000  Uiso   1.00
H1222  H     0.22988   0.62456   0.77001   0.00000  Uiso   1.00
H1223  H     0.22671   0.40637   0.83840   0.00000  Uiso   1.00
H1224  H     0.18676   0.40333   0.88020   0.00000  Uiso   1.00
H1225  H     0.28049   0.38687   0.89831   0.00000  Uiso   1.00
H1226  H     0.23743   0.37715   0.93632   0.00000  Uiso   1.00
H1227  H     0.20843   0.65223   0.88404   0.00000  Uiso   1.00
H1228  H     0.26020   0.63847   0.90341   0.00000  Uiso   1.00
H1229  H     0.25314   0.66084   0.84771   0.00000  Uiso   1.00
H1230  H     0.26084   0.44638   0.54117   0.00000  Uiso   1.00
H1231  H     0.06291   0.53659   0.66392   0.00000  Uiso   1.00
H1232  H     0.08609   0.48668   0.64165   0.00000  Uiso   1.00
H1233  H     0.02784   0.55238   0.59014   0.00000  Uiso   1.00
H1234  H     0.04885   0.49989   0.56931   0.00000  Uiso   1.00
H1235  H     0.01132   0.45728   0.63054   0.00000  Uiso   1.00
H1236  H     0.30948   0.48948   0.59564   0.00000  Uiso   1.00
H1237  H     0.32296   0.51016   0.65018   0.00000  Uiso   1.00
H1238  H     0.03922   0.53222   0.87350   0.00000  Uiso   1.00
H1239  H     0.05696   0.50989   0.92543   0.00000  Uiso   1.00
H1240  H     0.07991   0.46899   0.83409   0.00000  Uiso   1.00
H1241  H     0.08671   0.57566   0.53922   0.00000  Uiso   1.00
H1242  H     0.08966   0.44449   0.88816   0.00000  Uiso   1.00
H1243  H     0.01253   0.43954   0.90217   0.00000  Uiso   1.00
H1244  H     0.02810   0.40902   0.85287   0.00000  Uiso   1.00
H1245  H     0.00299   0.46336   0.84714   0.00000  Uiso   1.00
H1246  H     0.22046   0.39209   0.58217   0.00000  Uiso   1.00
H1247  H     0.18411   0.40031   0.62765   0.00000  Uiso   1.00
H1248  H     0.27881   0.38472   0.63683   0.00000  Uiso   1.00
H1249  H     0.24259   0.39325   0.68209   0.00000  Uiso   1.00
H1250  H     0.20302   0.65686   0.65924   0.00000  Uiso   1.00
H1251  H     0.25686   0.64475   0.67204   0.00000  Uiso   1.00
H1252  H     0.26226   0.44821   0.96068   0.00000  Uiso   1.00
H1253  H     0.24028   0.64810   0.61455   0.00000  Uiso   1.00
H1254  H     0.03758   0.42917   0.73139   0.00000  Uiso   1.00
H1255  H     0.29575   0.57055   0.76987   0.00000  Uiso   1.00
H1256  H     0.29571   0.42907   0.73187   0.00000  Uiso   1.00
H1257  H     0.03773   0.57052   0.76977   0.00000  Uiso   1.00
H1258  H     0.23028   0.37498   0.76864   0.00000  Uiso   1.00
N1259  N     0.16667   0.61907   0.75000   0.00000  Uiso   1.00
N1260  N     0.16667   0.38093   0.75000   0.00000  Uiso   1.00
O1261  O     0.10559   0.53821   0.74999   0.00000  Uiso   1.00
O1262  O     0.10639   0.55049   0.61575   0.00000  Uiso   1.00
O1263  O     0.10208   0.53941   0.88242   0.00000  Uiso   1.00
O1264  O     0.22776   0.45238   0.61726   0.00000  Uiso   1.00
O1265  O     0.22774   0.46179   0.75001   0.00000  Uiso   1.00
O1266  O     0.22774   0.53821   0.75001   0.00000  Uiso   1.00
O1267  O     0.10559   0.46179   0.75000   0.00000  Uiso   1.00
O1268  O     0.16666   0.53823   0.68392   0.00000  Uiso   1.00
O1269  O     0.16667   0.46177   0.81608   0.00000  Uiso   1.00
O1270  O     0.16667   0.53823   0.81608   0.00000  Uiso   1.00
O1271  O     0.16666   0.46177   0.68393   0.00000  Uiso   1.00
O1272  O     0.23225   0.45631   0.88449   0.00000  Uiso   1.00
Zn1273 Zn    0.16667   0.55104   0.75000   0.00000  Uiso   1.00
Zn1274 Zn    0.16667   0.44896   0.75000   0.00000  Uiso   1.00
C1275  C     0.41998   0.49998   0.74983   0.00000  Uiso   1.00
C1276  C     0.37584   0.49989   0.75038   0.00000  Uiso   1.00
C1277  C     0.53517   0.35716   0.76079   0.00000  Uiso   1.00
C1278  C     0.46498   0.64277   0.73853   0.00000  Uiso   1.00
C1279  C     0.46496   0.35736   0.73863   0.00000  Uiso   1.00
C1280  C     0.53508   0.64262   0.76115   0.00000  Uiso   1.00
C1281  C     0.50023   0.50019   0.66348   0.00000  Uiso   1.00
C1282  C     0.50070   0.49973   0.83657   0.00000  Uiso   1.00
C1283  C     0.53373   0.47798   0.90739   0.00000  Uiso   1.00
C1284  C     0.46986   0.52606   0.59281   0.00000  Uiso   1.00
C1285  C     0.50084   0.49927   0.88443   0.00000  Uiso   1.00
C1286  C     0.58003   0.49999   0.75019   0.00000  Uiso   1.00
C1287  C     0.50027   0.50064   0.61570   0.00000  Uiso   1.00
C1288  C     0.46849   0.52162   0.90683   0.00000  Uiso   1.00
C1289  C     0.53167   0.47683   0.59324   0.00000  Uiso   1.00
C1290  C     0.47127   0.52694   0.95306   0.00000  Uiso   1.00
C1291  C     0.53470   0.48113   0.54693   0.00000  Uiso   1.00
C1292  C     0.50361   0.50483   0.97664   0.00000  Uiso   1.00
C1293  C     0.50357   0.50521   0.52337   0.00000  Uiso   1.00
C1294  C     0.53560   0.48167   0.95369   0.00000  Uiso   1.00
C1295  C     0.47198   0.52896   0.54637   0.00000  Uiso   1.00
C1296  C     0.44276   0.55414   0.97614   0.00000  Uiso   1.00
C1297  C     0.44310   0.55512   0.52240   0.00000  Uiso   1.00
C1298  C     0.56839   0.46223   0.52376   0.00000  Uiso   1.00
C1299  C     0.55384   0.41118   0.87443   0.00000  Uiso   1.00
C1300  C     0.58039   0.37714   0.90066   0.00000  Uiso   1.00
C1301  C     0.57509   0.66256   0.88274   0.00000  Uiso   1.00
C1302  C     0.40812   0.52129   0.63267   0.00000  Uiso   1.00
C1303  C     0.37174   0.51782   0.59983   0.00000  Uiso   1.00
C1304  C     0.33500   0.49203   0.62047   0.00000  Uiso   1.00
C1305  C     0.39860   0.51337   0.88949   0.00000  Uiso   1.00
C1306  C     0.40119   0.46612   0.86860   0.00000  Uiso   1.00
C1307  C     0.35848   0.44319   0.86771   0.00000  Uiso   1.00
C1308  C     0.56906   0.46299   0.97753   0.00000  Uiso   1.00
C1309  C     0.55027   0.40589   0.61643   0.00000  Uiso   1.00
C1310  C     0.57926   0.37978   0.64777   0.00000  Uiso   1.00
C1311  C     0.56913   0.66257   0.64834   0.00000  Uiso   1.00
C1312  C     0.35465   0.46002   0.74006   0.00000  Uiso   1.00
C1313  C     0.64536   0.53967   0.76130   0.00000  Uiso   1.00
C1314  C     0.64531   0.45999   0.74028   0.00000  Uiso   1.00
C1315  C     0.35472   0.53965   0.76123   0.00000  Uiso   1.00
C1316  C     0.62417   0.49989   0.75062   0.00000  Uiso   1.00
H1317  H     0.41967   0.57423   0.95859   0.00000  Uiso   1.00
H1318  H     0.43697   0.62480   0.72919   0.00000  Uiso   1.00
H1319  H     0.43693   0.37543   0.72939   0.00000  Uiso   1.00
H1320  H     0.56322   0.62456   0.77001   0.00000  Uiso   1.00
H1321  H     0.56004   0.40637   0.83840   0.00000  Uiso   1.00
H1322  H     0.52010   0.40333   0.88020   0.00000  Uiso   1.00
H1323  H     0.61383   0.38687   0.89831   0.00000  Uiso   1.00
H1324  H     0.57076   0.37715   0.93632   0.00000  Uiso   1.00
H1325  H     0.54176   0.65223   0.88404   0.00000  Uiso   1.00
H1326  H     0.59353   0.63847   0.90341   0.00000  Uiso   1.00
H1327  H     0.58647   0.66084   0.84771   0.00000  Uiso   1.00
H1328  H     0.59418   0.44638   0.54117   0.00000  Uiso   1.00
H1329  H     0.39625   0.53659   0.66392   0.00000  Uiso   1.00
H1330  H     0.41942   0.48668   0.64165   0.00000  Uiso   1.00
H1331  H     0.36118   0.55238   0.59014   0.00000  Uiso   1.00
H1332  H     0.38219   0.49989   0.56931   0.00000  Uiso   1.00
H1333  H     0.34465   0.45728   0.63054   0.00000  Uiso   1.00
H1334  H     0.64281   0.48948   0.59564   0.00000  Uiso   1.00
H1335  H     0.65629   0.51016   0.65018   0.00000  Uiso   1.00
H1336  H     0.37255   0.53222   0.87350   0.00000  Uiso   1.00
H1337  H     0.39030   0.50989   0.92543   0.00000  Uiso   1.00
H1338  H     0.41324   0.46899   0.83409   0.00000  Uiso   1.00
H1339  H     0.42004   0.57566   0.53922   0.00000  Uiso   1.00
H1340  H     0.42299   0.44449   0.88816   0.00000  Uiso   1.00
H1341  H     0.34586   0.43954   0.90217   0.00000  Uiso   1.00
H1342  H     0.36143   0.40902   0.85287   0.00000  Uiso   1.00
H1343  H     0.33632   0.46336   0.84714   0.00000  Uiso   1.00
H1344  H     0.55379   0.39209   0.58217   0.00000  Uiso   1.00
H1345  H     0.51744   0.40031   0.62765   0.00000  Uiso   1.00
H1346  H     0.61215   0.38472   0.63683   0.00000  Uiso   1.00
H1347  H     0.57593   0.39325   0.68209   0.00000  Uiso   1.00
H1348  H     0.53636   0.65686   0.65924   0.00000  Uiso   1.00
H1349  H     0.59019   0.64475   0.67204   0.00000  Uiso   1.00
H1350  H     0.59560   0.44821   0.96068   0.00000  Uiso   1.00
H1351  H     0.57361   0.64810   0.61455   0.00000  Uiso   1.00
H1352  H     0.37091   0.42917   0.73139   0.00000  Uiso   1.00
H1353  H     0.62908   0.57055   0.76987   0.00000  Uiso   1.00
H1354  H     0.62904   0.42907   0.73187   0.00000  Uiso   1.00
H1355  H     0.37107   0.57052   0.76977   0.00000  Uiso   1.00
H1356  H     0.56362   0.37498   0.76864   0.00000  Uiso   1.00
N1357  N     0.50000   0.61907   0.75000   0.00000  Uiso   1.00
N1358  N     0.50000   0.38093   0.75000   0.00000  Uiso   1.00
O1359  O     0.43892   0.53821   0.74999   0.00000  Uiso   1.00
O1360  O     0.43972   0.55049   0.61575   0.00000  Uiso   1.00
O1361  O     0.43541   0.53941   0.88242   0.00000  Uiso   1.00
O1362  O     0.56109   0.45238   0.61726   0.00000  Uiso   1.00
O1363  O     0.56108   0.46179   0.75001   0.00000  Uiso   1.00
O1364  O     0.56108   0.53821   0.75001   0.00000  Uiso   1.00
O1365  O     0.43892   0.46179   0.75000   0.00000  Uiso   1.00
O1366  O     0.49999   0.53823   0.68392   0.00000  Uiso   1.00
O1367  O     0.50001   0.46177   0.81608   0.00000  Uiso   1.00
O1368  O     0.50001   0.53823   0.81608   0.00000  Uiso   1.00
O1369  O     0.49999   0.46177   0.68393   0.00000  Uiso   1.00
O1370  O     0.56559   0.45631   0.88449   0.00000  Uiso   1.00
Zn1371 Zn    0.50000   0.55104   0.75000   0.00000  Uiso   1.00
Zn1372 Zn    0.50000   0.44896   0.75000   0.00000  Uiso   1.00
C1373  C     0.75331   0.49998   0.74983   0.00000  Uiso   1.00
C1374  C     0.70917   0.49989   0.75038   0.00000  Uiso   1.00
C1375  C     0.86850   0.35716   0.76079   0.00000  Uiso   1.00
C1376  C     0.79832   0.64277   0.73853   0.00000  Uiso   1.00
C1377  C     0.79829   0.35736   0.73863   0.00000  Uiso   1.00
C1378  C     0.86842   0.64262   0.76115   0.00000  Uiso   1.00
C1379  C     0.83356   0.50019   0.66348   0.00000  Uiso   1.00
C1380  C     0.83404   0.49973   0.83657   0.00000  Uiso   1.00
C1381  C     0.86706   0.47798   0.90739   0.00000  Uiso   1.00
C1382  C     0.80319   0.52606   0.59281   0.00000  Uiso   1.00
C1383  C     0.83417   0.49927   0.88443   0.00000  Uiso   1.00
C1384  C     0.91336   0.49999   0.75019   0.00000  Uiso   1.00
C1385  C     0.83360   0.50064   0.61570   0.00000  Uiso   1.00
C1386  C     0.80183   0.52162   0.90683   0.00000  Uiso   1.00
C1387  C     0.86500   0.47683   0.59324   0.00000  Uiso   1.00
C1388  C     0.80460   0.52694   0.95306   0.00000  Uiso   1.00
C1389  C     0.86803   0.48113   0.54693   0.00000  Uiso   1.00
C1390  C     0.83694   0.50483   0.97664   0.00000  Uiso   1.00
C1391  C     0.83690   0.50521   0.52337   0.00000  Uiso   1.00
C1392  C     0.86893   0.48167   0.95369   0.00000  Uiso   1.00
C1393  C     0.80531   0.52896   0.54637   0.00000  Uiso   1.00
C1394  C     0.77609   0.55414   0.97614   0.00000  Uiso   1.00
C1395  C     0.77643   0.55512   0.52240   0.00000  Uiso   1.00
C1396  C     0.90173   0.46223   0.52376   0.00000  Uiso   1.00
C1397  C     0.88717   0.41118   0.87443   0.00000  Uiso   1.00
C1398  C     0.91372   0.37714   0.90066   0.00000  Uiso   1.00
C1399  C     0.90842   0.66256   0.88274   0.00000  Uiso   1.00
C1400  C     0.74146   0.52129   0.63267   0.00000  Uiso   1.00
C1401  C     0.70507   0.51782   0.59983   0.00000  Uiso   1.00
C1402  C     0.66833   0.49203   0.62047   0.00000  Uiso   1.00
C1403  C     0.73194   0.51337   0.88949   0.00000  Uiso   1.00
C1404  C     0.73452   0.46612   0.86860   0.00000  Uiso   1.00
C1405  C     0.69181   0.44319   0.86771   0.00000  Uiso   1.00
C1406  C     0.90240   0.46299   0.97753   0.00000  Uiso   1.00
C1407  C     0.88361   0.40589   0.61643   0.00000  Uiso   1.00
C1408  C     0.91259   0.37978   0.64777   0.00000  Uiso   1.00
C1409  C     0.90246   0.66257   0.64834   0.00000  Uiso   1.00
C1410  C     0.68799   0.46002   0.74006   0.00000  Uiso   1.00
C1411  C     0.97869   0.53967   0.76130   0.00000  Uiso   1.00
C1412  C     0.97865   0.45999   0.74028   0.00000  Uiso   1.00
C1413  C     0.68805   0.53965   0.76123   0.00000  Uiso   1.00
C1414  C     0.95750   0.49989   0.75062   0.00000  Uiso   1.00
H1415  H     0.75301   0.57423   0.95859   0.00000  Uiso   1.00
H1416  H     0.77031   0.62480   0.72919   0.00000  Uiso   1.00
H1417  H     0.77027   0.37543   0.72939   0.00000  Uiso   1.00
H1418  H     0.89655   0.62456   0.77001   0.00000  Uiso   1.00
H1419  H     0.89337   0.40637   0.83840   0.00000  Uiso   1.00
H1420  H     0.85343   0.40333   0.88020   0.00000  Uiso   1.00
H1421  H     0.94716   0.38687   0.89831   0.00000  Uiso   1.00
H1422  H     0.90410   0.37715   0.93632   0.00000  Uiso   1.00
H1423  H     0.87509   0.65223   0.88404   0.00000  Uiso   1.00
H1424  H     0.92686   0.63847   0.90341   0.00000  Uiso   1.00
H1425  H     0.91980   0.66084   0.84771   0.00000  Uiso   1.00
H1426  H     0.92751   0.44638   0.54117   0.00000  Uiso   1.00
H1427  H     0.72958   0.53659   0.66392   0.00000  Uiso   1.00
H1428  H     0.75276   0.48668   0.64165   0.00000  Uiso   1.00
H1429  H     0.69451   0.55238   0.59014   0.00000  Uiso   1.00
H1430  H     0.71552   0.49989   0.56931   0.00000  Uiso   1.00
H1431  H     0.67798   0.45728   0.63054   0.00000  Uiso   1.00
H1432  H     0.97615   0.48948   0.59564   0.00000  Uiso   1.00
H1433  H     0.98963   0.51016   0.65018   0.00000  Uiso   1.00
H1434  H     0.70588   0.53222   0.87350   0.00000  Uiso   1.00
H1435  H     0.72363   0.50989   0.92543   0.00000  Uiso   1.00
H1436  H     0.74658   0.46899   0.83409   0.00000  Uiso   1.00
H1437  H     0.75338   0.57566   0.53922   0.00000  Uiso   1.00
H1438  H     0.75632   0.44449   0.88816   0.00000  Uiso   1.00
H1439  H     0.67920   0.43954   0.90217   0.00000  Uiso   1.00
H1440  H     0.69476   0.40902   0.85287   0.00000  Uiso   1.00
H1441  H     0.66965   0.46336   0.84714   0.00000  Uiso   1.00
H1442  H     0.88712   0.39209   0.58217   0.00000  Uiso   1.00
H1443  H     0.85078   0.40031   0.62765   0.00000  Uiso   1.00
H1444  H     0.94548   0.38472   0.63683   0.00000  Uiso   1.00
H1445  H     0.90926   0.39325   0.68209   0.00000  Uiso   1.00
H1446  H     0.86969   0.65686   0.65924   0.00000  Uiso   1.00
H1447  H     0.92353   0.64475   0.67204   0.00000  Uiso   1.00
H1448  H     0.92893   0.44821   0.96068   0.00000  Uiso   1.00
H1449  H     0.90695   0.64810   0.61455   0.00000  Uiso   1.00
H1450  H     0.70425   0.42917   0.73139   0.00000  Uiso   1.00
H1451  H     0.96241   0.57055   0.76987   0.00000  Uiso   1.00
H1452  H     0.96238   0.42907   0.73187   0.00000  Uiso   1.00
H1453  H     0.70440   0.57052   0.76977   0.00000  Uiso   1.00
H1454  H     0.89695   0.37498   0.76864   0.00000  Uiso   1.00
N1455  N     0.83333   0.61907   0.75000   0.00000  Uiso   1.00
N1456  N     0.83333   0.38093   0.75000   0.00000  Uiso   1.00
O1457  O     0.77226   0.53821   0.74999   0.00000  Uiso   1.00
O1458  O     0.77305   0.55049   0.61575   0.00000  Uiso   1.00
O1459  O     0.76874   0.53941   0.88242   0.00000  Uiso   1.00
O1460  O     0.89442   0.45238   0.61726   0.00000  Uiso   1.00
O1461  O     0.89441   0.46179   0.75001   0.00000  Uiso   1.00
O1462  O     0.89441   0.53821   0.75001   0.00000  Uiso   1.00
O1463  O     0.77226   0.46179   0.75000   0.00000  Uiso   1.00
O1464  O     0.83333   0.53823   0.68392   0.00000  Uiso   1.00
O1465  O     0.83334   0.46177   0.81608   0.00000  Uiso   1.00
O1466  O     0.83334   0.53823   0.81608   0.00000  Uiso   1.00
O1467  O     0.83333   0.46177   0.68393   0.00000  Uiso   1.00
O1468  O     0.89892   0.45631   0.88449   0.00000  Uiso   1.00
Zn1469 Zn    0.83333   0.55104   0.75000   0.00000  Uiso   1.00
Zn1470 Zn    0.83333   0.44896   0.75000   0.00000  Uiso   1.00
C1471  C     0.08665   0.83332   0.74983   0.00000  Uiso   1.00
C1472  C     0.04250   0.83322   0.75038   0.00000  Uiso   1.00
C1473  C     0.20184   0.69049   0.76079   0.00000  Uiso   1.00
C1474  C     0.13165   0.97611   0.73853   0.00000  Uiso   1.00
C1475  C     0.13163   0.69069   0.73863   0.00000  Uiso   1.00
C1476  C     0.20175   0.97595   0.76115   0.00000  Uiso   1.00
C1477  C     0.16690   0.83352   0.66348   0.00000  Uiso   1.00
C1478  C     0.16737   0.83307   0.83657   0.00000  Uiso   1.00
C1479  C     0.20039   0.81131   0.90739   0.00000  Uiso   1.00
C1480  C     0.13653   0.85940   0.59281   0.00000  Uiso   1.00
C1481  C     0.16750   0.83260   0.88443   0.00000  Uiso   1.00
C1482  C     0.24670   0.83333   0.75019   0.00000  Uiso   1.00
C1483  C     0.16693   0.83397   0.61570   0.00000  Uiso   1.00
C1484  C     0.13516   0.85495   0.90683   0.00000  Uiso   1.00
C1485  C     0.19833   0.81016   0.59324   0.00000  Uiso   1.00
C1486  C     0.13793   0.86027   0.95306   0.00000  Uiso   1.00
C1487  C     0.20136   0.81446   0.54693   0.00000  Uiso   1.00
C1488  C     0.17027   0.83817   0.97664   0.00000  Uiso   1.00
C1489  C     0.17023   0.83854   0.52337   0.00000  Uiso   1.00
C1490  C     0.20226   0.81501   0.95369   0.00000  Uiso   1.00
C1491  C     0.13865   0.86229   0.54637   0.00000  Uiso   1.00
C1492  C     0.10943   0.88747   0.97614   0.00000  Uiso   1.00
C1493  C     0.10976   0.88846   0.52240   0.00000  Uiso   1.00
C1494  C     0.23506   0.79556   0.52376   0.00000  Uiso   1.00
C1495  C     0.22050   0.74452   0.87443   0.00000  Uiso   1.00
C1496  C     0.24705   0.71047   0.90066   0.00000  Uiso   1.00
C1497  C     0.24176   0.99590   0.88274   0.00000  Uiso   1.00
C1498  C     0.07479   0.85462   0.63267   0.00000  Uiso   1.00
C1499  C     0.03840   0.85116   0.59983   0.00000  Uiso   1.00
C1500  C     0.00167   0.82536   0.62047   0.00000  Uiso   1.00
C1501  C     0.06527   0.84670   0.88949   0.00000  Uiso   1.00
C1502  C     0.06785   0.79945   0.86860   0.00000  Uiso   1.00
C1503  C     0.02514   0.77652   0.86771   0.00000  Uiso   1.00
C1504  C     0.23573   0.79632   0.97753   0.00000  Uiso   1.00
C1505  C     0.21694   0.73923   0.61643   0.00000  Uiso   1.00
C1506  C     0.24593   0.71311   0.64777   0.00000  Uiso   1.00
C1507  C     0.23579   0.99590   0.64834   0.00000  Uiso   1.00
C1508  C     0.02132   0.79336   0.74006   0.00000  Uiso   1.00
C1509  C     0.31203   0.87300   0.76130   0.00000  Uiso   1.00
C1510  C     0.31198   0.79333   0.74028   0.00000  Uiso   1.00
C1511  C     0.02139   0.87299   0.76123   0.00000  Uiso   1.00
C1512  C     0.29084   0.83323   0.75062   0.00000  Uiso   1.00
H1513  H     0.08634   0.90756   0.95859   0.00000  Uiso   1.00
H1514  H     0.10364   0.95814   0.72919   0.00000  Uiso   1.00
H1515  H     0.10360   0.70876   0.72939   0.00000  Uiso   1.00
H1516  H     0.22988   0.95790   0.77001   0.00000  Uiso   1.00
H1517  H     0.22671   0.73970   0.83840   0.00000  Uiso   1.00
H1518  H     0.18676   0.73666   0.88020   0.00000  Uiso   1.00
H1519  H     0.28049   0.72020   0.89831   0.00000  Uiso   1.00
H1520  H     0.23743   0.71049   0.93632   0.00000  Uiso   1.00
H1521  H     0.20843   0.98556   0.88404   0.00000  Uiso   1.00
H1522  H     0.26020   0.97181   0.90341   0.00000  Uiso   1.00
H1523  H     0.25314   0.99418   0.84771   0.00000  Uiso   1.00
H1524  H     0.26084   0.77972   0.54117   0.00000  Uiso   1.00
H1525  H     0.06291   0.86993   0.66392   0.00000  Uiso   1.00
H1526  H     0.08609   0.82001   0.64165   0.00000  Uiso   1.00
H1527  H     0.02784   0.88571   0.59014   0.00000  Uiso   1.00
H1528  H     0.04885   0.83323   0.56931   0.00000  Uiso   1.00
H1529  H     0.01132   0.79062   0.63054   0.00000  Uiso   1.00
H1530  H     0.30948   0.82282   0.59564   0.00000  Uiso   1.00
H1531  H     0.32296   0.84350   0.65018   0.00000  Uiso   1.00
H1532  H     0.03922   0.86555   0.87350   0.00000  Uiso   1.00
H1533  H     0.05696   0.84322   0.92543   0.00000  Uiso   1.00
H1534  H     0.07991   0.80233   0.83409   0.00000  Uiso   1.00
H1535  H     0.08671   0.90899   0.53922   0.00000  Uiso   1.00
H1536  H     0.08966   0.77783   0.88816   0.00000  Uiso   1.00
H1537  H     0.01253   0.77288   0.90217   0.00000  Uiso   1.00
H1538  H     0.02810   0.74235   0.85287   0.00000  Uiso   1.00
H1539  H     0.00299   0.79670   0.84714   0.00000  Uiso   1.00
H1540  H     0.22046   0.72542   0.58217   0.00000  Uiso   1.00
H1541  H     0.18411   0.73365   0.62765   0.00000  Uiso   1.00
H1542  H     0.27881   0.71806   0.63683   0.00000  Uiso   1.00
H1543  H     0.24259   0.72658   0.68209   0.00000  Uiso   1.00
H1544  H     0.20302   0.99020   0.65924   0.00000  Uiso   1.00
H1545  H     0.25686   0.97808   0.67204   0.00000  Uiso   1.00
H1546  H     0.26226   0.78154   0.96068   0.00000  Uiso   1.00
H1547  H     0.24028   0.98143   0.61455   0.00000  Uiso   1.00
H1548  H     0.03758   0.76250   0.73139   0.00000  Uiso   1.00
H1549  H     0.29575   0.90388   0.76987   0.00000  Uiso   1.00
H1550  H     0.29571   0.76240   0.73187   0.00000  Uiso   1.00
H1551  H     0.03773   0.90385   0.76977   0.00000  Uiso   1.00
H1552  H     0.23028   0.70831   0.76864   0.00000  Uiso   1.00
N1553  N     0.16667   0.95240   0.75000   0.00000  Uiso   1.00
N1554  N     0.16667   0.71427   0.75000   0.00000  Uiso   1.00
O1555  O     0.10559   0.87154   0.74999   0.00000  Uiso   1.00
O1556  O     0.10639   0.88383   0.61575   0.00000  Uiso   1.00
O1557  O     0.10208   0.87274   0.88242   0.00000  Uiso   1.00
O1558  O     0.22776   0.78571   0.61726   0.00000  Uiso   1.00
O1559  O     0.22774   0.79513   0.75001   0.00000  Uiso   1.00
O1560  O     0.22774   0.87154   0.75001   0.00000  Uiso   1.00
O1561  O     0.10559   0.79513   0.75000   0.00000  Uiso   1.00
O1562  O     0.16666   0.87156   0.68392   0.00000  Uiso   1.00
O1563  O     0.16667   0.79511   0.81608   0.00000  Uiso   1.00
O1564  O     0.16667   0.87156   0.81608   0.00000  Uiso   1.00
O1565  O     0.16666   0.79511   0.68393   0.00000  Uiso   1.00
O1566  O     0.23225   0.78964   0.88449   0.00000  Uiso   1.00
Zn1567 Zn    0.16667   0.88437   0.75000   0.00000  Uiso   1.00
Zn1568 Zn    0.16667   0.78229   0.75000   0.00000  Uiso   1.00
C1569  C     0.41998   0.83332   0.74983   0.00000  Uiso   1.00
C1570  C     0.37584   0.83322   0.75038   0.00000  Uiso   1.00
C1571  C     0.53517   0.69049   0.76079   0.00000  Uiso   1.00
C1572  C     0.46498   0.97611   0.73853   0.00000  Uiso   1.00
C1573  C     0.46496   0.69069   0.73863   0.00000  Uiso   1.00
C1574  C     0.53508   0.97595   0.76115   0.00000  Uiso   1.00
C1575  C     0.50023   0.83352   0.66348   0.00000  Uiso   1.00
C1576  C     0.50070   0.83307   0.83657   0.00000  Uiso   1.00
C1577  C     0.53373   0.81131   0.90739   0.00000  Uiso   1.00
C1578  C     0.46986   0.85940   0.59281   0.00000  Uiso   1.00
C1579  C     0.50084   0.83260   0.88443   0.00000  Uiso   1.00
C1580  C     0.58003   0.83333   0.75019   0.00000  Uiso   1.00
C1581  C     0.50027   0.83397   0.61570   0.00000  Uiso   1.00
C1582  C     0.46849   0.85495   0.90683   0.00000  Uiso   1.00
C1583  C     0.53167   0.81016   0.59324   0.00000  Uiso   1.00
C1584  C     0.47127   0.86027   0.95306   0.00000  Uiso   1.00
C1585  C     0.53470   0.81446   0.54693   0.00000  Uiso   1.00
C1586  C     0.50361   0.83817   0.97664   0.00000  Uiso   1.00
C1587  C     0.50357   0.83854   0.52337   0.00000  Uiso   1.00
C1588  C     0.53560   0.81501   0.95369   0.00000  Uiso   1.00
C1589  C     0.47198   0.86229   0.54637   0.00000  Uiso   1.00
C1590  C     0.44276   0.88747   0.97614   0.00000  Uiso   1.00
C1591  C     0.44310   0.88846   0.52240   0.00000  Uiso   1.00
C1592  C     0.56839   0.79556   0.52376   0.00000  Uiso   1.00
C1593  C     0.55384   0.74452   0.87443   0.00000  Uiso   1.00
C1594  C     0.58039   0.71047   0.90066   0.00000  Uiso   1.00
C1595  C     0.57509   0.99590   0.88274   0.00000  Uiso   1.00
C1596  C     0.40812   0.85462   0.63267   0.00000  Uiso   1.00
C1597  C     0.37174   0.85116   0.59983   0.00000  Uiso   1.00
C1598  C     0.33500   0.82536   0.62047   0.00000  Uiso   1.00
C1599  C     0.39860   0.84670   0.88949   0.00000  Uiso   1.00
C1600  C     0.40119   0.79945   0.86860   0.00000  Uiso   1.00
C1601  C     0.35848   0.77652   0.86771   0.00000  Uiso   1.00
C1602  C     0.56906   0.79632   0.97753   0.00000  Uiso   1.00
C1603  C     0.55027   0.73923   0.61643   0.00000  Uiso   1.00
C1604  C     0.57926   0.71311   0.64777   0.00000  Uiso   1.00
C1605  C     0.56913   0.99590   0.64834   0.00000  Uiso   1.00
C1606  C     0.35465   0.79336   0.74006   0.00000  Uiso   1.00
C1607  C     0.64536   0.87300   0.76130   0.00000  Uiso   1.00
C1608  C     0.64531   0.79333   0.74028   0.00000  Uiso   1.00
C1609  C     0.35472   0.87299   0.76123   0.00000  Uiso   1.00
C1610  C     0.62417   0.83323   0.75062   0.00000  Uiso   1.00
H1611  H     0.41967   0.90756   0.95859   0.00000  Uiso   1.00
H1612  H     0.43697   0.95814   0.72919   0.00000  Uiso   1.00
H1613  H     0.43693   0.70876   0.72939   0.00000  Uiso   1.00
H1614  H     0.56322   0.95790   0.77001   0.00000  Uiso   1.00
H1615  H     0.56004   0.73970   0.83840   0.00000  Uiso   1.00
H1616  H     0.52010   0.73666   0.88020   0.00000  Uiso   1.00
H1617  H     0.61383   0.72020   0.89831   0.00000  Uiso   1.00
H1618  H     0.57076   0.71049   0.93632   0.00000  Uiso   1.00
H1619  H     0.54176   0.98556   0.88404   0.00000  Uiso   1.00
H1620  H     0.59353   0.97181   0.90341   0.00000  Uiso   1.00
H1621  H     0.58647   0.99418   0.84771   0.00000  Uiso   1.00
H1622  H     0.59418   0.77972   0.54117   0.00000  Uiso   1.00
H1623  H     0.39625   0.86993   0.66392   0.00000  Uiso   1.00
H1624  H     0.41942   0.82001   0.64165   0.00000  Uiso   1.00
H1625  H     0.36118   0.88571   0.59014   0.00000  Uiso   1.00
H1626  H     0.38219   0.83323   0.56931   0.00000  Uiso   1.00
H1627  H     0.34465   0.79062   0.63054   0.00000  Uiso   1.00
H1628  H     0.64281   0.82282   0.59564   0.00000  Uiso   1.00
H1629  H     0.65629   0.84350   0.65018   0.00000  Uiso   1.00
H1630  H     0.37255   0.86555   0.87350   0.00000  Uiso   1.00
H1631  H     0.39030   0.84322   0.92543   0.00000  Uiso   1.00
H1632  H     0.41324   0.80233   0.83409   0.00000  Uiso   1.00
H1633  H     0.42004   0.90899   0.53922   0.00000  Uiso   1.00
H1634  H     0.42299   0.77783   0.88816   0.00000  Uiso   1.00
H1635  H     0.34586   0.77288   0.90217   0.00000  Uiso   1.00
H1636  H     0.36143   0.74235   0.85287   0.00000  Uiso   1.00
H1637  H     0.33632   0.79670   0.84714   0.00000  Uiso   1.00
H1638  H     0.55379   0.72542   0.58217   0.00000  Uiso   1.00
H1639  H     0.51744   0.73365   0.62765   0.00000  Uiso   1.00
H1640  H     0.61215   0.71806   0.63683   0.00000  Uiso   1.00
H1641  H     0.57593   0.72658   0.68209   0.00000  Uiso   1.00
H1642  H     0.53636   0.99020   0.65924   0.00000  Uiso   1.00
H1643  H     0.59019   0.97808   0.67204   0.00000  Uiso   1.00
H1644  H     0.59560   0.78154   0.96068   0.00000  Uiso   1.00
H1645  H     0.57361   0.98143   0.61455   0.00000  Uiso   1.00
H1646  H     0.37091   0.76250   0.73139   0.00000  Uiso   1.00
H1647  H     0.62908   0.90388   0.76987   0.00000  Uiso   1.00
H1648  H     0.62904   0.76240   0.73187   0.00000  Uiso   1.00
H1649  H     0.37107   0.90385   0.76977   0.00000  Uiso   1.00
H1650  H     0.56362   0.70831   0.76864   0.00000  Uiso   1.00
N1651  N     0.50000   0.95240   0.75000   0.00000  Uiso   1.00
N1652  N     0.50000   0.71427   0.75000   0.00000  Uiso   1.00
O1653  O     0.43892   0.87154   0.74999   0.00000  Uiso   1.00
O1654  O     0.43972   0.88383   0.61575   0.00000  Uiso   1.00
O1655  O     0.43541   0.87274   0.88242   0.00000  Uiso   1.00
O1656  O     0.56109   0.78571   0.61726   0.00000  Uiso   1.00
O1657  O     0.56108   0.79513   0.75001   0.00000  Uiso   1.00
O1658  O     0.56108   0.87154   0.75001   0.00000  Uiso   1.00
O1659  O     0.43892   0.79513   0.75000   0.00000  Uiso   1.00
O1660  O     0.49999   0.87156   0.68392   0.00000  Uiso   1.00
O1661  O     0.50001   0.79511   0.81608   0.00000  Uiso   1.00
O1662  O     0.50001   0.87156   0.81608   0.00000  Uiso   1.00
O1663  O     0.49999   0.79511   0.68393   0.00000  Uiso   1.00
O1664  O     0.56559   0.78964   0.88449   0.00000  Uiso   1.00
Zn1665 Zn    0.50000   0.88437   0.75000   0.00000  Uiso   1.00
Zn1666 Zn    0.50000   0.78229   0.75000   0.00000  Uiso   1.00
C1667  C     0.75331   0.83332   0.74983   0.00000  Uiso   1.00
C1668  C     0.70917   0.83322   0.75038   0.00000  Uiso   1.00
C1669  C     0.86850   0.69049   0.76079   0.00000  Uiso   1.00
C1670  C     0.79832   0.97611   0.73853   0.00000  Uiso   1.00
C1671  C     0.79829   0.69069   0.73863   0.00000  Uiso   1.00
C1672  C     0.86842   0.97595   0.76115   0.00000  Uiso   1.00
C1673  C     0.83356   0.83352   0.66348   0.00000  Uiso   1.00
C1674  C     0.83404   0.83307   0.83657   0.00000  Uiso   1.00
C1675  C     0.86706   0.81131   0.90739   0.00000  Uiso   1.00
C1676  C     0.80319   0.85940   0.59281   0.00000  Uiso   1.00
C1677  C     0.83417   0.83260   0.88443   0.00000  Uiso   1.00
C1678  C     0.91336   0.83333   0.75019   0.00000  Uiso   1.00
C1679  C     0.83360   0.83397   0.61570   0.00000  Uiso   1.00
C1680  C     0.80183   0.85495   0.90683   0.00000  Uiso   1.00
C1681  C     0.86500   0.81016   0.59324   0.00000  Uiso   1.00
C1682  C     0.80460   0.86027   0.95306   0.00000  Uiso   1.00
C1683  C     0.86803   0.81446   0.54693   0.00000  Uiso   1.00
C1684  C     0.83694   0.83817   0.97664   0.00000  Uiso   1.00
C1685  C     0.83690   0.83854   0.52337   0.00000  Uiso   1.00
C1686  C     0.86893   0.81501   0.95369   0.00000  Uiso   1.00
C1687  C     0.80531   0.86229   0.54637   0.00000  Uiso   1.00
C1688  C     0.77609   0.88747   0.97614   0.00000  Uiso   1.00
C1689  C     0.77643   0.88846   0.52240   0.00000  Uiso   1.00
C1690  C     0.90173   0.79556   0.52376   0.00000  Uiso   1.00
C1691  C     0.88717   0.74452   0.87443   0.00000  Uiso   1.00
C1692  C     0.91372   0.71047   0.90066   0.00000  Uiso   1.00
C1693  C     0.90842   0.99590   0.88274   0.00000  Uiso   1.00
C1694  C     0.74146   0.85462   0.63267   0.00000  Uiso   1.00
C1695  C     0.70507   0.85116   0.59983   0.00000  Uiso   1.00
C1696  C     0.66833   0.82536   0.62047   0.00000  Uiso   1.00
C1697  C     0.73194   0.84670   0.88949   0.00000  Uiso   1.00
C1698  C     0.73452   0.79945   0.86860   0.00000  Uiso   1.00
C1699  C     0.69181   0.77652   0.86771   0.00000  Uiso   1.00
C1700  C     0.90240   0.79632   0.97753   0.00000  Uiso   1.00
C1701  C     0.88361   0.73923   0.61643   0.00000  Uiso   1.00
C1702  C     0.91259   0.71311   0.64777   0.00000  Uiso   1.00
C1703  C     0.90246   0.99590   0.64834   0.00000  Uiso   1.00
C1704  C     0.68799   0.79336   0.74006   0.00000  Uiso   1.00
C1705  C     0.97869   0.87300   0.76130   0.00000  Uiso   1.00
C1706  C     0.97865   0.79333   0.74028   0.00000  Uiso   1.00
C1707  C     0.68805   0.87299   0.76123   0.00000  Uiso   1.00
C1708  C     0.95750   0.83323   0.75062   0.00000  Uiso   1.00
H1709  H     0.75301   0.90756   0.95859   0.00000  Uiso   1.00
H1710  H     0.77031   0.95814   0.72919   0.00000  Uiso   1.00
H1711  H     0.77027   0.70876   0.72939   0.00000  Uiso   1.00
H1712  H     0.89655   0.95790   0.77001   0.00000  Uiso   1.00
H1713  H     0.89337   0.73970   0.83840   0.00000  Uiso   1.00
H1714  H     0.85343   0.73666   0.88020   0.00000  Uiso   1.00
H1715  H     0.94716   0.72020   0.89831   0.00000  Uiso   1.00
H1716  H     0.90410   0.71049   0.93632   0.00000  Uiso   1.00
H1717  H     0.87509   0.98556   0.88404   0.00000  Uiso   1.00
H1718  H     0.92686   0.97181   0.90341   0.00000  Uiso   1.00
H1719  H     0.91980   0.99418   0.84771   0.00000  Uiso   1.00
H1720  H     0.92751   0.77972   0.54117   0.00000  Uiso   1.00
H1721  H     0.72958   0.86993   0.66392   0.00000  Uiso   1.00
H1722  H     0.75276   0.82001   0.64165   0.00000  Uiso   1.00
H1723  H     0.69451   0.88571   0.59014   0.00000  Uiso   1.00
H1724  H     0.71552   0.83323   0.56931   0.00000  Uiso   1.00
H1725  H     0.67798   0.79062   0.63054   0.00000  Uiso   1.00
H1726  H     0.97615   0.82282   0.59564   0.00000  Uiso   1.00
H1727  H     0.98963   0.84350   0.65018   0.00000  Uiso   1.00
H1728  H     0.70588   0.86555   0.87350   0.00000  Uiso   1.00
H1729  H     0.72363   0.84322   0.92543   0.00000  Uiso   1.00
H1730  H     0.74658   0.80233   0.83409   0.00000  Uiso   1.00
H1731  H     0.75338   0.90899   0.53922   0.00000  Uiso   1.00
H1732  H     0.75632   0.77783   0.88816   0.00000  Uiso   1.00
H1733  H     0.67920   0.77288   0.90217   0.00000  Uiso   1.00
H1734  H     0.69476   0.74235   0.85287   0.00000  Uiso   1.00
H1735  H     0.66965   0.79670   0.84714   0.00000  Uiso   1.00
H1736  H     0.88712   0.72542   0.58217   0.00000  Uiso   1.00
H1737  H     0.85078   0.73365   0.62765   0.00000  Uiso   1.00
H1738  H     0.94548   0.71806   0.63683   0.00000  Uiso   1.00
H1739  H     0.90926   0.72658   0.68209   0.00000  Uiso   1.00
H1740  H     0.86969   0.99020   0.65924   0.00000  Uiso   1.00
H1741  H     0.92353   0.97808   0.67204   0.00000  Uiso   1.00
H1742  H     0.92893   0.78154   0.96068   0.00000  Uiso   1.00
H1743  H     0.90695   0.98143   0.61455   0.00000  Uiso   1.00
H1744  H     0.70425   0.76250   0.73139   0.00000  Uiso   1.00
H1745  H     0.96241   0.90388   0.76987   0.00000  Uiso   1.00
H1746  H     0.96238   0.76240   0.73187   0.00000  Uiso   1.00
H1747  H     0.70440   0.90385   0.76977   0.00000  Uiso   1.00
H1748  H     0.89695   0.70831   0.76864   0.00000  Uiso   1.00
N1749  N     0.83333   0.95240   0.75000   0.00000  Uiso   1.00
N1750  N     0.83333   0.71427   0.75000   0.00000  Uiso   1.00
O1751  O     0.77226   0.87154   0.74999   0.00000  Uiso   1.00
O1752  O     0.77305   0.88383   0.61575   0.00000  Uiso   1.00
O1753  O     0.76874   0.87274   0.88242   0.00000  Uiso   1.00
O1754  O     0.89442   0.78571   0.61726   0.00000  Uiso   1.00
O1755  O     0.89441   0.79513   0.75001   0.00000  Uiso   1.00
O1756  O     0.89441   0.87154   0.75001   0.00000  Uiso   1.00
O1757  O     0.77226   0.79513   0.75000   0.00000  Uiso   1.00
O1758  O     0.83333   0.87156   0.68392   0.00000  Uiso   1.00
O1759  O     0.83334   0.79511   0.81608   0.00000  Uiso   1.00
O1760  O     0.83334   0.87156   0.81608   0.00000  Uiso   1.00
O1761  O     0.83333   0.79511   0.68393   0.00000  Uiso   1.00
O1762  O     0.89892   0.78964   0.88449   0.00000  Uiso   1.00
Zn1763 Zn    0.83333   0.88437   0.75000   0.00000  Uiso   1.00
Zn1764 Zn    0.83333   0.78229   0.75000   0.00000  Uiso   1.00
loop_
_geom_bond_atom_site_label_1
_geom_bond_atom_site_label_2
_geom_bond_distance
_geom_bond_site_symmetry_2
_ccdc_geom_bond_type
C1     C2      1.415   .     S
C1     O91     1.281   .     A
C1     O85     1.281   .     A
C2     C41     1.396   .     A
C2     C38     1.396   .     A
C3     H82     1.080   .     S
C3     N84     1.367   .     A
C3     C594    1.413   1_545 S
C4     H44     1.081   .     S
C4     N83     1.366   .     A
C4     C299    1.415   .     S
C5     N84     1.366   .     A
C5     H45     1.081   .     S
C5     C592    1.415   1_545 S
C6     N83     1.365   .     A
C6     H46     1.081   .     S
C6     C297    1.413   .     S
C7     O95     1.284   .     A
C7     O92     1.284   .     A
C7     C13     1.430   .     S
C8     O94     1.286   .     A
C8     O93     1.283   .     A
C8     C11     1.433   .     S
C9     C20     1.393   .     A
C9     C11     1.406   .     A
C9     O96     1.388   .     S
C10    C21     1.393   .     A
C10    O86     1.390   .     S
C10    C13     1.407   .     A
C11    C14     1.402   .     A
C12    O90     1.282   .     A
C12    C42     1.415   .     S
C12    O89     1.280   .     A
C13    C15     1.402   .     A
C14    O87     1.390   .     S
C14    C16     1.397   .     A
C15    C17     1.394   .     A
C15    O88     1.387   .     S
C16    C22     1.402   .     A
C16    C18     1.413   .     A
C17    C24     1.401   .     A
C17    C19     1.412   .     A
C18    C20     1.413   .     A
C18    C901    1.399   .     S
C19    C21     1.413   .     A
C19    C900    1.399   1_554 S
C20    C34     1.401   .     A
C21    C23     1.401   .     A
C22    H43     1.083   .     S
C22    C905    1.386   .     S
C23    H65     1.082   .     S
C23    C904    1.386   1_554 S
C24    H54     1.083   .     S
C24    C916    1.384   1_554 S
C25    H47     1.106   .     S
C25    C26     1.531   .     S
C25    H48     1.118   .     S
C25    O96     1.419   .     S
C26    H50     1.110   .     S
C26    H49     1.111   .     S
C26    C615    1.527   1_545 S
C27    H51     1.111   .     S
C27    H52     1.110   .     S
C27    H53     1.111   .     S
C27    C320    1.527   .     S
C28    H56     1.115   .     S
C28    C29     1.532   .     S
C28    H55     1.109   .     S
C28    O86     1.418   .     S
C29    C30     1.527   .     S
C29    H57     1.111   .     S
C29    H58     1.111   .     S
C30    H59     1.111   .     S
C30    H256    1.110   1_455 S
C30    H257    1.111   1_455 S
C31    C32     1.536   .     S
C31    H62     1.111   .     S
C31    O87     1.421   .     S
C31    H63     1.111   .     S
C32    H64     1.104   .     S
C32    H66     1.111   .     S
C32    C33     1.527   .     S
C33    H69     1.111   .     S
C33    H67     1.111   .     S
C33    H68     1.110   .     S
C34    H76     1.082   .     S
C34    C906    1.384   .     S
C35    C36     1.527   .     S
C35    H70     1.112   .     S
C35    H71     1.115   .     S
C35    O88     1.415   .     S
C36    H73     1.110   .     S
C36    H72     1.112   .     S
C36    C625    1.527   1_545 S
C37    H74     1.111   .     S
C37    H75     1.111   .     S
C37    H77     1.111   .     S
C37    C330    1.527   .     S
C38    H78     1.083   .     S
C38    C236    1.368   1_455 S
C39    C42     1.396   .     A
C39    H79     1.083   .     S
C39    C139    1.368   .     S
C40    H80     1.083   .     S
C40    C42     1.397   .     A
C40    C136    1.368   .     S
C41    H81     1.084   .     S
C41    C235    1.368   1_455 S
H60    C128    1.110   .     S
H61    C128    1.111   .     S
N83    Zn97    2.008   .     S
N84    Zn98    2.008   .     S
O85    Zn97    1.993   .     S
O89    Zn98    1.993   .     S
O90    Zn97    1.994   .     S
O91    Zn98    1.994   .     S
O92    Zn97    2.017   .     S
O93    Zn98    2.017   .     S
O94    Zn97    2.010   .     S
O95    Zn98    2.010   .     S
C99    C100    1.415   .     S
C99    O189    1.281   .     A
C99    O183    1.281   .     A
C100   C139    1.396   .     A
C100   C136    1.396   .     A
C101   H180    1.080   .     S
C101   N182    1.367   .     A
C101   C692    1.413   1_545 S
C102   H142    1.081   .     S
C102   N181    1.366   .     A
C102   C397    1.415   .     S
C103   N182    1.366   .     A
C103   H143    1.081   .     S
C103   C690    1.415   1_545 S
C104   N181    1.365   .     A
C104   H144    1.081   .     S
C104   C395    1.413   .     S
C105   O193    1.284   .     A
C105   O190    1.284   .     A
C105   C111    1.430   .     S
C106   O192    1.286   .     A
C106   O191    1.283   .     A
C106   C109    1.433   .     S
C107   C118    1.393   .     A
C107   C109    1.406   .     A
C107   O194    1.388   .     S
C108   C119    1.393   .     A
C108   O184    1.390   .     S
C108   C111    1.407   .     A
C109   C112    1.402   .     A
C110   O188    1.282   .     A
C110   C140    1.415   .     S
C110   O187    1.280   .     A
C111   C113    1.402   .     A
C112   O185    1.390   .     S
C112   C114    1.397   .     A
C113   C115    1.394   .     A
C113   O186    1.387   .     S
C114   C120    1.402   .     A
C114   C116    1.413   .     A
C115   C122    1.401   .     A
C115   C117    1.412   .     A
C116   C118    1.413   .     A
C116   C999    1.399   .     S
C117   C119    1.413   .     A
C117   C998    1.399   1_554 S
C118   C132    1.401   .     A
C119   C121    1.401   .     A
C120   H141    1.083   .     S
C120   C1003   1.386   .     S
C121   H163    1.082   .     S
C121   C1002   1.386   1_554 S
C122   H152    1.083   .     S
C122   C1014   1.384   1_554 S
C123   H145    1.106   .     S
C123   C124    1.531   .     S
C123   H146    1.118   .     S
C123   O194    1.419   .     S
C124   H148    1.110   .     S
C124   H147    1.111   .     S
C124   C713    1.527   1_545 S
C125   H149    1.111   .     S
C125   H150    1.110   .     S
C125   H151    1.111   .     S
C125   C418    1.527   .     S
C126   H154    1.115   .     S
C126   C127    1.532   .     S
C126   H153    1.109   .     S
C126   O184    1.418   .     S
C127   C128    1.527   .     S
C127   H155    1.111   .     S
C127   H156    1.111   .     S
C128   H157    1.111   .     S
C129   C130    1.536   .     S
C129   H160    1.111   .     S
C129   O185    1.421   .     S
C129   H161    1.111   .     S
C130   H162    1.104   .     S
C130   H164    1.111   .     S
C130   C131    1.527   .     S
C131   H167    1.111   .     S
C131   H165    1.111   .     S
C131   H166    1.110   .     S
C132   H174    1.082   .     S
C132   C1004   1.384   .     S
C133   C134    1.527   .     S
C133   H168    1.112   .     S
C133   H169    1.115   .     S
C133   O186    1.415   .     S
C134   H171    1.110   .     S
C134   H170    1.112   .     S
C134   C723    1.527   1_545 S
C135   H172    1.111   .     S
C135   H173    1.111   .     S
C135   H175    1.111   .     S
C135   C428    1.527   .     S
C136   H176    1.083   .     S
C137   C140    1.396   .     A
C137   H177    1.083   .     S
C137   C237    1.368   .     S
C138   H178    1.083   .     S
C138   C140    1.397   .     A
C138   C234    1.368   .     S
C139   H179    1.084   .     S
H158   C226    1.110   .     S
H159   C226    1.111   .     S
N181   Zn195   2.008   .     S
N182   Zn196   2.008   .     S
O183   Zn195   1.993   .     S
O187   Zn196   1.993   .     S
O188   Zn195   1.994   .     S
O189   Zn196   1.994   .     S
O190   Zn195   2.017   .     S
O191   Zn196   2.017   .     S
O192   Zn195   2.010   .     S
O193   Zn196   2.010   .     S
C197   C198    1.415   .     S
C197   O287    1.281   .     A
C197   O281    1.281   .     A
C198   C237    1.396   .     A
C198   C234    1.396   .     A
C199   H278    1.080   .     S
C199   N280    1.367   .     A
C199   C790    1.413   1_545 S
C200   H240    1.081   .     S
C200   N279    1.366   .     A
C200   C495    1.415   .     S
C201   N280    1.366   .     A
C201   H241    1.081   .     S
C201   C788    1.415   1_545 S
C202   N279    1.365   .     A
C202   H242    1.081   .     S
C202   C493    1.413   .     S
C203   O291    1.284   .     A
C203   O288    1.284   .     A
C203   C209    1.430   .     S
C204   O290    1.286   .     A
C204   O289    1.283   .     A
C204   C207    1.433   .     S
C205   C216    1.393   .     A
C205   C207    1.406   .     A
C205   O292    1.388   .     S
C206   C217    1.393   .     A
C206   O282    1.390   .     S
C206   C209    1.407   .     A
C207   C210    1.402   .     A
C208   O286    1.282   .     A
C208   C238    1.415   .     S
C208   O285    1.280   .     A
C209   C211    1.402   .     A
C210   O283    1.390   .     S
C210   C212    1.397   .     A
C211   C213    1.394   .     A
C211   O284    1.387   .     S
C212   C218    1.402   .     A
C212   C214    1.413   .     A
C213   C220    1.401   .     A
C213   C215    1.412   .     A
C214   C216    1.413   .     A
C214   C1097   1.399   .     S
C215   C217    1.413   .     A
C215   C1096   1.399   1_554 S
C216   C230    1.401   .     A
C217   C219    1.401   .     A
C218   H239    1.083   .     S
C218   C1101   1.386   .     S
C219   H261    1.082   .     S
C219   C1100   1.386   1_554 S
C220   H250    1.083   .     S
C220   C1112   1.384   1_554 S
C221   H243    1.106   .     S
C221   C222    1.531   .     S
C221   H244    1.118   .     S
C221   O292    1.419   .     S
C222   H246    1.110   .     S
C222   H245    1.111   .     S
C222   C811    1.527   1_545 S
C223   H247    1.111   .     S
C223   H248    1.110   .     S
C223   H249    1.111   .     S
C223   C516    1.527   .     S
C224   H252    1.115   .     S
C224   C225    1.532   .     S
C224   H251    1.109   .     S
C224   O282    1.418   .     S
C225   C226    1.527   .     S
C225   H253    1.111   .     S
C225   H254    1.111   .     S
C226   H255    1.111   .     S
C227   C228    1.536   .     S
C227   H258    1.111   .     S
C227   O283    1.421   .     S
C227   H259    1.111   .     S
C228   H260    1.104   .     S
C228   H262    1.111   .     S
C228   C229    1.527   .     S
C229   H265    1.111   .     S
C229   H263    1.111   .     S
C229   H264    1.110   .     S
C230   H272    1.082   .     S
C230   C1102   1.384   .     S
C231   C232    1.527   .     S
C231   H266    1.112   .     S
C231   H267    1.115   .     S
C231   O284    1.415   .     S
C232   H269    1.110   .     S
C232   H268    1.112   .     S
C232   C821    1.527   1_545 S
C233   H270    1.111   .     S
C233   H271    1.111   .     S
C233   H273    1.111   .     S
C233   C526    1.527   .     S
C234   H274    1.083   .     S
C235   C238    1.396   .     A
C235   H275    1.083   .     S
C235   C41     1.368   1_655 S
C236   H276    1.083   .     S
C236   C238    1.397   .     A
C236   C38     1.368   1_655 S
C237   H277    1.084   .     S
H256   C30     1.110   1_655 S
H257   C30     1.111   1_655 S
N279   Zn293   2.008   .     S
N280   Zn294   2.008   .     S
O281   Zn293   1.993   .     S
O285   Zn294   1.993   .     S
O286   Zn293   1.994   .     S
O287   Zn294   1.994   .     S
O288   Zn293   2.017   .     S
O289   Zn294   2.017   .     S
O290   Zn293   2.010   .     S
O291   Zn294   2.010   .     S
C295   C296    1.415   .     S
C295   O385    1.281   .     A
C295   O379    1.281   .     A
C296   C335    1.396   .     A
C296   C332    1.396   .     A
C297   H376    1.080   .     S
C297   N378    1.367   .     A
C298   H338    1.081   .     S
C298   N377    1.366   .     A
C298   C593    1.415   .     S
C299   N378    1.366   .     A
C299   H339    1.081   .     S
C300   N377    1.365   .     A
C300   H340    1.081   .     S
C300   C591    1.413   .     S
C301   O389    1.284   .     A
C301   O386    1.284   .     A
C301   C307    1.430   .     S
C302   O388    1.286   .     A
C302   O387    1.283   .     A
C302   C305    1.433   .     S
C303   C314    1.393   .     A
C303   C305    1.406   .     A
C303   O390    1.388   .     S
C304   C315    1.393   .     A
C304   O380    1.390   .     S
C304   C307    1.407   .     A
C305   C308    1.402   .     A
C306   O384    1.282   .     A
C306   C336    1.415   .     S
C306   O383    1.280   .     A
C307   C309    1.402   .     A
C308   O381    1.390   .     S
C308   C310    1.397   .     A
C309   C311    1.394   .     A
C309   O382    1.387   .     S
C310   C316    1.402   .     A
C310   C312    1.413   .     A
C311   C318    1.401   .     A
C311   C313    1.412   .     A
C312   C314    1.413   .     A
C312   C1195   1.399   .     S
C313   C315    1.413   .     A
C313   C1194   1.399   1_554 S
C314   C328    1.401   .     A
C315   C317    1.401   .     A
C316   H337    1.083   .     S
C316   C1199   1.386   .     S
C317   H359    1.082   .     S
C317   C1198   1.386   1_554 S
C318   H348    1.083   .     S
C318   C1210   1.384   1_554 S
C319   H341    1.106   .     S
C319   C320    1.531   .     S
C319   H342    1.118   .     S
C319   O390    1.419   .     S
C320   H344    1.110   .     S
C320   H343    1.111   .     S
C321   H345    1.111   .     S
C321   H346    1.110   .     S
C321   H347    1.111   .     S
C321   C614    1.527   .     S
C322   H350    1.115   .     S
C322   C323    1.532   .     S
C322   H349    1.109   .     S
C322   O380    1.418   .     S
C323   C324    1.527   .     S
C323   H351    1.111   .     S
C323   H352    1.111   .     S
C324   H353    1.111   .     S
C324   H550    1.110   1_455 S
C324   H551    1.111   1_455 S
C325   C326    1.536   .     S
C325   H356    1.111   .     S
C325   O381    1.421   .     S
C325   H357    1.111   .     S
C326   H358    1.104   .     S
C326   H360    1.111   .     S
C326   C327    1.527   .     S
C327   H363    1.111   .     S
C327   H361    1.111   .     S
C327   H362    1.110   .     S
C328   H370    1.082   .     S
C328   C1200   1.384   .     S
C329   C330    1.527   .     S
C329   H364    1.112   .     S
C329   H365    1.115   .     S
C329   O382    1.415   .     S
C330   H367    1.110   .     S
C330   H366    1.112   .     S
C331   H368    1.111   .     S
C331   H369    1.111   .     S
C331   H371    1.111   .     S
C331   C624    1.527   .     S
C332   H372    1.083   .     S
C332   C530    1.368   1_455 S
C333   C336    1.396   .     A
C333   H373    1.083   .     S
C333   C433    1.368   .     S
C334   H374    1.083   .     S
C334   C336    1.397   .     A
C334   C430    1.368   .     S
C335   H375    1.084   .     S
C335   C529    1.368   1_455 S
H354   C422    1.110   .     S
H355   C422    1.111   .     S
N377   Zn391   2.008   .     S
N378   Zn392   2.008   .     S
O379   Zn391   1.993   .     S
O383   Zn392   1.993   .     S
O384   Zn391   1.994   .     S
O385   Zn392   1.994   .     S
O386   Zn391   2.017   .     S
O387   Zn392   2.017   .     S
O388   Zn391   2.010   .     S
O389   Zn392   2.010   .     S
C393   C394    1.415   .     S
C393   O483    1.281   .     A
C393   O477    1.281   .     A
C394   C433    1.396   .     A
C394   C430    1.396   .     A
C395   H474    1.080   .     S
C395   N476    1.367   .     A
C396   H436    1.081   .     S
C396   N475    1.366   .     A
C396   C691    1.415   .     S
C397   N476    1.366   .     A
C397   H437    1.081   .     S
C398   N475    1.365   .     A
C398   H438    1.081   .     S
C398   C689    1.413   .     S
C399   O487    1.284   .     A
C399   O484    1.284   .     A
C399   C405    1.430   .     S
C400   O486    1.286   .     A
C400   O485    1.283   .     A
C400   C403    1.433   .     S
C401   C412    1.393   .     A
C401   C403    1.406   .     A
C401   O488    1.388   .     S
C402   C413    1.393   .     A
C402   O478    1.390   .     S
C402   C405    1.407   .     A
C403   C406    1.402   .     A
C404   O482    1.282   .     A
C404   C434    1.415   .     S
C404   O481    1.280   .     A
C405   C407    1.402   .     A
C406   O479    1.390   .     S
C406   C408    1.397   .     A
C407   C409    1.394   .     A
C407   O480    1.387   .     S
C408   C414    1.402   .     A
C408   C410    1.413   .     A
C409   C416    1.401   .     A
C409   C411    1.412   .     A
C410   C412    1.413   .     A
C410   C1293   1.399   .     S
C411   C413    1.413   .     A
C411   C1292   1.399   1_554 S
C412   C426    1.401   .     A
C413   C415    1.401   .     A
C414   H435    1.083   .     S
C414   C1297   1.386   .     S
C415   H457    1.082   .     S
C415   C1296   1.386   1_554 S
C416   H446    1.083   .     S
C416   C1308   1.384   1_554 S
C417   H439    1.106   .     S
C417   C418    1.531   .     S
C417   H440    1.118   .     S
C417   O488    1.419   .     S
C418   H442    1.110   .     S
C418   H441    1.111   .     S
C419   H443    1.111   .     S
C419   H444    1.110   .     S
C419   H445    1.111   .     S
C419   C712    1.527   .     S
C420   H448    1.115   .     S
C420   C421    1.532   .     S
C420   H447    1.109   .     S
C420   O478    1.418   .     S
C421   C422    1.527   .     S
C421   H449    1.111   .     S
C421   H450    1.111   .     S
C422   H451    1.111   .     S
C423   C424    1.536   .     S
C423   H454    1.111   .     S
C423   O479    1.421   .     S
C423   H455    1.111   .     S
C424   H456    1.104   .     S
C424   H458    1.111   .     S
C424   C425    1.527   .     S
C425   H461    1.111   .     S
C425   H459    1.111   .     S
C425   H460    1.110   .     S
C426   H468    1.082   .     S
C426   C1298   1.384   .     S
C427   C428    1.527   .     S
C427   H462    1.112   .     S
C427   H463    1.115   .     S
C427   O480    1.415   .     S
C428   H465    1.110   .     S
C428   H464    1.112   .     S
C429   H466    1.111   .     S
C429   H467    1.111   .     S
C429   H469    1.111   .     S
C429   C722    1.527   .     S
C430   H470    1.083   .     S
C431   C434    1.396   .     A
C431   H471    1.083   .     S
C431   C531    1.368   .     S
C432   H472    1.083   .     S
C432   C434    1.397   .     A
C432   C528    1.368   .     S
C433   H473    1.084   .     S
H452   C520    1.110   .     S
H453   C520    1.111   .     S
N475   Zn489   2.008   .     S
N476   Zn490   2.008   .     S
O477   Zn489   1.993   .     S
O481   Zn490   1.993   .     S
O482   Zn489   1.994   .     S
O483   Zn490   1.994   .     S
O484   Zn489   2.017   .     S
O485   Zn490   2.017   .     S
O486   Zn489   2.010   .     S
O487   Zn490   2.010   .     S
C491   C492    1.415   .     S
C491   O581    1.281   .     A
C491   O575    1.281   .     A
C492   C531    1.396   .     A
C492   C528    1.396   .     A
C493   H572    1.080   .     S
C493   N574    1.367   .     A
C494   H534    1.081   .     S
C494   N573    1.366   .     A
C494   C789    1.415   .     S
C495   N574    1.366   .     A
C495   H535    1.081   .     S
C496   N573    1.365   .     A
C496   H536    1.081   .     S
C496   C787    1.413   .     S
C497   O585    1.284   .     A
C497   O582    1.284   .     A
C497   C503    1.430   .     S
C498   O584    1.286   .     A
C498   O583    1.283   .     A
C498   C501    1.433   .     S
C499   C510    1.393   .     A
C499   C501    1.406   .     A
C499   O586    1.388   .     S
C500   C511    1.393   .     A
C500   O576    1.390   .     S
C500   C503    1.407   .     A
C501   C504    1.402   .     A
C502   O580    1.282   .     A
C502   C532    1.415   .     S
C502   O579    1.280   .     A
C503   C505    1.402   .     A
C504   O577    1.390   .     S
C504   C506    1.397   .     A
C505   C507    1.394   .     A
C505   O578    1.387   .     S
C506   C512    1.402   .     A
C506   C508    1.413   .     A
C507   C514    1.401   .     A
C507   C509    1.412   .     A
C508   C510    1.413   .     A
C508   C1391   1.399   .     S
C509   C511    1.413   .     A
C509   C1390   1.399   1_554 S
C510   C524    1.401   .     A
C511   C513    1.401   .     A
C512   H533    1.083   .     S
C512   C1395   1.386   .     S
C513   H555    1.082   .     S
C513   C1394   1.386   1_554 S
C514   H544    1.083   .     S
C514   C1406   1.384   1_554 S
C515   H537    1.106   .     S
C515   C516    1.531   .     S
C515   H538    1.118   .     S
C515   O586    1.419   .     S
C516   H540    1.110   .     S
C516   H539    1.111   .     S
C517   H541    1.111   .     S
C517   H542    1.110   .     S
C517   H543    1.111   .     S
C517   C810    1.527   .     S
C518   H546    1.115   .     S
C518   C519    1.532   .     S
C518   H545    1.109   .     S
C518   O576    1.418   .     S
C519   C520    1.527   .     S
C519   H547    1.111   .     S
C519   H548    1.111   .     S
C520   H549    1.111   .     S
C521   C522    1.536   .     S
C521   H552    1.111   .     S
C521   O577    1.421   .     S
C521   H553    1.111   .     S
C522   H554    1.104   .     S
C522   H556    1.111   .     S
C522   C523    1.527   .     S
C523   H559    1.111   .     S
C523   H557    1.111   .     S
C523   H558    1.110   .     S
C524   H566    1.082   .     S
C524   C1396   1.384   .     S
C525   C526    1.527   .     S
C525   H560    1.112   .     S
C525   H561    1.115   .     S
C525   O578    1.415   .     S
C526   H563    1.110   .     S
C526   H562    1.112   .     S
C527   H564    1.111   .     S
C527   H565    1.111   .     S
C527   H567    1.111   .     S
C527   C820    1.527   .     S
C528   H568    1.083   .     S
C529   C532    1.396   .     A
C529   H569    1.083   .     S
C529   C335    1.368   1_655 S
C530   H570    1.083   .     S
C530   C532    1.397   .     A
C530   C332    1.368   1_655 S
C531   H571    1.084   .     S
H550   C324    1.110   1_655 S
H551   C324    1.111   1_655 S
N573   Zn587   2.008   .     S
N574   Zn588   2.008   .     S
O575   Zn587   1.993   .     S
O579   Zn588   1.993   .     S
O580   Zn587   1.994   .     S
O581   Zn588   1.994   .     S
O582   Zn587   2.017   .     S
O583   Zn588   2.017   .     S
O584   Zn587   2.010   .     S
O585   Zn588   2.010   .     S
C589   C590    1.415   .     S
C589   O679    1.281   .     A
C589   O673    1.281   .     A
C590   C629    1.396   .     A
C590   C626    1.396   .     A
C591   H670    1.080   .     S
C591   N672    1.367   .     A
C592   H632    1.081   .     S
C592   N671    1.366   .     A
C592   C5      1.415   1_565 S
C593   N672    1.366   .     A
C593   H633    1.081   .     S
C594   N671    1.365   .     A
C594   H634    1.081   .     S
C594   C3      1.413   1_565 S
C595   O683    1.284   .     A
C595   O680    1.284   .     A
C595   C601    1.430   .     S
C596   O682    1.286   .     A
C596   O681    1.283   .     A
C596   C599    1.433   .     S
C597   C608    1.393   .     A
C597   C599    1.406   .     A
C597   O684    1.388   .     S
C598   C609    1.393   .     A
C598   O674    1.390   .     S
C598   C601    1.407   .     A
C599   C602    1.402   .     A
C600   O678    1.282   .     A
C600   C630    1.415   .     S
C600   O677    1.280   .     A
C601   C603    1.402   .     A
C602   O675    1.390   .     S
C602   C604    1.397   .     A
C603   C605    1.394   .     A
C603   O676    1.387   .     S
C604   C610    1.402   .     A
C604   C606    1.413   .     A
C605   C612    1.401   .     A
C605   C607    1.412   .     A
C606   C608    1.413   .     A
C606   C1489   1.399   .     S
C607   C609    1.413   .     A
C607   C1488   1.399   1_554 S
C608   C622    1.401   .     A
C609   C611    1.401   .     A
C610   H631    1.083   .     S
C610   C1493   1.386   .     S
C611   H653    1.082   .     S
C611   C1492   1.386   1_554 S
C612   H642    1.083   .     S
C612   C1504   1.384   1_554 S
C613   H635    1.106   .     S
C613   C614    1.531   .     S
C613   H636    1.118   .     S
C613   O684    1.419   .     S
C614   H638    1.110   .     S
C614   H637    1.111   .     S
C615   H639    1.111   .     S
C615   H640    1.110   .     S
C615   H641    1.111   .     S
C615   C26     1.527   1_565 S
C616   H644    1.115   .     S
C616   C617    1.532   .     S
C616   H643    1.109   .     S
C616   O674    1.418   .     S
C617   C618    1.527   .     S
C617   H645    1.111   .     S
C617   H646    1.111   .     S
C618   H647    1.111   .     S
C618   H844    1.110   1_455 S
C618   H845    1.111   1_455 S
C619   C620    1.536   .     S
C619   H650    1.111   .     S
C619   O675    1.421   .     S
C619   H651    1.111   .     S
C620   H652    1.104   .     S
C620   H654    1.111   .     S
C620   C621    1.527   .     S
C621   H657    1.111   .     S
C621   H655    1.111   .     S
C621   H656    1.110   .     S
C622   H664    1.082   .     S
C622   C1494   1.384   .     S
C623   C624    1.527   .     S
C623   H658    1.112   .     S
C623   H659    1.115   .     S
C623   O676    1.415   .     S
C624   H661    1.110   .     S
C624   H660    1.112   .     S
C625   H662    1.111   .     S
C625   H663    1.111   .     S
C625   H665    1.111   .     S
C625   C36     1.527   1_565 S
C626   H666    1.083   .     S
C626   C824    1.368   1_455 S
C627   C630    1.396   .     A
C627   H667    1.083   .     S
C627   C727    1.368   .     S
C628   H668    1.083   .     S
C628   C630    1.397   .     A
C628   C724    1.368   .     S
C629   H669    1.084   .     S
C629   C823    1.368   1_455 S
H648   C716    1.110   .     S
H649   C716    1.111   .     S
N671   Zn685   2.008   .     S
N672   Zn686   2.008   .     S
O673   Zn685   1.993   .     S
O677   Zn686   1.993   .     S
O678   Zn685   1.994   .     S
O679   Zn686   1.994   .     S
O680   Zn685   2.017   .     S
O681   Zn686   2.017   .     S
O682   Zn685   2.010   .     S
O683   Zn686   2.010   .     S
C687   C688    1.415   .     S
C687   O777    1.281   .     A
C687   O771    1.281   .     A
C688   C727    1.396   .     A
C688   C724    1.396   .     A
C689   H768    1.080   .     S
C689   N770    1.367   .     A
C690   H730    1.081   .     S
C690   N769    1.366   .     A
C690   C103    1.415   1_565 S
C691   N770    1.366   .     A
C691   H731    1.081   .     S
C692   N769    1.365   .     A
C692   H732    1.081   .     S
C692   C101    1.413   1_565 S
C693   O781    1.284   .     A
C693   O778    1.284   .     A
C693   C699    1.430   .     S
C694   O780    1.286   .     A
C694   O779    1.283   .     A
C694   C697    1.433   .     S
C695   C706    1.393   .     A
C695   C697    1.406   .     A
C695   O782    1.388   .     S
C696   C707    1.393   .     A
C696   O772    1.390   .     S
C696   C699    1.407   .     A
C697   C700    1.402   .     A
C698   O776    1.282   .     A
C698   C728    1.415   .     S
C698   O775    1.280   .     A
C699   C701    1.402   .     A
C700   O773    1.390   .     S
C700   C702    1.397   .     A
C701   C703    1.394   .     A
C701   O774    1.387   .     S
C702   C708    1.402   .     A
C702   C704    1.413   .     A
C703   C710    1.401   .     A
C703   C705    1.412   .     A
C704   C706    1.413   .     A
C704   C1587   1.399   .     S
C705   C707    1.413   .     A
C705   C1586   1.399   1_554 S
C706   C720    1.401   .     A
C707   C709    1.401   .     A
C708   H729    1.083   .     S
C708   C1591   1.386   .     S
C709   H751    1.082   .     S
C709   C1590   1.386   1_554 S
C710   H740    1.083   .     S
C710   C1602   1.384   1_554 S
C711   H733    1.106   .     S
C711   C712    1.531   .     S
C711   H734    1.118   .     S
C711   O782    1.419   .     S
C712   H736    1.110   .     S
C712   H735    1.111   .     S
C713   H737    1.111   .     S
C713   H738    1.110   .     S
C713   H739    1.111   .     S
C713   C124    1.527   1_565 S
C714   H742    1.115   .     S
C714   C715    1.532   .     S
C714   H741    1.109   .     S
C714   O772    1.418   .     S
C715   C716    1.527   .     S
C715   H743    1.111   .     S
C715   H744    1.111   .     S
C716   H745    1.111   .     S
C717   C718    1.536   .     S
C717   H748    1.111   .     S
C717   O773    1.421   .     S
C717   H749    1.111   .     S
C718   H750    1.104   .     S
C718   H752    1.111   .     S
C718   C719    1.527   .     S
C719   H755    1.111   .     S
C719   H753    1.111   .     S
C719   H754    1.110   .     S
C720   H762    1.082   .     S
C720   C1592   1.384   .     S
C721   C722    1.527   .     S
C721   H756    1.112   .     S
C721   H757    1.115   .     S
C721   O774    1.415   .     S
C722   H759    1.110   .     S
C722   H758    1.112   .     S
C723   H760    1.111   .     S
C723   H761    1.111   .     S
C723   H763    1.111   .     S
C723   C134    1.527   1_565 S
C724   H764    1.083   .     S
C725   C728    1.396   .     A
C725   H765    1.083   .     S
C725   C825    1.368   .     S
C726   H766    1.083   .     S
C726   C728    1.397   .     A
C726   C822    1.368   .     S
C727   H767    1.084   .     S
H746   C814    1.110   .     S
H747   C814    1.111   .     S
N769   Zn783   2.008   .     S
N770   Zn784   2.008   .     S
O771   Zn783   1.993   .     S
O775   Zn784   1.993   .     S
O776   Zn783   1.994   .     S
O777   Zn784   1.994   .     S
O778   Zn783   2.017   .     S
O779   Zn784   2.017   .     S
O780   Zn783   2.010   .     S
O781   Zn784   2.010   .     S
C785   C786    1.415   .     S
C785   O875    1.281   .     A
C785   O869    1.281   .     A
C786   C825    1.396   .     A
C786   C822    1.396   .     A
C787   H866    1.080   .     S
C787   N868    1.367   .     A
C788   H828    1.081   .     S
C788   N867    1.366   .     A
C788   C201    1.415   1_565 S
C789   N868    1.366   .     A
C789   H829    1.081   .     S
C790   N867    1.365   .     A
C790   H830    1.081   .     S
C790   C199    1.413   1_565 S
C791   O879    1.284   .     A
C791   O876    1.284   .     A
C791   C797    1.430   .     S
C792   O878    1.286   .     A
C792   O877    1.283   .     A
C792   C795    1.433   .     S
C793   C804    1.393   .     A
C793   C795    1.406   .     A
C793   O880    1.388   .     S
C794   C805    1.393   .     A
C794   O870    1.390   .     S
C794   C797    1.407   .     A
C795   C798    1.402   .     A
C796   O874    1.282   .     A
C796   C826    1.415   .     S
C796   O873    1.280   .     A
C797   C799    1.402   .     A
C798   O871    1.390   .     S
C798   C800    1.397   .     A
C799   C801    1.394   .     A
C799   O872    1.387   .     S
C800   C806    1.402   .     A
C800   C802    1.413   .     A
C801   C808    1.401   .     A
C801   C803    1.412   .     A
C802   C804    1.413   .     A
C802   C1685   1.399   .     S
C803   C805    1.413   .     A
C803   C1684   1.399   1_554 S
C804   C818    1.401   .     A
C805   C807    1.401   .     A
C806   H827    1.083   .     S
C806   C1689   1.386   .     S
C807   H849    1.082   .     S
C807   C1688   1.386   1_554 S
C808   H838    1.083   .     S
C808   C1700   1.384   1_554 S
C809   H831    1.106   .     S
C809   C810    1.531   .     S
C809   H832    1.118   .     S
C809   O880    1.419   .     S
C810   H834    1.110   .     S
C810   H833    1.111   .     S
C811   H835    1.111   .     S
C811   H836    1.110   .     S
C811   H837    1.111   .     S
C811   C222    1.527   1_565 S
C812   H840    1.115   .     S
C812   C813    1.532   .     S
C812   H839    1.109   .     S
C812   O870    1.418   .     S
C813   C814    1.527   .     S
C813   H841    1.111   .     S
C813   H842    1.111   .     S
C814   H843    1.111   .     S
C815   C816    1.536   .     S
C815   H846    1.111   .     S
C815   O871    1.421   .     S
C815   H847    1.111   .     S
C816   H848    1.104   .     S
C816   H850    1.111   .     S
C816   C817    1.527   .     S
C817   H853    1.111   .     S
C817   H851    1.111   .     S
C817   H852    1.110   .     S
C818   H860    1.082   .     S
C818   C1690   1.384   .     S
C819   C820    1.527   .     S
C819   H854    1.112   .     S
C819   H855    1.115   .     S
C819   O872    1.415   .     S
C820   H857    1.110   .     S
C820   H856    1.112   .     S
C821   H858    1.111   .     S
C821   H859    1.111   .     S
C821   H861    1.111   .     S
C821   C232    1.527   1_565 S
C822   H862    1.083   .     S
C823   C826    1.396   .     A
C823   H863    1.083   .     S
C823   C629    1.368   1_655 S
C824   H864    1.083   .     S
C824   C826    1.397   .     A
C824   C626    1.368   1_655 S
C825   H865    1.084   .     S
H844   C618    1.110   1_655 S
H845   C618    1.111   1_655 S
N867   Zn881   2.008   .     S
N868   Zn882   2.008   .     S
O869   Zn881   1.993   .     S
O873   Zn882   1.993   .     S
O874   Zn881   1.994   .     S
O875   Zn882   1.994   .     S
O876   Zn881   2.017   .     S
O877   Zn882   2.017   .     S
O878   Zn881   2.010   .     S
O879   Zn882   2.010   .     S
C883   C884    1.415   .     S
C883   O973    1.281   .     A
C883   O967    1.281   .     A
C884   C923    1.396   .     A
C884   C920    1.396   .     A
C885   H964    1.080   .     S
C885   N966    1.367   .     A
C885   C1476   1.413   1_545 S
C886   H926    1.081   .     S
C886   N965    1.366   .     A
C886   C1181   1.415   .     S
C887   N966    1.366   .     A
C887   H927    1.081   .     S
C887   C1474   1.415   1_545 S
C888   N965    1.365   .     A
C888   H928    1.081   .     S
C888   C1179   1.413   .     S
C889   O977    1.284   .     A
C889   O974    1.284   .     A
C889   C895    1.430   .     S
C890   O976    1.286   .     A
C890   O975    1.283   .     A
C890   C893    1.433   .     S
C891   C902    1.393   .     A
C891   C893    1.406   .     A
C891   O978    1.388   .     S
C892   C903    1.393   .     A
C892   O968    1.390   .     S
C892   C895    1.407   .     A
C893   C896    1.402   .     A
C894   O972    1.282   .     A
C894   C924    1.415   .     S
C894   O971    1.280   .     A
C895   C897    1.402   .     A
C896   O969    1.390   .     S
C896   C898    1.397   .     A
C897   C899    1.394   .     A
C897   O970    1.387   .     S
C898   C904    1.402   .     A
C898   C900    1.413   .     A
C899   C906    1.401   .     A
C899   C901    1.412   .     A
C900   C902    1.413   .     A
C900   C19     1.399   1_556 S
C901   C903    1.413   .     A
C902   C916    1.401   .     A
C903   C905    1.401   .     A
C904   H925    1.083   .     S
C904   C23     1.386   1_556 S
C905   H947    1.082   .     S
C906   H936    1.083   .     S
C907   H929    1.106   .     S
C907   C908    1.531   .     S
C907   H930    1.118   .     S
C907   O978    1.419   .     S
C908   H932    1.110   .     S
C908   H931    1.111   .     S
C908   C1497   1.527   1_545 S
C909   H933    1.111   .     S
C909   H934    1.110   .     S
C909   H935    1.111   .     S
C909   C1202   1.527   .     S
C910   H938    1.115   .     S
C910   C911    1.532   .     S
C910   H937    1.109   .     S
C910   O968    1.418   .     S
C911   C912    1.527   .     S
C911   H939    1.111   .     S
C911   H940    1.111   .     S
C912   H941    1.111   .     S
C912   H1138   1.110   1_455 S
C912   H1139   1.111   1_455 S
C913   C914    1.536   .     S
C913   H944    1.111   .     S
C913   O969    1.421   .     S
C913   H945    1.111   .     S
C914   H946    1.104   .     S
C914   H948    1.111   .     S
C914   C915    1.527   .     S
C915   H951    1.111   .     S
C915   H949    1.111   .     S
C915   H950    1.110   .     S
C916   H958    1.082   .     S
C916   C24     1.384   1_556 S
C917   C918    1.527   .     S
C917   H952    1.112   .     S
C917   H953    1.115   .     S
C917   O970    1.415   .     S
C918   H955    1.110   .     S
C918   H954    1.112   .     S
C918   C1507   1.527   1_545 S
C919   H956    1.111   .     S
C919   H957    1.111   .     S
C919   H959    1.111   .     S
C919   C1212   1.527   .     S
C920   H960    1.083   .     S
C920   C1118   1.368   1_455 S
C921   C924    1.396   .     A
C921   H961    1.083   .     S
C921   C1021   1.368   .     S
C922   H962    1.083   .     S
C922   C924    1.397   .     A
C922   C1018   1.368   .     S
C923   H963    1.084   .     S
C923   C1117   1.368   1_455 S
H942   C1010   1.110   .     S
H943   C1010   1.111   .     S
N965   Zn979   2.008   .     S
N966   Zn980   2.008   .     S
O967   Zn979   1.993   .     S
O971   Zn980   1.993   .     S
O972   Zn979   1.994   .     S
O973   Zn980   1.994   .     S
O974   Zn979   2.017   .     S
O975   Zn980   2.017   .     S
O976   Zn979   2.010   .     S
O977   Zn980   2.010   .     S
C981   C982    1.415   .     S
C981   O1071   1.281   .     A
C981   O1065   1.281   .     A
C982   C1021   1.396   .     A
C982   C1018   1.396   .     A
C983   H1062   1.080   .     S
C983   N1064   1.367   .     A
C983   C1574   1.413   1_545 S
C984   H1024   1.081   .     S
C984   N1063   1.366   .     A
C984   C1279   1.415   .     S
C985   N1064   1.366   .     A
C985   H1025   1.081   .     S
C985   C1572   1.415   1_545 S
C986   N1063   1.365   .     A
C986   H1026   1.081   .     S
C986   C1277   1.413   .     S
C987   O1075   1.284   .     A
C987   O1072   1.284   .     A
C987   C993    1.430   .     S
C988   O1074   1.286   .     A
C988   O1073   1.283   .     A
C988   C991    1.433   .     S
C989   C1000   1.393   .     A
C989   C991    1.406   .     A
C989   O1076   1.388   .     S
C990   C1001   1.393   .     A
C990   O1066   1.390   .     S
C990   C993    1.407   .     A
C991   C994    1.402   .     A
C992   O1070   1.282   .     A
C992   C1022   1.415   .     S
C992   O1069   1.280   .     A
C993   C995    1.402   .     A
C994   O1067   1.390   .     S
C994   C996    1.397   .     A
C995   C997    1.394   .     A
C995   O1068   1.387   .     S
C996   C1002   1.402   .     A
C996   C998    1.413   .     A
C997   C1004   1.401   .     A
C997   C999    1.412   .     A
C998   C1000   1.413   .     A
C998   C117    1.399   1_556 S
C999   C1001   1.413   .     A
C1000  C1014   1.401   .     A
C1001  C1003   1.401   .     A
C1002  H1023   1.083   .     S
C1002  C121    1.386   1_556 S
C1003  H1045   1.082   .     S
C1004  H1034   1.083   .     S
C1005  H1027   1.106   .     S
C1005  C1006   1.531   .     S
C1005  H1028   1.118   .     S
C1005  O1076   1.419   .     S
C1006  H1030   1.110   .     S
C1006  H1029   1.111   .     S
C1006  C1595   1.527   1_545 S
C1007  H1031   1.111   .     S
C1007  H1032   1.110   .     S
C1007  H1033   1.111   .     S
C1007  C1300   1.527   .     S
C1008  H1036   1.115   .     S
C1008  C1009   1.532   .     S
C1008  H1035   1.109   .     S
C1008  O1066   1.418   .     S
C1009  C1010   1.527   .     S
C1009  H1037   1.111   .     S
C1009  H1038   1.111   .     S
C1010  H1039   1.111   .     S
C1011  C1012   1.536   .     S
C1011  H1042   1.111   .     S
C1011  O1067   1.421   .     S
C1011  H1043   1.111   .     S
C1012  H1044   1.104   .     S
C1012  H1046   1.111   .     S
C1012  C1013   1.527   .     S
C1013  H1049   1.111   .     S
C1013  H1047   1.111   .     S
C1013  H1048   1.110   .     S
C1014  H1056   1.082   .     S
C1014  C122    1.384   1_556 S
C1015  C1016   1.527   .     S
C1015  H1050   1.112   .     S
C1015  H1051   1.115   .     S
C1015  O1068   1.415   .     S
C1016  H1053   1.110   .     S
C1016  H1052   1.112   .     S
C1016  C1605   1.527   1_545 S
C1017  H1054   1.111   .     S
C1017  H1055   1.111   .     S
C1017  H1057   1.111   .     S
C1017  C1310   1.527   .     S
C1018  H1058   1.083   .     S
C1019  C1022   1.396   .     A
C1019  H1059   1.083   .     S
C1019  C1119   1.368   .     S
C1020  H1060   1.083   .     S
C1020  C1022   1.397   .     A
C1020  C1116   1.368   .     S
C1021  H1061   1.084   .     S
H1040  C1108   1.110   .     S
H1041  C1108   1.111   .     S
N1063  Zn1077  2.008   .     S
N1064  Zn1078  2.008   .     S
O1065  Zn1077  1.993   .     S
O1069  Zn1078  1.993   .     S
O1070  Zn1077  1.994   .     S
O1071  Zn1078  1.994   .     S
O1072  Zn1077  2.017   .     S
O1073  Zn1078  2.017   .     S
O1074  Zn1077  2.010   .     S
O1075  Zn1078  2.010   .     S
C1079  C1080   1.415   .     S
C1079  O1169   1.281   .     A
C1079  O1163   1.281   .     A
C1080  C1119   1.396   .     A
C1080  C1116   1.396   .     A
C1081  H1160   1.080   .     S
C1081  N1162   1.367   .     A
C1081  C1672   1.413   1_545 S
C1082  H1122   1.081   .     S
C1082  N1161   1.366   .     A
C1082  C1377   1.415   .     S
C1083  N1162   1.366   .     A
C1083  H1123   1.081   .     S
C1083  C1670   1.415   1_545 S
C1084  N1161   1.365   .     A
C1084  H1124   1.081   .     S
C1084  C1375   1.413   .     S
C1085  O1173   1.284   .     A
C1085  O1170   1.284   .     A
C1085  C1091   1.430   .     S
C1086  O1172   1.286   .     A
C1086  O1171   1.283   .     A
C1086  C1089   1.433   .     S
C1087  C1098   1.393   .     A
C1087  C1089   1.406   .     A
C1087  O1174   1.388   .     S
C1088  C1099   1.393   .     A
C1088  O1164   1.390   .     S
C1088  C1091   1.407   .     A
C1089  C1092   1.402   .     A
C1090  O1168   1.282   .     A
C1090  C1120   1.415   .     S
C1090  O1167   1.280   .     A
C1091  C1093   1.402   .     A
C1092  O1165   1.390   .     S
C1092  C1094   1.397   .     A
C1093  C1095   1.394   .     A
C1093  O1166   1.387   .     S
C1094  C1100   1.402   .     A
C1094  C1096   1.413   .     A
C1095  C1102   1.401   .     A
C1095  C1097   1.412   .     A
C1096  C1098   1.413   .     A
C1096  C215    1.399   1_556 S
C1097  C1099   1.413   .     A
C1098  C1112   1.401   .     A
C1099  C1101   1.401   .     A
C1100  H1121   1.083   .     S
C1100  C219    1.386   1_556 S
C1101  H1143   1.082   .     S
C1102  H1132   1.083   .     S
C1103  H1125   1.106   .     S
C1103  C1104   1.531   .     S
C1103  H1126   1.118   .     S
C1103  O1174   1.419   .     S
C1104  H1128   1.110   .     S
C1104  H1127   1.111   .     S
C1104  C1693   1.527   1_545 S
C1105  H1129   1.111   .     S
C1105  H1130   1.110   .     S
C1105  H1131   1.111   .     S
C1105  C1398   1.527   .     S
C1106  H1134   1.115   .     S
C1106  C1107   1.532   .     S
C1106  H1133   1.109   .     S
C1106  O1164   1.418   .     S
C1107  C1108   1.527   .     S
C1107  H1135   1.111   .     S
C1107  H1136   1.111   .     S
C1108  H1137   1.111   .     S
C1109  C1110   1.536   .     S
C1109  H1140   1.111   .     S
C1109  O1165   1.421   .     S
C1109  H1141   1.111   .     S
C1110  H1142   1.104   .     S
C1110  H1144   1.111   .     S
C1110  C1111   1.527   .     S
C1111  H1147   1.111   .     S
C1111  H1145   1.111   .     S
C1111  H1146   1.110   .     S
C1112  H1154   1.082   .     S
C1112  C220    1.384   1_556 S
C1113  C1114   1.527   .     S
C1113  H1148   1.112   .     S
C1113  H1149   1.115   .     S
C1113  O1166   1.415   .     S
C1114  H1151   1.110   .     S
C1114  H1150   1.112   .     S
C1114  C1703   1.527   1_545 S
C1115  H1152   1.111   .     S
C1115  H1153   1.111   .     S
C1115  H1155   1.111   .     S
C1115  C1408   1.527   .     S
C1116  H1156   1.083   .     S
C1117  C1120   1.396   .     A
C1117  H1157   1.083   .     S
C1117  C923    1.368   1_655 S
C1118  H1158   1.083   .     S
C1118  C1120   1.397   .     A
C1118  C920    1.368   1_655 S
C1119  H1159   1.084   .     S
H1138  C912    1.110   1_655 S
H1139  C912    1.111   1_655 S
N1161  Zn1175  2.008   .     S
N1162  Zn1176  2.008   .     S
O1163  Zn1175  1.993   .     S
O1167  Zn1176  1.993   .     S
O1168  Zn1175  1.994   .     S
O1169  Zn1176  1.994   .     S
O1170  Zn1175  2.017   .     S
O1171  Zn1176  2.017   .     S
O1172  Zn1175  2.010   .     S
O1173  Zn1176  2.010   .     S
C1177  C1178   1.415   .     S
C1177  O1267   1.281   .     A
C1177  O1261   1.281   .     A
C1178  C1217   1.396   .     A
C1178  C1214   1.396   .     A
C1179  H1258   1.080   .     S
C1179  N1260   1.367   .     A
C1180  H1220   1.081   .     S
C1180  N1259   1.366   .     A
C1180  C1475   1.415   .     S
C1181  N1260   1.366   .     A
C1181  H1221   1.081   .     S
C1182  N1259   1.365   .     A
C1182  H1222   1.081   .     S
C1182  C1473   1.413   .     S
C1183  O1271   1.284   .     A
C1183  O1268   1.284   .     A
C1183  C1189   1.430   .     S
C1184  O1270   1.286   .     A
C1184  O1269   1.283   .     A
C1184  C1187   1.433   .     S
C1185  C1196   1.393   .     A
C1185  C1187   1.406   .     A
C1185  O1272   1.388   .     S
C1186  C1197   1.393   .     A
C1186  O1262   1.390   .     S
C1186  C1189   1.407   .     A
C1187  C1190   1.402   .     A
C1188  O1266   1.282   .     A
C1188  C1218   1.415   .     S
C1188  O1265   1.280   .     A
C1189  C1191   1.402   .     A
C1190  O1263   1.390   .     S
C1190  C1192   1.397   .     A
C1191  C1193   1.394   .     A
C1191  O1264   1.387   .     S
C1192  C1198   1.402   .     A
C1192  C1194   1.413   .     A
C1193  C1200   1.401   .     A
C1193  C1195   1.412   .     A
C1194  C1196   1.413   .     A
C1194  C313    1.399   1_556 S
C1195  C1197   1.413   .     A
C1196  C1210   1.401   .     A
C1197  C1199   1.401   .     A
C1198  H1219   1.083   .     S
C1198  C317    1.386   1_556 S
C1199  H1241   1.082   .     S
C1200  H1230   1.083   .     S
C1201  H1223   1.106   .     S
C1201  C1202   1.531   .     S
C1201  H1224   1.118   .     S
C1201  O1272   1.419   .     S
C1202  H1226   1.110   .     S
C1202  H1225   1.111   .     S
C1203  H1227   1.111   .     S
C1203  H1228   1.110   .     S
C1203  H1229   1.111   .     S
C1203  C1496   1.527   .     S
C1204  H1232   1.115   .     S
C1204  C1205   1.532   .     S
C1204  H1231   1.109   .     S
C1204  O1262   1.418   .     S
C1205  C1206   1.527   .     S
C1205  H1233   1.111   .     S
C1205  H1234   1.111   .     S
C1206  H1235   1.111   .     S
C1206  H1432   1.110   1_455 S
C1206  H1433   1.111   1_455 S
C1207  C1208   1.536   .     S
C1207  H1238   1.111   .     S
C1207  O1263   1.421   .     S
C1207  H1239   1.111   .     S
C1208  H1240   1.104   .     S
C1208  H1242   1.111   .     S
C1208  C1209   1.527   .     S
C1209  H1245   1.111   .     S
C1209  H1243   1.111   .     S
C1209  H1244   1.110   .     S
C1210  H1252   1.082   .     S
C1210  C318    1.384   1_556 S
C1211  C1212   1.527   .     S
C1211  H1246   1.112   .     S
C1211  H1247   1.115   .     S
C1211  O1264   1.415   .     S
C1212  H1249   1.110   .     S
C1212  H1248   1.112   .     S
C1213  H1250   1.111   .     S
C1213  H1251   1.111   .     S
C1213  H1253   1.111   .     S
C1213  C1506   1.527   .     S
C1214  H1254   1.083   .     S
C1214  C1412   1.368   1_455 S
C1215  C1218   1.396   .     A
C1215  H1255   1.083   .     S
C1215  C1315   1.368   .     S
C1216  H1256   1.083   .     S
C1216  C1218   1.397   .     A
C1216  C1312   1.368   .     S
C1217  H1257   1.084   .     S
C1217  C1411   1.368   1_455 S
H1236  C1304   1.110   .     S
H1237  C1304   1.111   .     S
N1259  Zn1273  2.008   .     S
N1260  Zn1274  2.008   .     S
O1261  Zn1273  1.993   .     S
O1265  Zn1274  1.993   .     S
O1266  Zn1273  1.994   .     S
O1267  Zn1274  1.994   .     S
O1268  Zn1273  2.017   .     S
O1269  Zn1274  2.017   .     S
O1270  Zn1273  2.010   .     S
O1271  Zn1274  2.010   .     S
C1275  C1276   1.415   .     S
C1275  O1365   1.281   .     A
C1275  O1359   1.281   .     A
C1276  C1315   1.396   .     A
C1276  C1312   1.396   .     A
C1277  H1356   1.080   .     S
C1277  N1358   1.367   .     A
C1278  H1318   1.081   .     S
C1278  N1357   1.366   .     A
C1278  C1573   1.415   .     S
C1279  N1358   1.366   .     A
C1279  H1319   1.081   .     S
C1280  N1357   1.365   .     A
C1280  H1320   1.081   .     S
C1280  C1571   1.413   .     S
C1281  O1369   1.284   .     A
C1281  O1366   1.284   .     A
C1281  C1287   1.430   .     S
C1282  O1368   1.286   .     A
C1282  O1367   1.283   .     A
C1282  C1285   1.433   .     S
C1283  C1294   1.393   .     A
C1283  C1285   1.406   .     A
C1283  O1370   1.388   .     S
C1284  C1295   1.393   .     A
C1284  O1360   1.390   .     S
C1284  C1287   1.407   .     A
C1285  C1288   1.402   .     A
C1286  O1364   1.282   .     A
C1286  C1316   1.415   .     S
C1286  O1363   1.280   .     A
C1287  C1289   1.402   .     A
C1288  O1361   1.390   .     S
C1288  C1290   1.397   .     A
C1289  C1291   1.394   .     A
C1289  O1362   1.387   .     S
C1290  C1296   1.402   .     A
C1290  C1292   1.413   .     A
C1291  C1298   1.401   .     A
C1291  C1293   1.412   .     A
C1292  C1294   1.413   .     A
C1292  C411    1.399   1_556 S
C1293  C1295   1.413   .     A
C1294  C1308   1.401   .     A
C1295  C1297   1.401   .     A
C1296  H1317   1.083   .     S
C1296  C415    1.386   1_556 S
C1297  H1339   1.082   .     S
C1298  H1328   1.083   .     S
C1299  H1321   1.106   .     S
C1299  C1300   1.531   .     S
C1299  H1322   1.118   .     S
C1299  O1370   1.419   .     S
C1300  H1324   1.110   .     S
C1300  H1323   1.111   .     S
C1301  H1325   1.111   .     S
C1301  H1326   1.110   .     S
C1301  H1327   1.111   .     S
C1301  C1594   1.527   .     S
C1302  H1330   1.115   .     S
C1302  C1303   1.532   .     S
C1302  H1329   1.109   .     S
C1302  O1360   1.418   .     S
C1303  C1304   1.527   .     S
C1303  H1331   1.111   .     S
C1303  H1332   1.111   .     S
C1304  H1333   1.111   .     S
C1305  C1306   1.536   .     S
C1305  H1336   1.111   .     S
C1305  O1361   1.421   .     S
C1305  H1337   1.111   .     S
C1306  H1338   1.104   .     S
C1306  H1340   1.111   .     S
C1306  C1307   1.527   .     S
C1307  H1343   1.111   .     S
C1307  H1341   1.111   .     S
C1307  H1342   1.110   .     S
C1308  H1350   1.082   .     S
C1308  C416    1.384   1_556 S
C1309  C1310   1.527   .     S
C1309  H1344   1.112   .     S
C1309  H1345   1.115   .     S
C1309  O1362   1.415   .     S
C1310  H1347   1.110   .     S
C1310  H1346   1.112   .     S
C1311  H1348   1.111   .     S
C1311  H1349   1.111   .     S
C1311  H1351   1.111   .     S
C1311  C1604   1.527   .     S
C1312  H1352   1.083   .     S
C1313  C1316   1.396   .     A
C1313  H1353   1.083   .     S
C1313  C1413   1.368   .     S
C1314  H1354   1.083   .     S
C1314  C1316   1.397   .     A
C1314  C1410   1.368   .     S
C1315  H1355   1.084   .     S
H1334  C1402   1.110   .     S
H1335  C1402   1.111   .     S
N1357  Zn1371  2.008   .     S
N1358  Zn1372  2.008   .     S
O1359  Zn1371  1.993   .     S
O1363  Zn1372  1.993   .     S
O1364  Zn1371  1.994   .     S
O1365  Zn1372  1.994   .     S
O1366  Zn1371  2.017   .     S
O1367  Zn1372  2.017   .     S
O1368  Zn1371  2.010   .     S
O1369  Zn1372  2.010   .     S
C1373  C1374   1.415   .     S
C1373  O1463   1.281   .     A
C1373  O1457   1.281   .     A
C1374  C1413   1.396   .     A
C1374  C1410   1.396   .     A
C1375  H1454   1.080   .     S
C1375  N1456   1.367   .     A
C1376  H1416   1.081   .     S
C1376  N1455   1.366   .     A
C1376  C1671   1.415   .     S
C1377  N1456   1.366   .     A
C1377  H1417   1.081   .     S
C1378  N1455   1.365   .     A
C1378  H1418   1.081   .     S
C1378  C1669   1.413   .     S
C1379  O1467   1.284   .     A
C1379  O1464   1.284   .     A
C1379  C1385   1.430   .     S
C1380  O1466   1.286   .     A
C1380  O1465   1.283   .     A
C1380  C1383   1.433   .     S
C1381  C1392   1.393   .     A
C1381  C1383   1.406   .     A
C1381  O1468   1.388   .     S
C1382  C1393   1.393   .     A
C1382  O1458   1.390   .     S
C1382  C1385   1.407   .     A
C1383  C1386   1.402   .     A
C1384  O1462   1.282   .     A
C1384  C1414   1.415   .     S
C1384  O1461   1.280   .     A
C1385  C1387   1.402   .     A
C1386  O1459   1.390   .     S
C1386  C1388   1.397   .     A
C1387  C1389   1.394   .     A
C1387  O1460   1.387   .     S
C1388  C1394   1.402   .     A
C1388  C1390   1.413   .     A
C1389  C1396   1.401   .     A
C1389  C1391   1.412   .     A
C1390  C1392   1.413   .     A
C1390  C509    1.399   1_556 S
C1391  C1393   1.413   .     A
C1392  C1406   1.401   .     A
C1393  C1395   1.401   .     A
C1394  H1415   1.083   .     S
C1394  C513    1.386   1_556 S
C1395  H1437   1.082   .     S
C1396  H1426   1.083   .     S
C1397  H1419   1.106   .     S
C1397  C1398   1.531   .     S
C1397  H1420   1.118   .     S
C1397  O1468   1.419   .     S
C1398  H1422   1.110   .     S
C1398  H1421   1.111   .     S
C1399  H1423   1.111   .     S
C1399  H1424   1.110   .     S
C1399  H1425   1.111   .     S
C1399  C1692   1.527   .     S
C1400  H1428   1.115   .     S
C1400  C1401   1.532   .     S
C1400  H1427   1.109   .     S
C1400  O1458   1.418   .     S
C1401  C1402   1.527   .     S
C1401  H1429   1.111   .     S
C1401  H1430   1.111   .     S
C1402  H1431   1.111   .     S
C1403  C1404   1.536   .     S
C1403  H1434   1.111   .     S
C1403  O1459   1.421   .     S
C1403  H1435   1.111   .     S
C1404  H1436   1.104   .     S
C1404  H1438   1.111   .     S
C1404  C1405   1.527   .     S
C1405  H1441   1.111   .     S
C1405  H1439   1.111   .     S
C1405  H1440   1.110   .     S
C1406  H1448   1.082   .     S
C1406  C514    1.384   1_556 S
C1407  C1408   1.527   .     S
C1407  H1442   1.112   .     S
C1407  H1443   1.115   .     S
C1407  O1460   1.415   .     S
C1408  H1445   1.110   .     S
C1408  H1444   1.112   .     S
C1409  H1446   1.111   .     S
C1409  H1447   1.111   .     S
C1409  H1449   1.111   .     S
C1409  C1702   1.527   .     S
C1410  H1450   1.083   .     S
C1411  C1414   1.396   .     A
C1411  H1451   1.083   .     S
C1411  C1217   1.368   1_655 S
C1412  H1452   1.083   .     S
C1412  C1414   1.397   .     A
C1412  C1214   1.368   1_655 S
C1413  H1453   1.084   .     S
H1432  C1206   1.110   1_655 S
H1433  C1206   1.111   1_655 S
N1455  Zn1469  2.008   .     S
N1456  Zn1470  2.008   .     S
O1457  Zn1469  1.993   .     S
O1461  Zn1470  1.993   .     S
O1462  Zn1469  1.994   .     S
O1463  Zn1470  1.994   .     S
O1464  Zn1469  2.017   .     S
O1465  Zn1470  2.017   .     S
O1466  Zn1469  2.010   .     S
O1467  Zn1470  2.010   .     S
C1471  C1472   1.415   .     S
C1471  O1561   1.281   .     A
C1471  O1555   1.281   .     A
C1472  C1511   1.396   .     A
C1472  C1508   1.396   .     A
C1473  H1552   1.080   .     S
C1473  N1554   1.367   .     A
C1474  H1514   1.081   .     S
C1474  N1553   1.366   .     A
C1474  C887    1.415   1_565 S
C1475  N1554   1.366   .     A
C1475  H1515   1.081   .     S
C1476  N1553   1.365   .     A
C1476  H1516   1.081   .     S
C1476  C885    1.413   1_565 S
C1477  O1565   1.284   .     A
C1477  O1562   1.284   .     A
C1477  C1483   1.430   .     S
C1478  O1564   1.286   .     A
C1478  O1563   1.283   .     A
C1478  C1481   1.433   .     S
C1479  C1490   1.393   .     A
C1479  C1481   1.406   .     A
C1479  O1566   1.388   .     S
C1480  C1491   1.393   .     A
C1480  O1556   1.390   .     S
C1480  C1483   1.407   .     A
C1481  C1484   1.402   .     A
C1482  O1560   1.282   .     A
C1482  C1512   1.415   .     S
C1482  O1559   1.280   .     A
C1483  C1485   1.402   .     A
C1484  O1557   1.390   .     S
C1484  C1486   1.397   .     A
C1485  C1487   1.394   .     A
C1485  O1558   1.387   .     S
C1486  C1492   1.402   .     A
C1486  C1488   1.413   .     A
C1487  C1494   1.401   .     A
C1487  C1489   1.412   .     A
C1488  C1490   1.413   .     A
C1488  C607    1.399   1_556 S
C1489  C1491   1.413   .     A
C1490  C1504   1.401   .     A
C1491  C1493   1.401   .     A
C1492  H1513   1.083   .     S
C1492  C611    1.386   1_556 S
C1493  H1535   1.082   .     S
C1494  H1524   1.083   .     S
C1495  H1517   1.106   .     S
C1495  C1496   1.531   .     S
C1495  H1518   1.118   .     S
C1495  O1566   1.419   .     S
C1496  H1520   1.110   .     S
C1496  H1519   1.111   .     S
C1497  H1521   1.111   .     S
C1497  H1522   1.110   .     S
C1497  H1523   1.111   .     S
C1497  C908    1.527   1_565 S
C1498  H1526   1.115   .     S
C1498  C1499   1.532   .     S
C1498  H1525   1.109   .     S
C1498  O1556   1.418   .     S
C1499  C1500   1.527   .     S
C1499  H1527   1.111   .     S
C1499  H1528   1.111   .     S
C1500  H1529   1.111   .     S
C1500  H1726   1.110   1_455 S
C1500  H1727   1.111   1_455 S
C1501  C1502   1.536   .     S
C1501  H1532   1.111   .     S
C1501  O1557   1.421   .     S
C1501  H1533   1.111   .     S
C1502  H1534   1.104   .     S
C1502  H1536   1.111   .     S
C1502  C1503   1.527   .     S
C1503  H1539   1.111   .     S
C1503  H1537   1.111   .     S
C1503  H1538   1.110   .     S
C1504  H1546   1.082   .     S
C1504  C612    1.384   1_556 S
C1505  C1506   1.527   .     S
C1505  H1540   1.112   .     S
C1505  H1541   1.115   .     S
C1505  O1558   1.415   .     S
C1506  H1543   1.110   .     S
C1506  H1542   1.112   .     S
C1507  H1544   1.111   .     S
C1507  H1545   1.111   .     S
C1507  H1547   1.111   .     S
C1507  C918    1.527   1_565 S
C1508  H1548   1.083   .     S
C1508  C1706   1.368   1_455 S
C1509  C1512   1.396   .     A
C1509  H1549   1.083   .     S
C1509  C1609   1.368   .     S
C1510  H1550   1.083   .     S
C1510  C1512   1.397   .     A
C1510  C1606   1.368   .     S
C1511  H1551   1.084   .     S
C1511  C1705   1.368   1_455 S
H1530  C1598   1.110   .     S
H1531  C1598   1.111   .     S
N1553  Zn1567  2.008   .     S
N1554  Zn1568  2.008   .     S
O1555  Zn1567  1.993   .     S
O1559  Zn1568  1.993   .     S
O1560  Zn1567  1.994   .     S
O1561  Zn1568  1.994   .     S
O1562  Zn1567  2.017   .     S
O1563  Zn1568  2.017   .     S
O1564  Zn1567  2.010   .     S
O1565  Zn1568  2.010   .     S
C1569  C1570   1.415   .     S
C1569  O1659   1.281   .     A
C1569  O1653   1.281   .     A
C1570  C1609   1.396   .     A
C1570  C1606   1.396   .     A
C1571  H1650   1.080   .     S
C1571  N1652   1.367   .     A
C1572  H1612   1.081   .     S
C1572  N1651   1.366   .     A
C1572  C985    1.415   1_565 S
C1573  N1652   1.366   .     A
C1573  H1613   1.081   .     S
C1574  N1651   1.365   .     A
C1574  H1614   1.081   .     S
C1574  C983    1.413   1_565 S
C1575  O1663   1.284   .     A
C1575  O1660   1.284   .     A
C1575  C1581   1.430   .     S
C1576  O1662   1.286   .     A
C1576  O1661   1.283   .     A
C1576  C1579   1.433   .     S
C1577  C1588   1.393   .     A
C1577  C1579   1.406   .     A
C1577  O1664   1.388   .     S
C1578  C1589   1.393   .     A
C1578  O1654   1.390   .     S
C1578  C1581   1.407   .     A
C1579  C1582   1.402   .     A
C1580  O1658   1.282   .     A
C1580  C1610   1.415   .     S
C1580  O1657   1.280   .     A
C1581  C1583   1.402   .     A
C1582  O1655   1.390   .     S
C1582  C1584   1.397   .     A
C1583  C1585   1.394   .     A
C1583  O1656   1.387   .     S
C1584  C1590   1.402   .     A
C1584  C1586   1.413   .     A
C1585  C1592   1.401   .     A
C1585  C1587   1.412   .     A
C1586  C1588   1.413   .     A
C1586  C705    1.399   1_556 S
C1587  C1589   1.413   .     A
C1588  C1602   1.401   .     A
C1589  C1591   1.401   .     A
C1590  H1611   1.083   .     S
C1590  C709    1.386   1_556 S
C1591  H1633   1.082   .     S
C1592  H1622   1.083   .     S
C1593  H1615   1.106   .     S
C1593  C1594   1.531   .     S
C1593  H1616   1.118   .     S
C1593  O1664   1.419   .     S
C1594  H1618   1.110   .     S
C1594  H1617   1.111   .     S
C1595  H1619   1.111   .     S
C1595  H1620   1.110   .     S
C1595  H1621   1.111   .     S
C1595  C1006   1.527   1_565 S
C1596  H1624   1.115   .     S
C1596  C1597   1.532   .     S
C1596  H1623   1.109   .     S
C1596  O1654   1.418   .     S
C1597  C1598   1.527   .     S
C1597  H1625   1.111   .     S
C1597  H1626   1.111   .     S
C1598  H1627   1.111   .     S
C1599  C1600   1.536   .     S
C1599  H1630   1.111   .     S
C1599  O1655   1.421   .     S
C1599  H1631   1.111   .     S
C1600  H1632   1.104   .     S
C1600  H1634   1.111   .     S
C1600  C1601   1.527   .     S
C1601  H1637   1.111   .     S
C1601  H1635   1.111   .     S
C1601  H1636   1.110   .     S
C1602  H1644   1.082   .     S
C1602  C710    1.384   1_556 S
C1603  C1604   1.527   .     S
C1603  H1638   1.112   .     S
C1603  H1639   1.115   .     S
C1603  O1656   1.415   .     S
C1604  H1641   1.110   .     S
C1604  H1640   1.112   .     S
C1605  H1642   1.111   .     S
C1605  H1643   1.111   .     S
C1605  H1645   1.111   .     S
C1605  C1016   1.527   1_565 S
C1606  H1646   1.083   .     S
C1607  C1610   1.396   .     A
C1607  H1647   1.083   .     S
C1607  C1707   1.368   .     S
C1608  H1648   1.083   .     S
C1608  C1610   1.397   .     A
C1608  C1704   1.368   .     S
C1609  H1649   1.084   .     S
H1628  C1696   1.110   .     S
H1629  C1696   1.111   .     S
N1651  Zn1665  2.008   .     S
N1652  Zn1666  2.008   .     S
O1653  Zn1665  1.993   .     S
O1657  Zn1666  1.993   .     S
O1658  Zn1665  1.994   .     S
O1659  Zn1666  1.994   .     S
O1660  Zn1665  2.017   .     S
O1661  Zn1666  2.017   .     S
O1662  Zn1665  2.010   .     S
O1663  Zn1666  2.010   .     S
C1667  C1668   1.415   .     S
C1667  O1757   1.281   .     A
C1667  O1751   1.281   .     A
C1668  C1707   1.396   .     A
C1668  C1704   1.396   .     A
C1669  H1748   1.080   .     S
C1669  N1750   1.367   .     A
C1670  H1710   1.081   .     S
C1670  N1749   1.366   .     A
C1670  C1083   1.415   1_565 S
C1671  N1750   1.366   .     A
C1671  H1711   1.081   .     S
C1672  N1749   1.365   .     A
C1672  H1712   1.081   .     S
C1672  C1081   1.413   1_565 S
C1673  O1761   1.284   .     A
C1673  O1758   1.284   .     A
C1673  C1679   1.430   .     S
C1674  O1760   1.286   .     A
C1674  O1759   1.283   .     A
C1674  C1677   1.433   .     S
C1675  C1686   1.393   .     A
C1675  C1677   1.406   .     A
C1675  O1762   1.388   .     S
C1676  C1687   1.393   .     A
C1676  O1752   1.390   .     S
C1676  C1679   1.407   .     A
C1677  C1680   1.402   .     A
C1678  O1756   1.282   .     A
C1678  C1708   1.415   .     S
C1678  O1755   1.280   .     A
C1679  C1681   1.402   .     A
C1680  O1753   1.390   .     S
C1680  C1682   1.397   .     A
C1681  C1683   1.394   .     A
C1681  O1754   1.387   .     S
C1682  C1688   1.402   .     A
C1682  C1684   1.413   .     A
C1683  C1690   1.401   .     A
C1683  C1685   1.412   .     A
C1684  C1686   1.413   .     A
C1684  C803    1.399   1_556 S
C1685  C1687   1.413   .     A
C1686  C1700   1.401   .     A
C1687  C1689   1.401   .     A
C1688  H1709   1.083   .     S
C1688  C807    1.386   1_556 S
C1689  H1731   1.082   .     S
C1690  H1720   1.083   .     S
C1691  H1713   1.106   .     S
C1691  C1692   1.531   .     S
C1691  H1714   1.118   .     S
C1691  O1762   1.419   .     S
C1692  H1716   1.110   .     S
C1692  H1715   1.111   .     S
C1693  H1717   1.111   .     S
C1693  H1718   1.110   .     S
C1693  H1719   1.111   .     S
C1693  C1104   1.527   1_565 S
C1694  H1722   1.115   .     S
C1694  C1695   1.532   .     S
C1694  H1721   1.109   .     S
C1694  O1752   1.418   .     S
C1695  C1696   1.527   .     S
C1695  H1723   1.111   .     S
C1695  H1724   1.111   .     S
C1696  H1725   1.111   .     S
C1697  C1698   1.536   .     S
C1697  H1728   1.111   .     S
C1697  O1753   1.421   .     S
C1697  H1729   1.111   .     S
C1698  H1730   1.104   .     S
C1698  H1732   1.111   .     S
C1698  C1699   1.527   .     S
C1699  H1735   1.111   .     S
C1699  H1733   1.111   .     S
C1699  H1734   1.110   .     S
C1700  H1742   1.082   .     S
C1700  C808    1.384   1_556 S
C1701  C1702   1.527   .     S
C1701  H1736   1.112   .     S
C1701  H1737   1.115   .     S
C1701  O1754   1.415   .     S
C1702  H1739   1.110   .     S
C1702  H1738   1.112   .     S
C1703  H1740   1.111   .     S
C1703  H1741   1.111   .     S
C1703  H1743   1.111   .     S
C1703  C1114   1.527   1_565 S
C1704  H1744   1.083   .     S
C1705  C1708   1.396   .     A
C1705  H1745   1.083   .     S
C1705  C1511   1.368   1_655 S
C1706  H1746   1.083   .     S
C1706  C1708   1.397   .     A
C1706  C1508   1.368   1_655 S
C1707  H1747   1.084   .     S
H1726  C1500   1.110   1_655 S
H1727  C1500   1.111   1_655 S
N1749  Zn1763  2.008   .     S
N1750  Zn1764  2.008   .     S
O1751  Zn1763  1.993   .     S
O1755  Zn1764  1.993   .     S
O1756  Zn1763  1.994   .     S
O1757  Zn1764  1.994   .     S
O1758  Zn1763  2.017   .     S
O1759  Zn1764  2.017   .     S
O1760  Zn1763  2.010   .     S
O1761  Zn1764  2.010   .     S
