data_str_m1_o10_o16_pcu_sym.201
_audit_creation_date              2020-01-03
_audit_creation_method            'Materials Studio'
_symmetry_space_group_name_H-M    'P1'
_symmetry_Int_Tables_number       1
_symmetry_cell_setting            triclinic
loop_
_symmetry_equiv_pos_as_xyz
  x,y,z
_cell_length_a                    32.5606
_cell_length_b                    32.5279
_cell_length_c                    30.9425
_cell_angle_alpha                 95.9625
_cell_angle_beta                  74.4365
_cell_angle_gamma                 98.4019
loop_
_atom_site_label
_atom_site_type_symbol
_atom_site_fract_x
_atom_site_fract_y
_atom_site_fract_z
_atom_site_U_iso_or_equiv
_atom_site_adp_type
_atom_site_occupancy
C1     C     0.05279   0.15977   0.26001   0.00000  Uiso   1.00
C2     C     0.16793   0.15422   0.05802   0.00000  Uiso   1.00
C3     C     0.23826   0.13809   0.05705   0.00000  Uiso   1.00
C4     C     0.28089   0.17386   0.23993   0.00000  Uiso   1.00
C5     C     0.14060   0.19214   0.42039   0.00000  Uiso   1.00
C6     C     0.32680   0.17653   0.23563   0.00000  Uiso   1.00
C7     C     0.00747   0.15750   0.26415   0.00000  Uiso   1.00
C8     C     0.18066   0.32256   0.23613   0.00000  Uiso   1.00
C9     C     0.15233   0.01178   0.26408   0.00000  Uiso   1.00
C10    C     0.15638   0.05588   0.26015   0.00000  Uiso   1.00
C11    C     0.17669   0.27798   0.24006   0.00000  Uiso   1.00
C12    C     0.09032   0.20978   0.49089   0.00000  Uiso   1.00
C13    C     0.18566   0.14848   0.12919   0.00000  Uiso   1.00
C14    C     0.14916   0.18516   0.37097   0.00000  Uiso   1.00
C15    C     0.25303   0.14485   0.01154   0.00000  Uiso   1.00
C16    C     0.19599   0.14303   0.08036   0.00000  Uiso   1.00
C17    C     0.10058   0.20380   0.44438   0.00000  Uiso   1.00
C18    C     0.11040   0.21918   0.06262   0.00000  Uiso   1.00
C19    C     0.11861   0.20182   0.01517   0.00000  Uiso   1.00
C20    C     0.15698   0.18423   0.49189   0.00000  Uiso   1.00
C21    C     0.17017   0.18486   0.44422   0.00000  Uiso   1.00
C22    C     0.18321   0.16654   0.01360   0.00000  Uiso   1.00
C23    C     0.22582   0.15952   0.48949   0.00000  Uiso   1.00
C24    C     0.24046   0.16781   0.44418   0.00000  Uiso   1.00
C25    C     0.21302   0.17963   0.42180   0.00000  Uiso   1.00
H26    H     0.26024   0.13014   0.07478   0.00000  Uiso   1.00
H27    H     0.01595   0.19397   0.20915   0.00000  Uiso   1.00
H28    H     0.13507   0.24875   0.11240   0.00000  Uiso   1.00
H29    H     0.31895   0.14021   0.29111   0.00000  Uiso   1.00
H30    H     0.20681   0.00380   0.21032   0.00000  Uiso   1.00
H31    H     0.12593   0.33131   0.29011   0.00000  Uiso   1.00
H32    H     0.27297   0.16432   0.42509   0.00000  Uiso   1.00
H33    H     0.13485   0.15497   0.07664   0.00000  Uiso   1.00
H34    H     0.07736   0.20944   0.42699   0.00000  Uiso   1.00
H35    H     0.06057   0.22217   0.00791   0.00000  Uiso   1.00
H36    H     0.22658   0.18597   0.38693   0.00000  Uiso   1.00
I37    I     0.31775   0.13470   0.48016   0.00000  Uiso   1.00
O38    O     0.16667   0.16667   0.25000   0.00000  Uiso   1.00
O39    O     0.15451   0.12637   0.15459   0.00000  Uiso   1.00
O40    O     0.12940   0.20391   0.34968   0.00000  Uiso   1.00
O41    O     0.20824   0.17759   0.14606   0.00000  Uiso   1.00
O42    O     0.17451   0.15880   0.34968   0.00000  Uiso   1.00
O43    O     0.07360   0.21808   0.08633   0.00000  Uiso   1.00
O44    O     0.14471   0.23810   0.07976   0.00000  Uiso   1.00
O45    O     0.17930   0.08019   0.28214   0.00000  Uiso   1.00
O46    O     0.14632   0.26085   0.27014   0.00000  Uiso   1.00
O47    O     0.07412   0.13291   0.23413   0.00000  Uiso   1.00
O48    O     0.26693   0.19272   0.21361   0.00000  Uiso   1.00
O49    O     0.07071   0.18878   0.28213   0.00000  Uiso   1.00
O50    O     0.25491   0.15226   0.27014   0.00000  Uiso   1.00
O51    O     0.13760   0.06944   0.23413   0.00000  Uiso   1.00
O52    O     0.20345   0.25620   0.21361   0.00000  Uiso   1.00
Zn53   Zn    0.19338   0.13994   0.28734   0.00000  Uiso   1.00
Zn54   Zn    0.13379   0.12458   0.21876   0.00000  Uiso   1.00
Zn55   Zn    0.21056   0.19775   0.20657   0.00000  Uiso   1.00
Zn56   Zn    0.12893   0.20439   0.28734   0.00000  Uiso   1.00
C57    C     0.38612   0.15977   0.26001   0.00000  Uiso   1.00
C58    C     0.50126   0.15422   0.05802   0.00000  Uiso   1.00
C59    C     0.57159   0.13809   0.05705   0.00000  Uiso   1.00
C60    C     0.61423   0.17386   0.23993   0.00000  Uiso   1.00
C61    C     0.47393   0.19214   0.42039   0.00000  Uiso   1.00
C62    C     0.66013   0.17653   0.23563   0.00000  Uiso   1.00
C63    C     0.34080   0.15750   0.26415   0.00000  Uiso   1.00
C64    C     0.51399   0.32256   0.23613   0.00000  Uiso   1.00
C65    C     0.48567   0.01178   0.26408   0.00000  Uiso   1.00
C66    C     0.48971   0.05588   0.26015   0.00000  Uiso   1.00
C67    C     0.51002   0.27798   0.24006   0.00000  Uiso   1.00
C68    C     0.42365   0.20978   0.49089   0.00000  Uiso   1.00
C69    C     0.51899   0.14848   0.12919   0.00000  Uiso   1.00
C70    C     0.48249   0.18516   0.37097   0.00000  Uiso   1.00
C71    C     0.58636   0.14485   0.01154   0.00000  Uiso   1.00
C72    C     0.52932   0.14303   0.08036   0.00000  Uiso   1.00
C73    C     0.43391   0.20380   0.44438   0.00000  Uiso   1.00
C74    C     0.44373   0.21918   0.06262   0.00000  Uiso   1.00
C75    C     0.45194   0.20182   0.01517   0.00000  Uiso   1.00
C76    C     0.49031   0.18423   0.49189   0.00000  Uiso   1.00
C77    C     0.50350   0.18486   0.44422   0.00000  Uiso   1.00
C78    C     0.51655   0.16654   0.01360   0.00000  Uiso   1.00
C79    C     0.55916   0.15952   0.48949   0.00000  Uiso   1.00
C80    C     0.57380   0.16781   0.44418   0.00000  Uiso   1.00
C81    C     0.54635   0.17963   0.42180   0.00000  Uiso   1.00
H82    H     0.59358   0.13014   0.07478   0.00000  Uiso   1.00
H83    H     0.34929   0.19397   0.20915   0.00000  Uiso   1.00
H84    H     0.46840   0.24875   0.11240   0.00000  Uiso   1.00
H85    H     0.65228   0.14021   0.29111   0.00000  Uiso   1.00
H86    H     0.54014   0.00380   0.21032   0.00000  Uiso   1.00
H87    H     0.45927   0.33131   0.29011   0.00000  Uiso   1.00
H88    H     0.60630   0.16432   0.42509   0.00000  Uiso   1.00
H89    H     0.46818   0.15497   0.07664   0.00000  Uiso   1.00
H90    H     0.41070   0.20944   0.42699   0.00000  Uiso   1.00
H91    H     0.39390   0.22217   0.00791   0.00000  Uiso   1.00
H92    H     0.55991   0.18597   0.38693   0.00000  Uiso   1.00
I93    I     0.65108   0.13470   0.48016   0.00000  Uiso   1.00
O94    O     0.50000   0.16667   0.25000   0.00000  Uiso   1.00
O95    O     0.48784   0.12637   0.15459   0.00000  Uiso   1.00
O96    O     0.46274   0.20391   0.34968   0.00000  Uiso   1.00
O97    O     0.54157   0.17759   0.14606   0.00000  Uiso   1.00
O98    O     0.50785   0.15880   0.34968   0.00000  Uiso   1.00
O99    O     0.40693   0.21808   0.08633   0.00000  Uiso   1.00
O100   O     0.47804   0.23810   0.07976   0.00000  Uiso   1.00
O101   O     0.51264   0.08019   0.28214   0.00000  Uiso   1.00
O102   O     0.47965   0.26085   0.27014   0.00000  Uiso   1.00
O103   O     0.40745   0.13291   0.23413   0.00000  Uiso   1.00
O104   O     0.60026   0.19272   0.21361   0.00000  Uiso   1.00
O105   O     0.40405   0.18878   0.28213   0.00000  Uiso   1.00
O106   O     0.58824   0.15226   0.27014   0.00000  Uiso   1.00
O107   O     0.47093   0.06944   0.23413   0.00000  Uiso   1.00
O108   O     0.53678   0.25620   0.21361   0.00000  Uiso   1.00
Zn109  Zn    0.52672   0.13994   0.28734   0.00000  Uiso   1.00
Zn110  Zn    0.46713   0.12458   0.21876   0.00000  Uiso   1.00
Zn111  Zn    0.54389   0.19775   0.20657   0.00000  Uiso   1.00
Zn112  Zn    0.46226   0.20439   0.28734   0.00000  Uiso   1.00
C113   C     0.71945   0.15977   0.26001   0.00000  Uiso   1.00
C114   C     0.83459   0.15422   0.05802   0.00000  Uiso   1.00
C115   C     0.90492   0.13809   0.05705   0.00000  Uiso   1.00
C116   C     0.94756   0.17386   0.23993   0.00000  Uiso   1.00
C117   C     0.80727   0.19214   0.42039   0.00000  Uiso   1.00
C118   C     0.99346   0.17653   0.23563   0.00000  Uiso   1.00
C119   C     0.67414   0.15750   0.26415   0.00000  Uiso   1.00
C120   C     0.84732   0.32256   0.23613   0.00000  Uiso   1.00
C121   C     0.81900   0.01178   0.26408   0.00000  Uiso   1.00
C122   C     0.82304   0.05588   0.26015   0.00000  Uiso   1.00
C123   C     0.84336   0.27798   0.24006   0.00000  Uiso   1.00
C124   C     0.75699   0.20978   0.49089   0.00000  Uiso   1.00
C125   C     0.85233   0.14848   0.12919   0.00000  Uiso   1.00
C126   C     0.81583   0.18516   0.37097   0.00000  Uiso   1.00
C127   C     0.91969   0.14485   0.01154   0.00000  Uiso   1.00
C128   C     0.86265   0.14303   0.08036   0.00000  Uiso   1.00
C129   C     0.76725   0.20380   0.44438   0.00000  Uiso   1.00
C130   C     0.77707   0.21918   0.06262   0.00000  Uiso   1.00
C131   C     0.78527   0.20182   0.01517   0.00000  Uiso   1.00
C132   C     0.82365   0.18423   0.49189   0.00000  Uiso   1.00
C133   C     0.83683   0.18486   0.44422   0.00000  Uiso   1.00
C134   C     0.84988   0.16654   0.01360   0.00000  Uiso   1.00
C135   C     0.89249   0.15952   0.48949   0.00000  Uiso   1.00
C136   C     0.90713   0.16781   0.44418   0.00000  Uiso   1.00
C137   C     0.87969   0.17963   0.42180   0.00000  Uiso   1.00
H138   H     0.92691   0.13014   0.07478   0.00000  Uiso   1.00
H139   H     0.68262   0.19397   0.20915   0.00000  Uiso   1.00
H140   H     0.80173   0.24875   0.11240   0.00000  Uiso   1.00
H141   H     0.98561   0.14021   0.29111   0.00000  Uiso   1.00
H142   H     0.87347   0.00380   0.21032   0.00000  Uiso   1.00
H143   H     0.79260   0.33131   0.29011   0.00000  Uiso   1.00
H144   H     0.93963   0.16432   0.42509   0.00000  Uiso   1.00
H145   H     0.80151   0.15497   0.07664   0.00000  Uiso   1.00
H146   H     0.74403   0.20944   0.42699   0.00000  Uiso   1.00
H147   H     0.72723   0.22217   0.00791   0.00000  Uiso   1.00
H148   H     0.89325   0.18597   0.38693   0.00000  Uiso   1.00
I149   I     0.98442   0.13470   0.48016   0.00000  Uiso   1.00
O150   O     0.83333   0.16667   0.25000   0.00000  Uiso   1.00
O151   O     0.82118   0.12637   0.15459   0.00000  Uiso   1.00
O152   O     0.79607   0.20391   0.34968   0.00000  Uiso   1.00
O153   O     0.87491   0.17759   0.14606   0.00000  Uiso   1.00
O154   O     0.84118   0.15880   0.34968   0.00000  Uiso   1.00
O155   O     0.74026   0.21808   0.08633   0.00000  Uiso   1.00
O156   O     0.81137   0.23810   0.07976   0.00000  Uiso   1.00
O157   O     0.84597   0.08019   0.28214   0.00000  Uiso   1.00
O158   O     0.81298   0.26085   0.27014   0.00000  Uiso   1.00
O159   O     0.74078   0.13291   0.23413   0.00000  Uiso   1.00
O160   O     0.93360   0.19272   0.21361   0.00000  Uiso   1.00
O161   O     0.73738   0.18878   0.28213   0.00000  Uiso   1.00
O162   O     0.92158   0.15226   0.27014   0.00000  Uiso   1.00
O163   O     0.80426   0.06944   0.23413   0.00000  Uiso   1.00
O164   O     0.87012   0.25620   0.21361   0.00000  Uiso   1.00
Zn165  Zn    0.86005   0.13994   0.28734   0.00000  Uiso   1.00
Zn166  Zn    0.80046   0.12458   0.21876   0.00000  Uiso   1.00
Zn167  Zn    0.87723   0.19775   0.20657   0.00000  Uiso   1.00
Zn168  Zn    0.79560   0.20439   0.28734   0.00000  Uiso   1.00
C169   C     0.05279   0.49311   0.26001   0.00000  Uiso   1.00
C170   C     0.16793   0.48755   0.05802   0.00000  Uiso   1.00
C171   C     0.23826   0.47142   0.05705   0.00000  Uiso   1.00
C172   C     0.28089   0.50719   0.23993   0.00000  Uiso   1.00
C173   C     0.14060   0.52547   0.42039   0.00000  Uiso   1.00
C174   C     0.32680   0.50986   0.23563   0.00000  Uiso   1.00
C175   C     0.00747   0.49083   0.26415   0.00000  Uiso   1.00
C176   C     0.18066   0.65589   0.23613   0.00000  Uiso   1.00
C177   C     0.15233   0.34512   0.26408   0.00000  Uiso   1.00
C178   C     0.15638   0.38921   0.26015   0.00000  Uiso   1.00
C179   C     0.17669   0.61131   0.24006   0.00000  Uiso   1.00
C180   C     0.09032   0.54311   0.49089   0.00000  Uiso   1.00
C181   C     0.18566   0.48182   0.12919   0.00000  Uiso   1.00
C182   C     0.14916   0.51849   0.37097   0.00000  Uiso   1.00
C183   C     0.25303   0.47818   0.01154   0.00000  Uiso   1.00
C184   C     0.19599   0.47636   0.08036   0.00000  Uiso   1.00
C185   C     0.10058   0.53713   0.44438   0.00000  Uiso   1.00
C186   C     0.11040   0.55252   0.06262   0.00000  Uiso   1.00
C187   C     0.11861   0.53515   0.01517   0.00000  Uiso   1.00
C188   C     0.15698   0.51756   0.49189   0.00000  Uiso   1.00
C189   C     0.17017   0.51820   0.44422   0.00000  Uiso   1.00
C190   C     0.18321   0.49988   0.01360   0.00000  Uiso   1.00
C191   C     0.22582   0.49285   0.48949   0.00000  Uiso   1.00
C192   C     0.24046   0.50114   0.44418   0.00000  Uiso   1.00
C193   C     0.21302   0.51296   0.42180   0.00000  Uiso   1.00
H194   H     0.26024   0.46347   0.07478   0.00000  Uiso   1.00
H195   H     0.01595   0.52730   0.20915   0.00000  Uiso   1.00
H196   H     0.13507   0.58209   0.11240   0.00000  Uiso   1.00
H197   H     0.31895   0.47355   0.29111   0.00000  Uiso   1.00
H198   H     0.20681   0.33713   0.21032   0.00000  Uiso   1.00
H199   H     0.12593   0.66464   0.29011   0.00000  Uiso   1.00
H200   H     0.27297   0.49765   0.42509   0.00000  Uiso   1.00
H201   H     0.13485   0.48831   0.07664   0.00000  Uiso   1.00
H202   H     0.07736   0.54278   0.42699   0.00000  Uiso   1.00
H203   H     0.06057   0.55550   0.00791   0.00000  Uiso   1.00
H204   H     0.22658   0.51931   0.38693   0.00000  Uiso   1.00
I205   I     0.31775   0.46803   0.48016   0.00000  Uiso   1.00
O206   O     0.16667   0.50000   0.25000   0.00000  Uiso   1.00
O207   O     0.15451   0.45970   0.15459   0.00000  Uiso   1.00
O208   O     0.12940   0.53724   0.34968   0.00000  Uiso   1.00
O209   O     0.20824   0.51092   0.14606   0.00000  Uiso   1.00
O210   O     0.17451   0.49213   0.34968   0.00000  Uiso   1.00
O211   O     0.07360   0.55141   0.08633   0.00000  Uiso   1.00
O212   O     0.14471   0.57143   0.07976   0.00000  Uiso   1.00
O213   O     0.17930   0.41352   0.28214   0.00000  Uiso   1.00
O214   O     0.14632   0.59418   0.27014   0.00000  Uiso   1.00
O215   O     0.07412   0.46625   0.23413   0.00000  Uiso   1.00
O216   O     0.26693   0.52605   0.21361   0.00000  Uiso   1.00
O217   O     0.07071   0.52211   0.28213   0.00000  Uiso   1.00
O218   O     0.25491   0.48559   0.27014   0.00000  Uiso   1.00
O219   O     0.13760   0.40277   0.23413   0.00000  Uiso   1.00
O220   O     0.20345   0.58953   0.21361   0.00000  Uiso   1.00
Zn221  Zn    0.19338   0.47327   0.28734   0.00000  Uiso   1.00
Zn222  Zn    0.13379   0.45791   0.21876   0.00000  Uiso   1.00
Zn223  Zn    0.21056   0.53109   0.20657   0.00000  Uiso   1.00
Zn224  Zn    0.12893   0.53773   0.28734   0.00000  Uiso   1.00
C225   C     0.38612   0.49311   0.26001   0.00000  Uiso   1.00
C226   C     0.50126   0.48755   0.05802   0.00000  Uiso   1.00
C227   C     0.57159   0.47142   0.05705   0.00000  Uiso   1.00
C228   C     0.61423   0.50719   0.23993   0.00000  Uiso   1.00
C229   C     0.47393   0.52547   0.42039   0.00000  Uiso   1.00
C230   C     0.66013   0.50986   0.23563   0.00000  Uiso   1.00
C231   C     0.34080   0.49083   0.26415   0.00000  Uiso   1.00
C232   C     0.51399   0.65589   0.23613   0.00000  Uiso   1.00
C233   C     0.48567   0.34512   0.26408   0.00000  Uiso   1.00
C234   C     0.48971   0.38921   0.26015   0.00000  Uiso   1.00
C235   C     0.51002   0.61131   0.24006   0.00000  Uiso   1.00
C236   C     0.42365   0.54311   0.49089   0.00000  Uiso   1.00
C237   C     0.51899   0.48182   0.12919   0.00000  Uiso   1.00
C238   C     0.48249   0.51849   0.37097   0.00000  Uiso   1.00
C239   C     0.58636   0.47818   0.01154   0.00000  Uiso   1.00
C240   C     0.52932   0.47636   0.08036   0.00000  Uiso   1.00
C241   C     0.43391   0.53713   0.44438   0.00000  Uiso   1.00
C242   C     0.44373   0.55252   0.06262   0.00000  Uiso   1.00
C243   C     0.45194   0.53515   0.01517   0.00000  Uiso   1.00
C244   C     0.49031   0.51756   0.49189   0.00000  Uiso   1.00
C245   C     0.50350   0.51820   0.44422   0.00000  Uiso   1.00
C246   C     0.51655   0.49988   0.01360   0.00000  Uiso   1.00
C247   C     0.55916   0.49285   0.48949   0.00000  Uiso   1.00
C248   C     0.57380   0.50114   0.44418   0.00000  Uiso   1.00
C249   C     0.54635   0.51296   0.42180   0.00000  Uiso   1.00
H250   H     0.59358   0.46347   0.07478   0.00000  Uiso   1.00
H251   H     0.34929   0.52730   0.20915   0.00000  Uiso   1.00
H252   H     0.46840   0.58209   0.11240   0.00000  Uiso   1.00
H253   H     0.65228   0.47355   0.29111   0.00000  Uiso   1.00
H254   H     0.54014   0.33713   0.21032   0.00000  Uiso   1.00
H255   H     0.45927   0.66464   0.29011   0.00000  Uiso   1.00
H256   H     0.60630   0.49765   0.42509   0.00000  Uiso   1.00
H257   H     0.46818   0.48831   0.07664   0.00000  Uiso   1.00
H258   H     0.41070   0.54278   0.42699   0.00000  Uiso   1.00
H259   H     0.39390   0.55550   0.00791   0.00000  Uiso   1.00
H260   H     0.55991   0.51931   0.38693   0.00000  Uiso   1.00
I261   I     0.65108   0.46803   0.48016   0.00000  Uiso   1.00
O262   O     0.50000   0.50000   0.25000   0.00000  Uiso   1.00
O263   O     0.48784   0.45970   0.15459   0.00000  Uiso   1.00
O264   O     0.46274   0.53724   0.34968   0.00000  Uiso   1.00
O265   O     0.54157   0.51092   0.14606   0.00000  Uiso   1.00
O266   O     0.50785   0.49213   0.34968   0.00000  Uiso   1.00
O267   O     0.40693   0.55141   0.08633   0.00000  Uiso   1.00
O268   O     0.47804   0.57143   0.07976   0.00000  Uiso   1.00
O269   O     0.51264   0.41352   0.28214   0.00000  Uiso   1.00
O270   O     0.47965   0.59418   0.27014   0.00000  Uiso   1.00
O271   O     0.40745   0.46625   0.23413   0.00000  Uiso   1.00
O272   O     0.60026   0.52605   0.21361   0.00000  Uiso   1.00
O273   O     0.40405   0.52211   0.28213   0.00000  Uiso   1.00
O274   O     0.58824   0.48559   0.27014   0.00000  Uiso   1.00
O275   O     0.47093   0.40277   0.23413   0.00000  Uiso   1.00
O276   O     0.53678   0.58953   0.21361   0.00000  Uiso   1.00
Zn277  Zn    0.52672   0.47327   0.28734   0.00000  Uiso   1.00
Zn278  Zn    0.46713   0.45791   0.21876   0.00000  Uiso   1.00
Zn279  Zn    0.54389   0.53109   0.20657   0.00000  Uiso   1.00
Zn280  Zn    0.46226   0.53773   0.28734   0.00000  Uiso   1.00
C281   C     0.71945   0.49311   0.26001   0.00000  Uiso   1.00
C282   C     0.83459   0.48755   0.05802   0.00000  Uiso   1.00
C283   C     0.90492   0.47142   0.05705   0.00000  Uiso   1.00
C284   C     0.94756   0.50719   0.23993   0.00000  Uiso   1.00
C285   C     0.80727   0.52547   0.42039   0.00000  Uiso   1.00
C286   C     0.99346   0.50986   0.23563   0.00000  Uiso   1.00
C287   C     0.67414   0.49083   0.26415   0.00000  Uiso   1.00
C288   C     0.84732   0.65589   0.23613   0.00000  Uiso   1.00
C289   C     0.81900   0.34512   0.26408   0.00000  Uiso   1.00
C290   C     0.82304   0.38921   0.26015   0.00000  Uiso   1.00
C291   C     0.84336   0.61131   0.24006   0.00000  Uiso   1.00
C292   C     0.75699   0.54311   0.49089   0.00000  Uiso   1.00
C293   C     0.85233   0.48182   0.12919   0.00000  Uiso   1.00
C294   C     0.81583   0.51849   0.37097   0.00000  Uiso   1.00
C295   C     0.91969   0.47818   0.01154   0.00000  Uiso   1.00
C296   C     0.86265   0.47636   0.08036   0.00000  Uiso   1.00
C297   C     0.76725   0.53713   0.44438   0.00000  Uiso   1.00
C298   C     0.77707   0.55252   0.06262   0.00000  Uiso   1.00
C299   C     0.78527   0.53515   0.01517   0.00000  Uiso   1.00
C300   C     0.82365   0.51756   0.49189   0.00000  Uiso   1.00
C301   C     0.83683   0.51820   0.44422   0.00000  Uiso   1.00
C302   C     0.84988   0.49988   0.01360   0.00000  Uiso   1.00
C303   C     0.89249   0.49285   0.48949   0.00000  Uiso   1.00
C304   C     0.90713   0.50114   0.44418   0.00000  Uiso   1.00
C305   C     0.87969   0.51296   0.42180   0.00000  Uiso   1.00
H306   H     0.92691   0.46347   0.07478   0.00000  Uiso   1.00
H307   H     0.68262   0.52730   0.20915   0.00000  Uiso   1.00
H308   H     0.80173   0.58209   0.11240   0.00000  Uiso   1.00
H309   H     0.98561   0.47355   0.29111   0.00000  Uiso   1.00
H310   H     0.87347   0.33713   0.21032   0.00000  Uiso   1.00
H311   H     0.79260   0.66464   0.29011   0.00000  Uiso   1.00
H312   H     0.93963   0.49765   0.42509   0.00000  Uiso   1.00
H313   H     0.80151   0.48831   0.07664   0.00000  Uiso   1.00
H314   H     0.74403   0.54278   0.42699   0.00000  Uiso   1.00
H315   H     0.72723   0.55550   0.00791   0.00000  Uiso   1.00
H316   H     0.89325   0.51931   0.38693   0.00000  Uiso   1.00
I317   I     0.98442   0.46803   0.48016   0.00000  Uiso   1.00
O318   O     0.83333   0.50000   0.25000   0.00000  Uiso   1.00
O319   O     0.82118   0.45970   0.15459   0.00000  Uiso   1.00
O320   O     0.79607   0.53724   0.34968   0.00000  Uiso   1.00
O321   O     0.87491   0.51092   0.14606   0.00000  Uiso   1.00
O322   O     0.84118   0.49213   0.34968   0.00000  Uiso   1.00
O323   O     0.74026   0.55141   0.08633   0.00000  Uiso   1.00
O324   O     0.81137   0.57143   0.07976   0.00000  Uiso   1.00
O325   O     0.84597   0.41352   0.28214   0.00000  Uiso   1.00
O326   O     0.81298   0.59418   0.27014   0.00000  Uiso   1.00
O327   O     0.74078   0.46625   0.23413   0.00000  Uiso   1.00
O328   O     0.93360   0.52605   0.21361   0.00000  Uiso   1.00
O329   O     0.73738   0.52211   0.28213   0.00000  Uiso   1.00
O330   O     0.92158   0.48559   0.27014   0.00000  Uiso   1.00
O331   O     0.80426   0.40277   0.23413   0.00000  Uiso   1.00
O332   O     0.87012   0.58953   0.21361   0.00000  Uiso   1.00
Zn333  Zn    0.86005   0.47327   0.28734   0.00000  Uiso   1.00
Zn334  Zn    0.80046   0.45791   0.21876   0.00000  Uiso   1.00
Zn335  Zn    0.87723   0.53109   0.20657   0.00000  Uiso   1.00
Zn336  Zn    0.79560   0.53773   0.28734   0.00000  Uiso   1.00
C337   C     0.05279   0.82644   0.26001   0.00000  Uiso   1.00
C338   C     0.16793   0.82088   0.05802   0.00000  Uiso   1.00
C339   C     0.23826   0.80475   0.05705   0.00000  Uiso   1.00
C340   C     0.28089   0.84053   0.23993   0.00000  Uiso   1.00
C341   C     0.14060   0.85881   0.42039   0.00000  Uiso   1.00
C342   C     0.32680   0.84319   0.23563   0.00000  Uiso   1.00
C343   C     0.00747   0.82417   0.26415   0.00000  Uiso   1.00
C344   C     0.18066   0.98923   0.23613   0.00000  Uiso   1.00
C345   C     0.15233   0.67845   0.26408   0.00000  Uiso   1.00
C346   C     0.15638   0.72254   0.26015   0.00000  Uiso   1.00
C347   C     0.17669   0.94465   0.24006   0.00000  Uiso   1.00
C348   C     0.09032   0.87645   0.49089   0.00000  Uiso   1.00
C349   C     0.18566   0.81515   0.12919   0.00000  Uiso   1.00
C350   C     0.14916   0.85182   0.37097   0.00000  Uiso   1.00
C351   C     0.25303   0.81152   0.01154   0.00000  Uiso   1.00
C352   C     0.19599   0.80970   0.08036   0.00000  Uiso   1.00
C353   C     0.10058   0.87047   0.44438   0.00000  Uiso   1.00
C354   C     0.11040   0.88585   0.06262   0.00000  Uiso   1.00
C355   C     0.11861   0.86848   0.01517   0.00000  Uiso   1.00
C356   C     0.15698   0.85090   0.49189   0.00000  Uiso   1.00
C357   C     0.17017   0.85153   0.44422   0.00000  Uiso   1.00
C358   C     0.18321   0.83321   0.01360   0.00000  Uiso   1.00
C359   C     0.22582   0.82618   0.48949   0.00000  Uiso   1.00
C360   C     0.24046   0.83448   0.44418   0.00000  Uiso   1.00
C361   C     0.21302   0.84629   0.42180   0.00000  Uiso   1.00
H362   H     0.26024   0.79680   0.07478   0.00000  Uiso   1.00
H363   H     0.01595   0.86064   0.20915   0.00000  Uiso   1.00
H364   H     0.13507   0.91542   0.11240   0.00000  Uiso   1.00
H365   H     0.31895   0.80688   0.29111   0.00000  Uiso   1.00
H366   H     0.20681   0.67046   0.21032   0.00000  Uiso   1.00
H367   H     0.12593   0.99798   0.29011   0.00000  Uiso   1.00
H368   H     0.27297   0.83098   0.42509   0.00000  Uiso   1.00
H369   H     0.13485   0.82164   0.07664   0.00000  Uiso   1.00
H370   H     0.07736   0.87611   0.42699   0.00000  Uiso   1.00
H371   H     0.06057   0.88884   0.00791   0.00000  Uiso   1.00
H372   H     0.22658   0.85264   0.38693   0.00000  Uiso   1.00
I373   I     0.31775   0.80136   0.48016   0.00000  Uiso   1.00
O374   O     0.16667   0.83333   0.25000   0.00000  Uiso   1.00
O375   O     0.15451   0.79304   0.15459   0.00000  Uiso   1.00
O376   O     0.12940   0.87058   0.34968   0.00000  Uiso   1.00
O377   O     0.20824   0.84425   0.14606   0.00000  Uiso   1.00
O378   O     0.17451   0.82546   0.34968   0.00000  Uiso   1.00
O379   O     0.07360   0.88474   0.08633   0.00000  Uiso   1.00
O380   O     0.14471   0.90476   0.07976   0.00000  Uiso   1.00
O381   O     0.17930   0.74686   0.28214   0.00000  Uiso   1.00
O382   O     0.14632   0.92751   0.27014   0.00000  Uiso   1.00
O383   O     0.07412   0.79958   0.23413   0.00000  Uiso   1.00
O384   O     0.26693   0.85939   0.21361   0.00000  Uiso   1.00
O385   O     0.07071   0.85544   0.28213   0.00000  Uiso   1.00
O386   O     0.25491   0.81892   0.27014   0.00000  Uiso   1.00
O387   O     0.13760   0.73610   0.23413   0.00000  Uiso   1.00
O388   O     0.20345   0.92286   0.21361   0.00000  Uiso   1.00
Zn389  Zn    0.19338   0.80661   0.28734   0.00000  Uiso   1.00
Zn390  Zn    0.13379   0.79124   0.21876   0.00000  Uiso   1.00
Zn391  Zn    0.21056   0.86442   0.20657   0.00000  Uiso   1.00
Zn392  Zn    0.12893   0.87106   0.28734   0.00000  Uiso   1.00
C393   C     0.38612   0.82644   0.26001   0.00000  Uiso   1.00
C394   C     0.50126   0.82088   0.05802   0.00000  Uiso   1.00
C395   C     0.57159   0.80475   0.05705   0.00000  Uiso   1.00
C396   C     0.61423   0.84053   0.23993   0.00000  Uiso   1.00
C397   C     0.47393   0.85881   0.42039   0.00000  Uiso   1.00
C398   C     0.66013   0.84319   0.23563   0.00000  Uiso   1.00
C399   C     0.34080   0.82417   0.26415   0.00000  Uiso   1.00
C400   C     0.51399   0.98923   0.23613   0.00000  Uiso   1.00
C401   C     0.48567   0.67845   0.26408   0.00000  Uiso   1.00
C402   C     0.48971   0.72254   0.26015   0.00000  Uiso   1.00
C403   C     0.51002   0.94465   0.24006   0.00000  Uiso   1.00
C404   C     0.42365   0.87645   0.49089   0.00000  Uiso   1.00
C405   C     0.51899   0.81515   0.12919   0.00000  Uiso   1.00
C406   C     0.48249   0.85182   0.37097   0.00000  Uiso   1.00
C407   C     0.58636   0.81152   0.01154   0.00000  Uiso   1.00
C408   C     0.52932   0.80970   0.08036   0.00000  Uiso   1.00
C409   C     0.43391   0.87047   0.44438   0.00000  Uiso   1.00
C410   C     0.44373   0.88585   0.06262   0.00000  Uiso   1.00
C411   C     0.45194   0.86848   0.01517   0.00000  Uiso   1.00
C412   C     0.49031   0.85090   0.49189   0.00000  Uiso   1.00
C413   C     0.50350   0.85153   0.44422   0.00000  Uiso   1.00
C414   C     0.51655   0.83321   0.01360   0.00000  Uiso   1.00
C415   C     0.55916   0.82618   0.48949   0.00000  Uiso   1.00
C416   C     0.57380   0.83448   0.44418   0.00000  Uiso   1.00
C417   C     0.54635   0.84629   0.42180   0.00000  Uiso   1.00
H418   H     0.59358   0.79680   0.07478   0.00000  Uiso   1.00
H419   H     0.34929   0.86064   0.20915   0.00000  Uiso   1.00
H420   H     0.46840   0.91542   0.11240   0.00000  Uiso   1.00
H421   H     0.65228   0.80688   0.29111   0.00000  Uiso   1.00
H422   H     0.54014   0.67046   0.21032   0.00000  Uiso   1.00
H423   H     0.45927   0.99798   0.29011   0.00000  Uiso   1.00
H424   H     0.60630   0.83098   0.42509   0.00000  Uiso   1.00
H425   H     0.46818   0.82164   0.07664   0.00000  Uiso   1.00
H426   H     0.41070   0.87611   0.42699   0.00000  Uiso   1.00
H427   H     0.39390   0.88884   0.00791   0.00000  Uiso   1.00
H428   H     0.55991   0.85264   0.38693   0.00000  Uiso   1.00
I429   I     0.65108   0.80136   0.48016   0.00000  Uiso   1.00
O430   O     0.50000   0.83333   0.25000   0.00000  Uiso   1.00
O431   O     0.48784   0.79304   0.15459   0.00000  Uiso   1.00
O432   O     0.46274   0.87058   0.34968   0.00000  Uiso   1.00
O433   O     0.54157   0.84425   0.14606   0.00000  Uiso   1.00
O434   O     0.50785   0.82546   0.34968   0.00000  Uiso   1.00
O435   O     0.40693   0.88474   0.08633   0.00000  Uiso   1.00
O436   O     0.47804   0.90476   0.07976   0.00000  Uiso   1.00
O437   O     0.51264   0.74686   0.28214   0.00000  Uiso   1.00
O438   O     0.47965   0.92751   0.27014   0.00000  Uiso   1.00
O439   O     0.40745   0.79958   0.23413   0.00000  Uiso   1.00
O440   O     0.60026   0.85939   0.21361   0.00000  Uiso   1.00
O441   O     0.40405   0.85544   0.28213   0.00000  Uiso   1.00
O442   O     0.58824   0.81892   0.27014   0.00000  Uiso   1.00
O443   O     0.47093   0.73610   0.23413   0.00000  Uiso   1.00
O444   O     0.53678   0.92286   0.21361   0.00000  Uiso   1.00
Zn445  Zn    0.52672   0.80661   0.28734   0.00000  Uiso   1.00
Zn446  Zn    0.46713   0.79124   0.21876   0.00000  Uiso   1.00
Zn447  Zn    0.54389   0.86442   0.20657   0.00000  Uiso   1.00
Zn448  Zn    0.46226   0.87106   0.28734   0.00000  Uiso   1.00
C449   C     0.71945   0.82644   0.26001   0.00000  Uiso   1.00
C450   C     0.83459   0.82088   0.05802   0.00000  Uiso   1.00
C451   C     0.90492   0.80475   0.05705   0.00000  Uiso   1.00
C452   C     0.94756   0.84053   0.23993   0.00000  Uiso   1.00
C453   C     0.80727   0.85881   0.42039   0.00000  Uiso   1.00
C454   C     0.99346   0.84319   0.23563   0.00000  Uiso   1.00
C455   C     0.67414   0.82417   0.26415   0.00000  Uiso   1.00
C456   C     0.84732   0.98923   0.23613   0.00000  Uiso   1.00
C457   C     0.81900   0.67845   0.26408   0.00000  Uiso   1.00
C458   C     0.82304   0.72254   0.26015   0.00000  Uiso   1.00
C459   C     0.84336   0.94465   0.24006   0.00000  Uiso   1.00
C460   C     0.75699   0.87645   0.49089   0.00000  Uiso   1.00
C461   C     0.85233   0.81515   0.12919   0.00000  Uiso   1.00
C462   C     0.81583   0.85182   0.37097   0.00000  Uiso   1.00
C463   C     0.91969   0.81152   0.01154   0.00000  Uiso   1.00
C464   C     0.86265   0.80970   0.08036   0.00000  Uiso   1.00
C465   C     0.76725   0.87047   0.44438   0.00000  Uiso   1.00
C466   C     0.77707   0.88585   0.06262   0.00000  Uiso   1.00
C467   C     0.78527   0.86848   0.01517   0.00000  Uiso   1.00
C468   C     0.82365   0.85090   0.49189   0.00000  Uiso   1.00
C469   C     0.83683   0.85153   0.44422   0.00000  Uiso   1.00
C470   C     0.84988   0.83321   0.01360   0.00000  Uiso   1.00
C471   C     0.89249   0.82618   0.48949   0.00000  Uiso   1.00
C472   C     0.90713   0.83448   0.44418   0.00000  Uiso   1.00
C473   C     0.87969   0.84629   0.42180   0.00000  Uiso   1.00
H474   H     0.92691   0.79680   0.07478   0.00000  Uiso   1.00
H475   H     0.68262   0.86064   0.20915   0.00000  Uiso   1.00
H476   H     0.80173   0.91542   0.11240   0.00000  Uiso   1.00
H477   H     0.98561   0.80688   0.29111   0.00000  Uiso   1.00
H478   H     0.87347   0.67046   0.21032   0.00000  Uiso   1.00
H479   H     0.79260   0.99798   0.29011   0.00000  Uiso   1.00
H480   H     0.93963   0.83098   0.42509   0.00000  Uiso   1.00
H481   H     0.80151   0.82164   0.07664   0.00000  Uiso   1.00
H482   H     0.74403   0.87611   0.42699   0.00000  Uiso   1.00
H483   H     0.72723   0.88884   0.00791   0.00000  Uiso   1.00
H484   H     0.89325   0.85264   0.38693   0.00000  Uiso   1.00
I485   I     0.98442   0.80136   0.48016   0.00000  Uiso   1.00
O486   O     0.83333   0.83333   0.25000   0.00000  Uiso   1.00
O487   O     0.82118   0.79304   0.15459   0.00000  Uiso   1.00
O488   O     0.79607   0.87058   0.34968   0.00000  Uiso   1.00
O489   O     0.87491   0.84425   0.14606   0.00000  Uiso   1.00
O490   O     0.84118   0.82546   0.34968   0.00000  Uiso   1.00
O491   O     0.74026   0.88474   0.08633   0.00000  Uiso   1.00
O492   O     0.81137   0.90476   0.07976   0.00000  Uiso   1.00
O493   O     0.84597   0.74686   0.28214   0.00000  Uiso   1.00
O494   O     0.81298   0.92751   0.27014   0.00000  Uiso   1.00
O495   O     0.74078   0.79958   0.23413   0.00000  Uiso   1.00
O496   O     0.93360   0.85939   0.21361   0.00000  Uiso   1.00
O497   O     0.73738   0.85544   0.28213   0.00000  Uiso   1.00
O498   O     0.92158   0.81892   0.27014   0.00000  Uiso   1.00
O499   O     0.80426   0.73610   0.23413   0.00000  Uiso   1.00
O500   O     0.87012   0.92286   0.21361   0.00000  Uiso   1.00
Zn501  Zn    0.86005   0.80661   0.28734   0.00000  Uiso   1.00
Zn502  Zn    0.80046   0.79124   0.21876   0.00000  Uiso   1.00
Zn503  Zn    0.87723   0.86442   0.20657   0.00000  Uiso   1.00
Zn504  Zn    0.79560   0.87106   0.28734   0.00000  Uiso   1.00
C505   C     0.05279   0.15977   0.76001   0.00000  Uiso   1.00
C506   C     0.16793   0.15422   0.55802   0.00000  Uiso   1.00
C507   C     0.23826   0.13809   0.55705   0.00000  Uiso   1.00
C508   C     0.28089   0.17386   0.73993   0.00000  Uiso   1.00
C509   C     0.14060   0.19214   0.92039   0.00000  Uiso   1.00
C510   C     0.32680   0.17653   0.73563   0.00000  Uiso   1.00
C511   C     0.00747   0.15750   0.76415   0.00000  Uiso   1.00
C512   C     0.18066   0.32256   0.73613   0.00000  Uiso   1.00
C513   C     0.15233   0.01178   0.76408   0.00000  Uiso   1.00
C514   C     0.15638   0.05588   0.76015   0.00000  Uiso   1.00
C515   C     0.17669   0.27798   0.74006   0.00000  Uiso   1.00
C516   C     0.09032   0.20978   0.99089   0.00000  Uiso   1.00
C517   C     0.18566   0.14848   0.62919   0.00000  Uiso   1.00
C518   C     0.14916   0.18516   0.87097   0.00000  Uiso   1.00
C519   C     0.25303   0.14485   0.51154   0.00000  Uiso   1.00
C520   C     0.19599   0.14303   0.58036   0.00000  Uiso   1.00
C521   C     0.10058   0.20380   0.94438   0.00000  Uiso   1.00
C522   C     0.11040   0.21918   0.56262   0.00000  Uiso   1.00
C523   C     0.11861   0.20182   0.51517   0.00000  Uiso   1.00
C524   C     0.15698   0.18423   0.99189   0.00000  Uiso   1.00
C525   C     0.17017   0.18486   0.94422   0.00000  Uiso   1.00
C526   C     0.18321   0.16654   0.51360   0.00000  Uiso   1.00
C527   C     0.22582   0.15952   0.98949   0.00000  Uiso   1.00
C528   C     0.24046   0.16781   0.94418   0.00000  Uiso   1.00
C529   C     0.21302   0.17963   0.92180   0.00000  Uiso   1.00
H530   H     0.26024   0.13014   0.57478   0.00000  Uiso   1.00
H531   H     0.01595   0.19397   0.70915   0.00000  Uiso   1.00
H532   H     0.13507   0.24875   0.61240   0.00000  Uiso   1.00
H533   H     0.31895   0.14021   0.79111   0.00000  Uiso   1.00
H534   H     0.20681   0.00380   0.71032   0.00000  Uiso   1.00
H535   H     0.12593   0.33131   0.79011   0.00000  Uiso   1.00
H536   H     0.27297   0.16432   0.92509   0.00000  Uiso   1.00
H537   H     0.13485   0.15497   0.57664   0.00000  Uiso   1.00
H538   H     0.07736   0.20944   0.92699   0.00000  Uiso   1.00
H539   H     0.06057   0.22217   0.50791   0.00000  Uiso   1.00
H540   H     0.22658   0.18597   0.88693   0.00000  Uiso   1.00
I541   I     0.31775   0.13470   0.98016   0.00000  Uiso   1.00
O542   O     0.16667   0.16667   0.75000   0.00000  Uiso   1.00
O543   O     0.15451   0.12637   0.65459   0.00000  Uiso   1.00
O544   O     0.12940   0.20391   0.84968   0.00000  Uiso   1.00
O545   O     0.20824   0.17759   0.64606   0.00000  Uiso   1.00
O546   O     0.17451   0.15880   0.84968   0.00000  Uiso   1.00
O547   O     0.07360   0.21808   0.58633   0.00000  Uiso   1.00
O548   O     0.14471   0.23810   0.57976   0.00000  Uiso   1.00
O549   O     0.17930   0.08019   0.78214   0.00000  Uiso   1.00
O550   O     0.14632   0.26085   0.77014   0.00000  Uiso   1.00
O551   O     0.07412   0.13291   0.73413   0.00000  Uiso   1.00
O552   O     0.26693   0.19272   0.71361   0.00000  Uiso   1.00
O553   O     0.07071   0.18878   0.78213   0.00000  Uiso   1.00
O554   O     0.25491   0.15226   0.77014   0.00000  Uiso   1.00
O555   O     0.13760   0.06944   0.73413   0.00000  Uiso   1.00
O556   O     0.20345   0.25620   0.71361   0.00000  Uiso   1.00
Zn557  Zn    0.19338   0.13994   0.78734   0.00000  Uiso   1.00
Zn558  Zn    0.13379   0.12458   0.71876   0.00000  Uiso   1.00
Zn559  Zn    0.21056   0.19775   0.70657   0.00000  Uiso   1.00
Zn560  Zn    0.12893   0.20439   0.78734   0.00000  Uiso   1.00
C561   C     0.38612   0.15977   0.76001   0.00000  Uiso   1.00
C562   C     0.50126   0.15422   0.55802   0.00000  Uiso   1.00
C563   C     0.57159   0.13809   0.55705   0.00000  Uiso   1.00
C564   C     0.61423   0.17386   0.73993   0.00000  Uiso   1.00
C565   C     0.47393   0.19214   0.92039   0.00000  Uiso   1.00
C566   C     0.66013   0.17653   0.73563   0.00000  Uiso   1.00
C567   C     0.34080   0.15750   0.76415   0.00000  Uiso   1.00
C568   C     0.51399   0.32256   0.73613   0.00000  Uiso   1.00
C569   C     0.48567   0.01178   0.76408   0.00000  Uiso   1.00
C570   C     0.48971   0.05588   0.76015   0.00000  Uiso   1.00
C571   C     0.51002   0.27798   0.74006   0.00000  Uiso   1.00
C572   C     0.42365   0.20978   0.99089   0.00000  Uiso   1.00
C573   C     0.51899   0.14848   0.62919   0.00000  Uiso   1.00
C574   C     0.48249   0.18516   0.87097   0.00000  Uiso   1.00
C575   C     0.58636   0.14485   0.51154   0.00000  Uiso   1.00
C576   C     0.52932   0.14303   0.58036   0.00000  Uiso   1.00
C577   C     0.43391   0.20380   0.94438   0.00000  Uiso   1.00
C578   C     0.44373   0.21918   0.56262   0.00000  Uiso   1.00
C579   C     0.45194   0.20182   0.51517   0.00000  Uiso   1.00
C580   C     0.49031   0.18423   0.99189   0.00000  Uiso   1.00
C581   C     0.50350   0.18486   0.94422   0.00000  Uiso   1.00
C582   C     0.51655   0.16654   0.51360   0.00000  Uiso   1.00
C583   C     0.55916   0.15952   0.98949   0.00000  Uiso   1.00
C584   C     0.57380   0.16781   0.94418   0.00000  Uiso   1.00
C585   C     0.54635   0.17963   0.92180   0.00000  Uiso   1.00
H586   H     0.59358   0.13014   0.57478   0.00000  Uiso   1.00
H587   H     0.34929   0.19397   0.70915   0.00000  Uiso   1.00
H588   H     0.46840   0.24875   0.61240   0.00000  Uiso   1.00
H589   H     0.65228   0.14021   0.79111   0.00000  Uiso   1.00
H590   H     0.54014   0.00380   0.71032   0.00000  Uiso   1.00
H591   H     0.45927   0.33131   0.79011   0.00000  Uiso   1.00
H592   H     0.60630   0.16432   0.92509   0.00000  Uiso   1.00
H593   H     0.46818   0.15497   0.57664   0.00000  Uiso   1.00
H594   H     0.41070   0.20944   0.92699   0.00000  Uiso   1.00
H595   H     0.39390   0.22217   0.50791   0.00000  Uiso   1.00
H596   H     0.55991   0.18597   0.88693   0.00000  Uiso   1.00
I597   I     0.65108   0.13470   0.98016   0.00000  Uiso   1.00
O598   O     0.50000   0.16667   0.75000   0.00000  Uiso   1.00
O599   O     0.48784   0.12637   0.65459   0.00000  Uiso   1.00
O600   O     0.46274   0.20391   0.84968   0.00000  Uiso   1.00
O601   O     0.54157   0.17759   0.64606   0.00000  Uiso   1.00
O602   O     0.50785   0.15880   0.84968   0.00000  Uiso   1.00
O603   O     0.40693   0.21808   0.58633   0.00000  Uiso   1.00
O604   O     0.47804   0.23810   0.57976   0.00000  Uiso   1.00
O605   O     0.51264   0.08019   0.78214   0.00000  Uiso   1.00
O606   O     0.47965   0.26085   0.77014   0.00000  Uiso   1.00
O607   O     0.40745   0.13291   0.73413   0.00000  Uiso   1.00
O608   O     0.60026   0.19272   0.71361   0.00000  Uiso   1.00
O609   O     0.40405   0.18878   0.78213   0.00000  Uiso   1.00
O610   O     0.58824   0.15226   0.77014   0.00000  Uiso   1.00
O611   O     0.47093   0.06944   0.73413   0.00000  Uiso   1.00
O612   O     0.53678   0.25620   0.71361   0.00000  Uiso   1.00
Zn613  Zn    0.52672   0.13994   0.78734   0.00000  Uiso   1.00
Zn614  Zn    0.46713   0.12458   0.71876   0.00000  Uiso   1.00
Zn615  Zn    0.54389   0.19775   0.70657   0.00000  Uiso   1.00
Zn616  Zn    0.46226   0.20439   0.78734   0.00000  Uiso   1.00
C617   C     0.71945   0.15977   0.76001   0.00000  Uiso   1.00
C618   C     0.83459   0.15422   0.55802   0.00000  Uiso   1.00
C619   C     0.90492   0.13809   0.55705   0.00000  Uiso   1.00
C620   C     0.94756   0.17386   0.73993   0.00000  Uiso   1.00
C621   C     0.80727   0.19214   0.92039   0.00000  Uiso   1.00
C622   C     0.99346   0.17653   0.73563   0.00000  Uiso   1.00
C623   C     0.67414   0.15750   0.76415   0.00000  Uiso   1.00
C624   C     0.84732   0.32256   0.73613   0.00000  Uiso   1.00
C625   C     0.81900   0.01178   0.76408   0.00000  Uiso   1.00
C626   C     0.82304   0.05588   0.76015   0.00000  Uiso   1.00
C627   C     0.84336   0.27798   0.74006   0.00000  Uiso   1.00
C628   C     0.75699   0.20978   0.99089   0.00000  Uiso   1.00
C629   C     0.85233   0.14848   0.62919   0.00000  Uiso   1.00
C630   C     0.81583   0.18516   0.87097   0.00000  Uiso   1.00
C631   C     0.91969   0.14485   0.51154   0.00000  Uiso   1.00
C632   C     0.86265   0.14303   0.58036   0.00000  Uiso   1.00
C633   C     0.76725   0.20380   0.94438   0.00000  Uiso   1.00
C634   C     0.77707   0.21918   0.56262   0.00000  Uiso   1.00
C635   C     0.78527   0.20182   0.51517   0.00000  Uiso   1.00
C636   C     0.82365   0.18423   0.99189   0.00000  Uiso   1.00
C637   C     0.83683   0.18486   0.94422   0.00000  Uiso   1.00
C638   C     0.84988   0.16654   0.51360   0.00000  Uiso   1.00
C639   C     0.89249   0.15952   0.98949   0.00000  Uiso   1.00
C640   C     0.90713   0.16781   0.94418   0.00000  Uiso   1.00
C641   C     0.87969   0.17963   0.92180   0.00000  Uiso   1.00
H642   H     0.92691   0.13014   0.57478   0.00000  Uiso   1.00
H643   H     0.68262   0.19397   0.70915   0.00000  Uiso   1.00
H644   H     0.80173   0.24875   0.61240   0.00000  Uiso   1.00
H645   H     0.98561   0.14021   0.79111   0.00000  Uiso   1.00
H646   H     0.87347   0.00380   0.71032   0.00000  Uiso   1.00
H647   H     0.79260   0.33131   0.79011   0.00000  Uiso   1.00
H648   H     0.93963   0.16432   0.92509   0.00000  Uiso   1.00
H649   H     0.80151   0.15497   0.57664   0.00000  Uiso   1.00
H650   H     0.74403   0.20944   0.92699   0.00000  Uiso   1.00
H651   H     0.72723   0.22217   0.50791   0.00000  Uiso   1.00
H652   H     0.89325   0.18597   0.88693   0.00000  Uiso   1.00
I653   I     0.98442   0.13470   0.98016   0.00000  Uiso   1.00
O654   O     0.83333   0.16667   0.75000   0.00000  Uiso   1.00
O655   O     0.82118   0.12637   0.65459   0.00000  Uiso   1.00
O656   O     0.79607   0.20391   0.84968   0.00000  Uiso   1.00
O657   O     0.87491   0.17759   0.64606   0.00000  Uiso   1.00
O658   O     0.84118   0.15880   0.84968   0.00000  Uiso   1.00
O659   O     0.74026   0.21808   0.58633   0.00000  Uiso   1.00
O660   O     0.81137   0.23810   0.57976   0.00000  Uiso   1.00
O661   O     0.84597   0.08019   0.78214   0.00000  Uiso   1.00
O662   O     0.81298   0.26085   0.77014   0.00000  Uiso   1.00
O663   O     0.74078   0.13291   0.73413   0.00000  Uiso   1.00
O664   O     0.93360   0.19272   0.71361   0.00000  Uiso   1.00
O665   O     0.73738   0.18878   0.78213   0.00000  Uiso   1.00
O666   O     0.92158   0.15226   0.77014   0.00000  Uiso   1.00
O667   O     0.80426   0.06944   0.73413   0.00000  Uiso   1.00
O668   O     0.87012   0.25620   0.71361   0.00000  Uiso   1.00
Zn669  Zn    0.86005   0.13994   0.78734   0.00000  Uiso   1.00
Zn670  Zn    0.80046   0.12458   0.71876   0.00000  Uiso   1.00
Zn671  Zn    0.87723   0.19775   0.70657   0.00000  Uiso   1.00
Zn672  Zn    0.79560   0.20439   0.78734   0.00000  Uiso   1.00
C673   C     0.05279   0.49311   0.76001   0.00000  Uiso   1.00
C674   C     0.16793   0.48755   0.55802   0.00000  Uiso   1.00
C675   C     0.23826   0.47142   0.55705   0.00000  Uiso   1.00
C676   C     0.28089   0.50719   0.73993   0.00000  Uiso   1.00
C677   C     0.14060   0.52547   0.92039   0.00000  Uiso   1.00
C678   C     0.32680   0.50986   0.73563   0.00000  Uiso   1.00
C679   C     0.00747   0.49083   0.76415   0.00000  Uiso   1.00
C680   C     0.18066   0.65589   0.73613   0.00000  Uiso   1.00
C681   C     0.15233   0.34512   0.76408   0.00000  Uiso   1.00
C682   C     0.15638   0.38921   0.76015   0.00000  Uiso   1.00
C683   C     0.17669   0.61131   0.74006   0.00000  Uiso   1.00
C684   C     0.09032   0.54311   0.99089   0.00000  Uiso   1.00
C685   C     0.18566   0.48182   0.62919   0.00000  Uiso   1.00
C686   C     0.14916   0.51849   0.87097   0.00000  Uiso   1.00
C687   C     0.25303   0.47818   0.51154   0.00000  Uiso   1.00
C688   C     0.19599   0.47636   0.58036   0.00000  Uiso   1.00
C689   C     0.10058   0.53713   0.94438   0.00000  Uiso   1.00
C690   C     0.11040   0.55252   0.56262   0.00000  Uiso   1.00
C691   C     0.11861   0.53515   0.51517   0.00000  Uiso   1.00
C692   C     0.15698   0.51756   0.99189   0.00000  Uiso   1.00
C693   C     0.17017   0.51820   0.94422   0.00000  Uiso   1.00
C694   C     0.18321   0.49988   0.51360   0.00000  Uiso   1.00
C695   C     0.22582   0.49285   0.98949   0.00000  Uiso   1.00
C696   C     0.24046   0.50114   0.94418   0.00000  Uiso   1.00
C697   C     0.21302   0.51296   0.92180   0.00000  Uiso   1.00
H698   H     0.26024   0.46347   0.57478   0.00000  Uiso   1.00
H699   H     0.01595   0.52730   0.70915   0.00000  Uiso   1.00
H700   H     0.13507   0.58209   0.61240   0.00000  Uiso   1.00
H701   H     0.31895   0.47355   0.79111   0.00000  Uiso   1.00
H702   H     0.20681   0.33713   0.71032   0.00000  Uiso   1.00
H703   H     0.12593   0.66464   0.79011   0.00000  Uiso   1.00
H704   H     0.27297   0.49765   0.92509   0.00000  Uiso   1.00
H705   H     0.13485   0.48831   0.57664   0.00000  Uiso   1.00
H706   H     0.07736   0.54278   0.92699   0.00000  Uiso   1.00
H707   H     0.06057   0.55550   0.50791   0.00000  Uiso   1.00
H708   H     0.22658   0.51931   0.88693   0.00000  Uiso   1.00
I709   I     0.31775   0.46803   0.98016   0.00000  Uiso   1.00
O710   O     0.16667   0.50000   0.75000   0.00000  Uiso   1.00
O711   O     0.15451   0.45970   0.65459   0.00000  Uiso   1.00
O712   O     0.12940   0.53724   0.84968   0.00000  Uiso   1.00
O713   O     0.20824   0.51092   0.64606   0.00000  Uiso   1.00
O714   O     0.17451   0.49213   0.84968   0.00000  Uiso   1.00
O715   O     0.07360   0.55141   0.58633   0.00000  Uiso   1.00
O716   O     0.14471   0.57143   0.57976   0.00000  Uiso   1.00
O717   O     0.17930   0.41352   0.78214   0.00000  Uiso   1.00
O718   O     0.14632   0.59418   0.77014   0.00000  Uiso   1.00
O719   O     0.07412   0.46625   0.73413   0.00000  Uiso   1.00
O720   O     0.26693   0.52605   0.71361   0.00000  Uiso   1.00
O721   O     0.07071   0.52211   0.78213   0.00000  Uiso   1.00
O722   O     0.25491   0.48559   0.77014   0.00000  Uiso   1.00
O723   O     0.13760   0.40277   0.73413   0.00000  Uiso   1.00
O724   O     0.20345   0.58953   0.71361   0.00000  Uiso   1.00
Zn725  Zn    0.19338   0.47327   0.78734   0.00000  Uiso   1.00
Zn726  Zn    0.13379   0.45791   0.71876   0.00000  Uiso   1.00
Zn727  Zn    0.21056   0.53109   0.70657   0.00000  Uiso   1.00
Zn728  Zn    0.12893   0.53773   0.78734   0.00000  Uiso   1.00
C729   C     0.38612   0.49311   0.76001   0.00000  Uiso   1.00
C730   C     0.50126   0.48755   0.55802   0.00000  Uiso   1.00
C731   C     0.57159   0.47142   0.55705   0.00000  Uiso   1.00
C732   C     0.61423   0.50719   0.73993   0.00000  Uiso   1.00
C733   C     0.47393   0.52547   0.92039   0.00000  Uiso   1.00
C734   C     0.66013   0.50986   0.73563   0.00000  Uiso   1.00
C735   C     0.34080   0.49083   0.76415   0.00000  Uiso   1.00
C736   C     0.51399   0.65589   0.73613   0.00000  Uiso   1.00
C737   C     0.48567   0.34512   0.76408   0.00000  Uiso   1.00
C738   C     0.48971   0.38921   0.76015   0.00000  Uiso   1.00
C739   C     0.51002   0.61131   0.74006   0.00000  Uiso   1.00
C740   C     0.42365   0.54311   0.99089   0.00000  Uiso   1.00
C741   C     0.51899   0.48182   0.62919   0.00000  Uiso   1.00
C742   C     0.48249   0.51849   0.87097   0.00000  Uiso   1.00
C743   C     0.58636   0.47818   0.51154   0.00000  Uiso   1.00
C744   C     0.52932   0.47636   0.58036   0.00000  Uiso   1.00
C745   C     0.43391   0.53713   0.94438   0.00000  Uiso   1.00
C746   C     0.44373   0.55252   0.56262   0.00000  Uiso   1.00
C747   C     0.45194   0.53515   0.51517   0.00000  Uiso   1.00
C748   C     0.49031   0.51756   0.99189   0.00000  Uiso   1.00
C749   C     0.50350   0.51820   0.94422   0.00000  Uiso   1.00
C750   C     0.51655   0.49988   0.51360   0.00000  Uiso   1.00
C751   C     0.55916   0.49285   0.98949   0.00000  Uiso   1.00
C752   C     0.57380   0.50114   0.94418   0.00000  Uiso   1.00
C753   C     0.54635   0.51296   0.92180   0.00000  Uiso   1.00
H754   H     0.59358   0.46347   0.57478   0.00000  Uiso   1.00
H755   H     0.34929   0.52730   0.70915   0.00000  Uiso   1.00
H756   H     0.46840   0.58209   0.61240   0.00000  Uiso   1.00
H757   H     0.65228   0.47355   0.79111   0.00000  Uiso   1.00
H758   H     0.54014   0.33713   0.71032   0.00000  Uiso   1.00
H759   H     0.45927   0.66464   0.79011   0.00000  Uiso   1.00
H760   H     0.60630   0.49765   0.92509   0.00000  Uiso   1.00
H761   H     0.46818   0.48831   0.57664   0.00000  Uiso   1.00
H762   H     0.41070   0.54278   0.92699   0.00000  Uiso   1.00
H763   H     0.39390   0.55550   0.50791   0.00000  Uiso   1.00
H764   H     0.55991   0.51931   0.88693   0.00000  Uiso   1.00
I765   I     0.65108   0.46803   0.98016   0.00000  Uiso   1.00
O766   O     0.50000   0.50000   0.75000   0.00000  Uiso   1.00
O767   O     0.48784   0.45970   0.65459   0.00000  Uiso   1.00
O768   O     0.46274   0.53724   0.84968   0.00000  Uiso   1.00
O769   O     0.54157   0.51092   0.64606   0.00000  Uiso   1.00
O770   O     0.50785   0.49213   0.84968   0.00000  Uiso   1.00
O771   O     0.40693   0.55141   0.58633   0.00000  Uiso   1.00
O772   O     0.47804   0.57143   0.57976   0.00000  Uiso   1.00
O773   O     0.51264   0.41352   0.78214   0.00000  Uiso   1.00
O774   O     0.47965   0.59418   0.77014   0.00000  Uiso   1.00
O775   O     0.40745   0.46625   0.73413   0.00000  Uiso   1.00
O776   O     0.60026   0.52605   0.71361   0.00000  Uiso   1.00
O777   O     0.40405   0.52211   0.78213   0.00000  Uiso   1.00
O778   O     0.58824   0.48559   0.77014   0.00000  Uiso   1.00
O779   O     0.47093   0.40277   0.73413   0.00000  Uiso   1.00
O780   O     0.53678   0.58953   0.71361   0.00000  Uiso   1.00
Zn781  Zn    0.52672   0.47327   0.78734   0.00000  Uiso   1.00
Zn782  Zn    0.46713   0.45791   0.71876   0.00000  Uiso   1.00
Zn783  Zn    0.54389   0.53109   0.70657   0.00000  Uiso   1.00
Zn784  Zn    0.46226   0.53773   0.78734   0.00000  Uiso   1.00
C785   C     0.71945   0.49311   0.76001   0.00000  Uiso   1.00
C786   C     0.83459   0.48755   0.55802   0.00000  Uiso   1.00
C787   C     0.90492   0.47142   0.55705   0.00000  Uiso   1.00
C788   C     0.94756   0.50719   0.73993   0.00000  Uiso   1.00
C789   C     0.80727   0.52547   0.92039   0.00000  Uiso   1.00
C790   C     0.99346   0.50986   0.73563   0.00000  Uiso   1.00
C791   C     0.67414   0.49083   0.76415   0.00000  Uiso   1.00
C792   C     0.84732   0.65589   0.73613   0.00000  Uiso   1.00
C793   C     0.81900   0.34512   0.76408   0.00000  Uiso   1.00
C794   C     0.82304   0.38921   0.76015   0.00000  Uiso   1.00
C795   C     0.84336   0.61131   0.74006   0.00000  Uiso   1.00
C796   C     0.75699   0.54311   0.99089   0.00000  Uiso   1.00
C797   C     0.85233   0.48182   0.62919   0.00000  Uiso   1.00
C798   C     0.81583   0.51849   0.87097   0.00000  Uiso   1.00
C799   C     0.91969   0.47818   0.51154   0.00000  Uiso   1.00
C800   C     0.86265   0.47636   0.58036   0.00000  Uiso   1.00
C801   C     0.76725   0.53713   0.94438   0.00000  Uiso   1.00
C802   C     0.77707   0.55252   0.56262   0.00000  Uiso   1.00
C803   C     0.78527   0.53515   0.51517   0.00000  Uiso   1.00
C804   C     0.82365   0.51756   0.99189   0.00000  Uiso   1.00
C805   C     0.83683   0.51820   0.94422   0.00000  Uiso   1.00
C806   C     0.84988   0.49988   0.51360   0.00000  Uiso   1.00
C807   C     0.89249   0.49285   0.98949   0.00000  Uiso   1.00
C808   C     0.90713   0.50114   0.94418   0.00000  Uiso   1.00
C809   C     0.87969   0.51296   0.92180   0.00000  Uiso   1.00
H810   H     0.92691   0.46347   0.57478   0.00000  Uiso   1.00
H811   H     0.68262   0.52730   0.70915   0.00000  Uiso   1.00
H812   H     0.80173   0.58209   0.61240   0.00000  Uiso   1.00
H813   H     0.98561   0.47355   0.79111   0.00000  Uiso   1.00
H814   H     0.87347   0.33713   0.71032   0.00000  Uiso   1.00
H815   H     0.79260   0.66464   0.79011   0.00000  Uiso   1.00
H816   H     0.93963   0.49765   0.92509   0.00000  Uiso   1.00
H817   H     0.80151   0.48831   0.57664   0.00000  Uiso   1.00
H818   H     0.74403   0.54278   0.92699   0.00000  Uiso   1.00
H819   H     0.72723   0.55550   0.50791   0.00000  Uiso   1.00
H820   H     0.89325   0.51931   0.88693   0.00000  Uiso   1.00
I821   I     0.98442   0.46803   0.98016   0.00000  Uiso   1.00
O822   O     0.83333   0.50000   0.75000   0.00000  Uiso   1.00
O823   O     0.82118   0.45970   0.65459   0.00000  Uiso   1.00
O824   O     0.79607   0.53724   0.84968   0.00000  Uiso   1.00
O825   O     0.87491   0.51092   0.64606   0.00000  Uiso   1.00
O826   O     0.84118   0.49213   0.84968   0.00000  Uiso   1.00
O827   O     0.74026   0.55141   0.58633   0.00000  Uiso   1.00
O828   O     0.81137   0.57143   0.57976   0.00000  Uiso   1.00
O829   O     0.84597   0.41352   0.78214   0.00000  Uiso   1.00
O830   O     0.81298   0.59418   0.77014   0.00000  Uiso   1.00
O831   O     0.74078   0.46625   0.73413   0.00000  Uiso   1.00
O832   O     0.93360   0.52605   0.71361   0.00000  Uiso   1.00
O833   O     0.73738   0.52211   0.78213   0.00000  Uiso   1.00
O834   O     0.92158   0.48559   0.77014   0.00000  Uiso   1.00
O835   O     0.80426   0.40277   0.73413   0.00000  Uiso   1.00
O836   O     0.87012   0.58953   0.71361   0.00000  Uiso   1.00
Zn837  Zn    0.86005   0.47327   0.78734   0.00000  Uiso   1.00
Zn838  Zn    0.80046   0.45791   0.71876   0.00000  Uiso   1.00
Zn839  Zn    0.87723   0.53109   0.70657   0.00000  Uiso   1.00
Zn840  Zn    0.79560   0.53773   0.78734   0.00000  Uiso   1.00
C841   C     0.05279   0.82644   0.76001   0.00000  Uiso   1.00
C842   C     0.16793   0.82088   0.55802   0.00000  Uiso   1.00
C843   C     0.23826   0.80475   0.55705   0.00000  Uiso   1.00
C844   C     0.28089   0.84053   0.73993   0.00000  Uiso   1.00
C845   C     0.14060   0.85881   0.92039   0.00000  Uiso   1.00
C846   C     0.32680   0.84319   0.73563   0.00000  Uiso   1.00
C847   C     0.00747   0.82417   0.76415   0.00000  Uiso   1.00
C848   C     0.18066   0.98923   0.73613   0.00000  Uiso   1.00
C849   C     0.15233   0.67845   0.76408   0.00000  Uiso   1.00
C850   C     0.15638   0.72254   0.76015   0.00000  Uiso   1.00
C851   C     0.17669   0.94465   0.74006   0.00000  Uiso   1.00
C852   C     0.09032   0.87645   0.99089   0.00000  Uiso   1.00
C853   C     0.18566   0.81515   0.62919   0.00000  Uiso   1.00
C854   C     0.14916   0.85182   0.87097   0.00000  Uiso   1.00
C855   C     0.25303   0.81152   0.51154   0.00000  Uiso   1.00
C856   C     0.19599   0.80970   0.58036   0.00000  Uiso   1.00
C857   C     0.10058   0.87047   0.94438   0.00000  Uiso   1.00
C858   C     0.11040   0.88585   0.56262   0.00000  Uiso   1.00
C859   C     0.11861   0.86848   0.51517   0.00000  Uiso   1.00
C860   C     0.15698   0.85090   0.99189   0.00000  Uiso   1.00
C861   C     0.17017   0.85153   0.94422   0.00000  Uiso   1.00
C862   C     0.18321   0.83321   0.51360   0.00000  Uiso   1.00
C863   C     0.22582   0.82618   0.98949   0.00000  Uiso   1.00
C864   C     0.24046   0.83448   0.94418   0.00000  Uiso   1.00
C865   C     0.21302   0.84629   0.92180   0.00000  Uiso   1.00
H866   H     0.26024   0.79680   0.57478   0.00000  Uiso   1.00
H867   H     0.01595   0.86064   0.70915   0.00000  Uiso   1.00
H868   H     0.13507   0.91542   0.61240   0.00000  Uiso   1.00
H869   H     0.31895   0.80688   0.79111   0.00000  Uiso   1.00
H870   H     0.20681   0.67046   0.71032   0.00000  Uiso   1.00
H871   H     0.12593   0.99798   0.79011   0.00000  Uiso   1.00
H872   H     0.27297   0.83098   0.92509   0.00000  Uiso   1.00
H873   H     0.13485   0.82164   0.57664   0.00000  Uiso   1.00
H874   H     0.07736   0.87611   0.92699   0.00000  Uiso   1.00
H875   H     0.06057   0.88884   0.50791   0.00000  Uiso   1.00
H876   H     0.22658   0.85264   0.88693   0.00000  Uiso   1.00
I877   I     0.31775   0.80136   0.98016   0.00000  Uiso   1.00
O878   O     0.16667   0.83333   0.75000   0.00000  Uiso   1.00
O879   O     0.15451   0.79304   0.65459   0.00000  Uiso   1.00
O880   O     0.12940   0.87058   0.84968   0.00000  Uiso   1.00
O881   O     0.20824   0.84425   0.64606   0.00000  Uiso   1.00
O882   O     0.17451   0.82546   0.84968   0.00000  Uiso   1.00
O883   O     0.07360   0.88474   0.58633   0.00000  Uiso   1.00
O884   O     0.14471   0.90476   0.57976   0.00000  Uiso   1.00
O885   O     0.17930   0.74686   0.78214   0.00000  Uiso   1.00
O886   O     0.14632   0.92751   0.77014   0.00000  Uiso   1.00
O887   O     0.07412   0.79958   0.73413   0.00000  Uiso   1.00
O888   O     0.26693   0.85939   0.71361   0.00000  Uiso   1.00
O889   O     0.07071   0.85544   0.78213   0.00000  Uiso   1.00
O890   O     0.25491   0.81892   0.77014   0.00000  Uiso   1.00
O891   O     0.13760   0.73610   0.73413   0.00000  Uiso   1.00
O892   O     0.20345   0.92286   0.71361   0.00000  Uiso   1.00
Zn893  Zn    0.19338   0.80661   0.78734   0.00000  Uiso   1.00
Zn894  Zn    0.13379   0.79124   0.71876   0.00000  Uiso   1.00
Zn895  Zn    0.21056   0.86442   0.70657   0.00000  Uiso   1.00
Zn896  Zn    0.12893   0.87106   0.78734   0.00000  Uiso   1.00
C897   C     0.38612   0.82644   0.76001   0.00000  Uiso   1.00
C898   C     0.50126   0.82088   0.55802   0.00000  Uiso   1.00
C899   C     0.57159   0.80475   0.55705   0.00000  Uiso   1.00
C900   C     0.61423   0.84053   0.73993   0.00000  Uiso   1.00
C901   C     0.47393   0.85881   0.92039   0.00000  Uiso   1.00
C902   C     0.66013   0.84319   0.73563   0.00000  Uiso   1.00
C903   C     0.34080   0.82417   0.76415   0.00000  Uiso   1.00
C904   C     0.51399   0.98923   0.73613   0.00000  Uiso   1.00
C905   C     0.48567   0.67845   0.76408   0.00000  Uiso   1.00
C906   C     0.48971   0.72254   0.76015   0.00000  Uiso   1.00
C907   C     0.51002   0.94465   0.74006   0.00000  Uiso   1.00
C908   C     0.42365   0.87645   0.99089   0.00000  Uiso   1.00
C909   C     0.51899   0.81515   0.62919   0.00000  Uiso   1.00
C910   C     0.48249   0.85182   0.87097   0.00000  Uiso   1.00
C911   C     0.58636   0.81152   0.51154   0.00000  Uiso   1.00
C912   C     0.52932   0.80970   0.58036   0.00000  Uiso   1.00
C913   C     0.43391   0.87047   0.94438   0.00000  Uiso   1.00
C914   C     0.44373   0.88585   0.56262   0.00000  Uiso   1.00
C915   C     0.45194   0.86848   0.51517   0.00000  Uiso   1.00
C916   C     0.49031   0.85090   0.99189   0.00000  Uiso   1.00
C917   C     0.50350   0.85153   0.94422   0.00000  Uiso   1.00
C918   C     0.51655   0.83321   0.51360   0.00000  Uiso   1.00
C919   C     0.55916   0.82618   0.98949   0.00000  Uiso   1.00
C920   C     0.57380   0.83448   0.94418   0.00000  Uiso   1.00
C921   C     0.54635   0.84629   0.92180   0.00000  Uiso   1.00
H922   H     0.59358   0.79680   0.57478   0.00000  Uiso   1.00
H923   H     0.34929   0.86064   0.70915   0.00000  Uiso   1.00
H924   H     0.46840   0.91542   0.61240   0.00000  Uiso   1.00
H925   H     0.65228   0.80688   0.79111   0.00000  Uiso   1.00
H926   H     0.54014   0.67046   0.71032   0.00000  Uiso   1.00
H927   H     0.45927   0.99798   0.79011   0.00000  Uiso   1.00
H928   H     0.60630   0.83098   0.92509   0.00000  Uiso   1.00
H929   H     0.46818   0.82164   0.57664   0.00000  Uiso   1.00
H930   H     0.41070   0.87611   0.92699   0.00000  Uiso   1.00
H931   H     0.39390   0.88884   0.50791   0.00000  Uiso   1.00
H932   H     0.55991   0.85264   0.88693   0.00000  Uiso   1.00
I933   I     0.65108   0.80136   0.98016   0.00000  Uiso   1.00
O934   O     0.50000   0.83333   0.75000   0.00000  Uiso   1.00
O935   O     0.48784   0.79304   0.65459   0.00000  Uiso   1.00
O936   O     0.46274   0.87058   0.84968   0.00000  Uiso   1.00
O937   O     0.54157   0.84425   0.64606   0.00000  Uiso   1.00
O938   O     0.50785   0.82546   0.84968   0.00000  Uiso   1.00
O939   O     0.40693   0.88474   0.58633   0.00000  Uiso   1.00
O940   O     0.47804   0.90476   0.57976   0.00000  Uiso   1.00
O941   O     0.51264   0.74686   0.78214   0.00000  Uiso   1.00
O942   O     0.47965   0.92751   0.77014   0.00000  Uiso   1.00
O943   O     0.40745   0.79958   0.73413   0.00000  Uiso   1.00
O944   O     0.60026   0.85939   0.71361   0.00000  Uiso   1.00
O945   O     0.40405   0.85544   0.78213   0.00000  Uiso   1.00
O946   O     0.58824   0.81892   0.77014   0.00000  Uiso   1.00
O947   O     0.47093   0.73610   0.73413   0.00000  Uiso   1.00
O948   O     0.53678   0.92286   0.71361   0.00000  Uiso   1.00
Zn949  Zn    0.52672   0.80661   0.78734   0.00000  Uiso   1.00
Zn950  Zn    0.46713   0.79124   0.71876   0.00000  Uiso   1.00
Zn951  Zn    0.54389   0.86442   0.70657   0.00000  Uiso   1.00
Zn952  Zn    0.46226   0.87106   0.78734   0.00000  Uiso   1.00
C953   C     0.71945   0.82644   0.76001   0.00000  Uiso   1.00
C954   C     0.83459   0.82088   0.55802   0.00000  Uiso   1.00
C955   C     0.90492   0.80475   0.55705   0.00000  Uiso   1.00
C956   C     0.94756   0.84053   0.73993   0.00000  Uiso   1.00
C957   C     0.80727   0.85881   0.92039   0.00000  Uiso   1.00
C958   C     0.99346   0.84319   0.73563   0.00000  Uiso   1.00
C959   C     0.67414   0.82417   0.76415   0.00000  Uiso   1.00
C960   C     0.84732   0.98923   0.73613   0.00000  Uiso   1.00
C961   C     0.81900   0.67845   0.76408   0.00000  Uiso   1.00
C962   C     0.82304   0.72254   0.76015   0.00000  Uiso   1.00
C963   C     0.84336   0.94465   0.74006   0.00000  Uiso   1.00
C964   C     0.75699   0.87645   0.99089   0.00000  Uiso   1.00
C965   C     0.85233   0.81515   0.62919   0.00000  Uiso   1.00
C966   C     0.81583   0.85182   0.87097   0.00000  Uiso   1.00
C967   C     0.91969   0.81152   0.51154   0.00000  Uiso   1.00
C968   C     0.86265   0.80970   0.58036   0.00000  Uiso   1.00
C969   C     0.76725   0.87047   0.94438   0.00000  Uiso   1.00
C970   C     0.77707   0.88585   0.56262   0.00000  Uiso   1.00
C971   C     0.78527   0.86848   0.51517   0.00000  Uiso   1.00
C972   C     0.82365   0.85090   0.99189   0.00000  Uiso   1.00
C973   C     0.83683   0.85153   0.94422   0.00000  Uiso   1.00
C974   C     0.84988   0.83321   0.51360   0.00000  Uiso   1.00
C975   C     0.89249   0.82618   0.98949   0.00000  Uiso   1.00
C976   C     0.90713   0.83448   0.94418   0.00000  Uiso   1.00
C977   C     0.87969   0.84629   0.92180   0.00000  Uiso   1.00
H978   H     0.92691   0.79680   0.57478   0.00000  Uiso   1.00
H979   H     0.68262   0.86064   0.70915   0.00000  Uiso   1.00
H980   H     0.80173   0.91542   0.61240   0.00000  Uiso   1.00
H981   H     0.98561   0.80688   0.79111   0.00000  Uiso   1.00
H982   H     0.87347   0.67046   0.71032   0.00000  Uiso   1.00
H983   H     0.79260   0.99798   0.79011   0.00000  Uiso   1.00
H984   H     0.93963   0.83098   0.92509   0.00000  Uiso   1.00
H985   H     0.80151   0.82164   0.57664   0.00000  Uiso   1.00
H986   H     0.74403   0.87611   0.92699   0.00000  Uiso   1.00
H987   H     0.72723   0.88884   0.50791   0.00000  Uiso   1.00
H988   H     0.89325   0.85264   0.88693   0.00000  Uiso   1.00
I989   I     0.98442   0.80136   0.98016   0.00000  Uiso   1.00
O990   O     0.83333   0.83333   0.75000   0.00000  Uiso   1.00
O991   O     0.82118   0.79304   0.65459   0.00000  Uiso   1.00
O992   O     0.79607   0.87058   0.84968   0.00000  Uiso   1.00
O993   O     0.87491   0.84425   0.64606   0.00000  Uiso   1.00
O994   O     0.84118   0.82546   0.84968   0.00000  Uiso   1.00
O995   O     0.74026   0.88474   0.58633   0.00000  Uiso   1.00
O996   O     0.81137   0.90476   0.57976   0.00000  Uiso   1.00
O997   O     0.84597   0.74686   0.78214   0.00000  Uiso   1.00
O998   O     0.81298   0.92751   0.77014   0.00000  Uiso   1.00
O999   O     0.74078   0.79958   0.73413   0.00000  Uiso   1.00
O1000  O     0.93360   0.85939   0.71361   0.00000  Uiso   1.00
O1001  O     0.73738   0.85544   0.78213   0.00000  Uiso   1.00
O1002  O     0.92158   0.81892   0.77014   0.00000  Uiso   1.00
O1003  O     0.80426   0.73610   0.73413   0.00000  Uiso   1.00
O1004  O     0.87012   0.92286   0.71361   0.00000  Uiso   1.00
Zn1005 Zn    0.86005   0.80661   0.78734   0.00000  Uiso   1.00
Zn1006 Zn    0.80046   0.79124   0.71876   0.00000  Uiso   1.00
Zn1007 Zn    0.87723   0.86442   0.70657   0.00000  Uiso   1.00
Zn1008 Zn    0.79560   0.87106   0.78734   0.00000  Uiso   1.00
loop_
_geom_bond_atom_site_label_1
_geom_bond_atom_site_label_2
_geom_bond_distance
_geom_bond_site_symmetry_2
_ccdc_geom_bond_type
C1     C7      1.438   .     S
C1     O49     1.272   .     A
C1     O47     1.273   .     A
C2     C22     1.410   .     A
C2     C16     1.390   .     A
C2     H33     1.079   .     S
C3     C16     1.396   .     A
C3     C15     1.390   .     A
C3     H26     1.084   .     S
C4     C6      1.455   .     S
C4     O48     1.277   .     A
C4     O50     1.273   .     A
C5     C14     1.479   .     S
C5     C17     1.400   .     A
C5     C21     1.418   .     A
C6     C63     1.335   .     S
C6     H83     1.088   .     S
C7     C118    1.335   1_455 S
C7     H141    1.086   1_455 S
C8     C11     1.452   .     S
C8     C177    1.332   .     S
C8     H198    1.088   .     S
C9     C10     1.436   .     S
C9     C344    1.332   1_545 S
C9     H367    1.086   1_545 S
C10    O45     1.278   .     A
C10    O51     1.278   .     A
C11    O52     1.268   .     A
C11    O46     1.268   .     A
C12    C17     1.387   .     A
C12    C523    1.400   .     S
C12    H539    1.084   .     S
C13    O41     1.269   .     A
C13    O39     1.281   .     A
C13    C16     1.455   .     S
C14    O42     1.284   .     A
C14    O40     1.283   .     A
C15    C527    1.412   1_554 S
C15    I541    2.129   1_554 S
C17    H34     1.083   .     S
C18    O44     1.399   .     S
C18    O43     1.223   .     D
C18    C19     1.486   .     S
C19    C516    1.400   1_554 S
C19    C524    1.431   1_554 S
C20    C21     1.423   .     A
C20    C523    1.431   .     S
C20    C526    1.430   .     S
C21    C25     1.408   .     A
C22    C524    1.430   1_554 S
C22    C527    1.427   1_554 S
C23    C24     1.396   .     A
C23    C519    1.412   .     S
C23    C526    1.427   .     S
C24    H32     1.081   .     S
C24    C25     1.383   .     A
C25    H36     1.080   .     S
H27    C118    1.088   1_455 S
H28    O44     1.014   .     S
H29    C63     1.086   .     S
H30    C344    1.088   1_545 S
H31    C177    1.086   .     S
H35    C516    1.084   1_554 S
I37    C519    2.129   .     S
O38    Zn54    1.951   .     S
O38    Zn53    1.954   .     S
O38    Zn56    1.933   .     S
O38    Zn55    1.924   .     S
O39    Zn54    1.922   .     S
O40    Zn56    1.935   .     S
O41    Zn55    1.936   .     S
O42    Zn53    1.924   .     S
O45    Zn53    1.931   .     S
O46    Zn56    1.927   .     S
O47    Zn54    1.925   .     S
O48    Zn55    1.937   .     S
O49    Zn56    1.935   .     S
O50    Zn53    1.922   .     S
O51    Zn54    1.932   .     S
O52    Zn55    1.931   .     S
C57    C63     1.438   .     S
C57    O105    1.272   .     A
C57    O103    1.273   .     A
C58    C78     1.410   .     A
C58    C72     1.390   .     A
C58    H89     1.079   .     S
C59    C72     1.396   .     A
C59    C71     1.390   .     A
C59    H82     1.084   .     S
C60    C62     1.455   .     S
C60    O104    1.277   .     A
C60    O106    1.273   .     A
C61    C70     1.479   .     S
C61    C73     1.400   .     A
C61    C77     1.418   .     A
C62    C119    1.335   .     S
C62    H139    1.088   .     S
C64    C67     1.452   .     S
C64    C233    1.332   .     S
C64    H254    1.088   .     S
C65    C66     1.436   .     S
C65    C400    1.332   1_545 S
C65    H423    1.086   1_545 S
C66    O101    1.278   .     A
C66    O107    1.278   .     A
C67    O108    1.268   .     A
C67    O102    1.268   .     A
C68    C73     1.387   .     A
C68    C579    1.400   .     S
C68    H595    1.084   .     S
C69    O97     1.269   .     A
C69    O95     1.281   .     A
C69    C72     1.455   .     S
C70    O98     1.284   .     A
C70    O96     1.283   .     A
C71    C583    1.412   1_554 S
C71    I597    2.129   1_554 S
C73    H90     1.083   .     S
C74    O100    1.399   .     S
C74    O99     1.223   .     D
C74    C75     1.486   .     S
C75    C572    1.400   1_554 S
C75    C580    1.431   1_554 S
C76    C77     1.423   .     A
C76    C579    1.431   .     S
C76    C582    1.430   .     S
C77    C81     1.408   .     A
C78    C580    1.430   1_554 S
C78    C583    1.427   1_554 S
C79    C80     1.396   .     A
C79    C575    1.412   .     S
C79    C582    1.427   .     S
C80    H88     1.081   .     S
C80    C81     1.383   .     A
C81    H92     1.080   .     S
H84    O100    1.014   .     S
H85    C119    1.086   .     S
H86    C400    1.088   1_545 S
H87    C233    1.086   .     S
H91    C572    1.084   1_554 S
I93    C575    2.129   .     S
O94    Zn110   1.951   .     S
O94    Zn109   1.954   .     S
O94    Zn112   1.933   .     S
O94    Zn111   1.924   .     S
O95    Zn110   1.922   .     S
O96    Zn112   1.935   .     S
O97    Zn111   1.936   .     S
O98    Zn109   1.924   .     S
O101   Zn109   1.931   .     S
O102   Zn112   1.927   .     S
O103   Zn110   1.925   .     S
O104   Zn111   1.937   .     S
O105   Zn112   1.935   .     S
O106   Zn109   1.922   .     S
O107   Zn110   1.932   .     S
O108   Zn111   1.931   .     S
C113   C119    1.438   .     S
C113   O161    1.272   .     A
C113   O159    1.273   .     A
C114   C134    1.410   .     A
C114   C128    1.390   .     A
C114   H145    1.079   .     S
C115   C128    1.396   .     A
C115   C127    1.390   .     A
C115   H138    1.084   .     S
C116   C118    1.455   .     S
C116   O160    1.277   .     A
C116   O162    1.273   .     A
C117   C126    1.479   .     S
C117   C129    1.400   .     A
C117   C133    1.418   .     A
C118   C7      1.335   1_655 S
C118   H27     1.088   1_655 S
C120   C123    1.452   .     S
C120   C289    1.332   .     S
C120   H310    1.088   .     S
C121   C122    1.436   .     S
C121   C456    1.332   1_545 S
C121   H479    1.086   1_545 S
C122   O157    1.278   .     A
C122   O163    1.278   .     A
C123   O164    1.268   .     A
C123   O158    1.268   .     A
C124   C129    1.387   .     A
C124   C635    1.400   .     S
C124   H651    1.084   .     S
C125   O153    1.269   .     A
C125   O151    1.281   .     A
C125   C128    1.455   .     S
C126   O154    1.284   .     A
C126   O152    1.283   .     A
C127   C639    1.412   1_554 S
C127   I653    2.129   1_554 S
C129   H146    1.083   .     S
C130   O156    1.399   .     S
C130   O155    1.223   .     D
C130   C131    1.486   .     S
C131   C628    1.400   1_554 S
C131   C636    1.431   1_554 S
C132   C133    1.423   .     A
C132   C635    1.431   .     S
C132   C638    1.430   .     S
C133   C137    1.408   .     A
C134   C636    1.430   1_554 S
C134   C639    1.427   1_554 S
C135   C136    1.396   .     A
C135   C631    1.412   .     S
C135   C638    1.427   .     S
C136   H144    1.081   .     S
C136   C137    1.383   .     A
C137   H148    1.080   .     S
H140   O156    1.014   .     S
H141   C7      1.086   1_655 S
H142   C456    1.088   1_545 S
H143   C289    1.086   .     S
H147   C628    1.084   1_554 S
I149   C631    2.129   .     S
O150   Zn166   1.951   .     S
O150   Zn165   1.954   .     S
O150   Zn168   1.933   .     S
O150   Zn167   1.924   .     S
O151   Zn166   1.922   .     S
O152   Zn168   1.935   .     S
O153   Zn167   1.936   .     S
O154   Zn165   1.924   .     S
O157   Zn165   1.931   .     S
O158   Zn168   1.927   .     S
O159   Zn166   1.925   .     S
O160   Zn167   1.937   .     S
O161   Zn168   1.935   .     S
O162   Zn165   1.922   .     S
O163   Zn166   1.932   .     S
O164   Zn167   1.931   .     S
C169   C175    1.438   .     S
C169   O217    1.272   .     A
C169   O215    1.273   .     A
C170   C190    1.410   .     A
C170   C184    1.390   .     A
C170   H201    1.079   .     S
C171   C184    1.396   .     A
C171   C183    1.390   .     A
C171   H194    1.084   .     S
C172   C174    1.455   .     S
C172   O216    1.277   .     A
C172   O218    1.273   .     A
C173   C182    1.479   .     S
C173   C185    1.400   .     A
C173   C189    1.418   .     A
C174   C231    1.335   .     S
C174   H251    1.088   .     S
C175   C286    1.335   1_455 S
C175   H309    1.086   1_455 S
C176   C179    1.452   .     S
C176   C345    1.332   .     S
C176   H366    1.088   .     S
C177   C178    1.436   .     S
C178   O213    1.278   .     A
C178   O219    1.278   .     A
C179   O220    1.268   .     A
C179   O214    1.268   .     A
C180   C185    1.387   .     A
C180   C691    1.400   .     S
C180   H707    1.084   .     S
C181   O209    1.269   .     A
C181   O207    1.281   .     A
C181   C184    1.455   .     S
C182   O210    1.284   .     A
C182   O208    1.283   .     A
C183   C695    1.412   1_554 S
C183   I709    2.129   1_554 S
C185   H202    1.083   .     S
C186   O212    1.399   .     S
C186   O211    1.223   .     D
C186   C187    1.486   .     S
C187   C684    1.400   1_554 S
C187   C692    1.431   1_554 S
C188   C189    1.423   .     A
C188   C691    1.431   .     S
C188   C694    1.430   .     S
C189   C193    1.408   .     A
C190   C692    1.430   1_554 S
C190   C695    1.427   1_554 S
C191   C192    1.396   .     A
C191   C687    1.412   .     S
C191   C694    1.427   .     S
C192   H200    1.081   .     S
C192   C193    1.383   .     A
C193   H204    1.080   .     S
H195   C286    1.088   1_455 S
H196   O212    1.014   .     S
H197   C231    1.086   .     S
H199   C345    1.086   .     S
H203   C684    1.084   1_554 S
I205   C687    2.129   .     S
O206   Zn222   1.951   .     S
O206   Zn221   1.954   .     S
O206   Zn224   1.933   .     S
O206   Zn223   1.924   .     S
O207   Zn222   1.922   .     S
O208   Zn224   1.935   .     S
O209   Zn223   1.936   .     S
O210   Zn221   1.924   .     S
O213   Zn221   1.931   .     S
O214   Zn224   1.927   .     S
O215   Zn222   1.925   .     S
O216   Zn223   1.937   .     S
O217   Zn224   1.935   .     S
O218   Zn221   1.922   .     S
O219   Zn222   1.932   .     S
O220   Zn223   1.931   .     S
C225   C231    1.438   .     S
C225   O273    1.272   .     A
C225   O271    1.273   .     A
C226   C246    1.410   .     A
C226   C240    1.390   .     A
C226   H257    1.079   .     S
C227   C240    1.396   .     A
C227   C239    1.390   .     A
C227   H250    1.084   .     S
C228   C230    1.455   .     S
C228   O272    1.277   .     A
C228   O274    1.273   .     A
C229   C238    1.479   .     S
C229   C241    1.400   .     A
C229   C245    1.418   .     A
C230   C287    1.335   .     S
C230   H307    1.088   .     S
C232   C235    1.452   .     S
C232   C401    1.332   .     S
C232   H422    1.088   .     S
C233   C234    1.436   .     S
C234   O269    1.278   .     A
C234   O275    1.278   .     A
C235   O276    1.268   .     A
C235   O270    1.268   .     A
C236   C241    1.387   .     A
C236   C747    1.400   .     S
C236   H763    1.084   .     S
C237   O265    1.269   .     A
C237   O263    1.281   .     A
C237   C240    1.455   .     S
C238   O266    1.284   .     A
C238   O264    1.283   .     A
C239   C751    1.412   1_554 S
C239   I765    2.129   1_554 S
C241   H258    1.083   .     S
C242   O268    1.399   .     S
C242   O267    1.223   .     D
C242   C243    1.486   .     S
C243   C740    1.400   1_554 S
C243   C748    1.431   1_554 S
C244   C245    1.423   .     A
C244   C747    1.431   .     S
C244   C750    1.430   .     S
C245   C249    1.408   .     A
C246   C748    1.430   1_554 S
C246   C751    1.427   1_554 S
C247   C248    1.396   .     A
C247   C743    1.412   .     S
C247   C750    1.427   .     S
C248   H256    1.081   .     S
C248   C249    1.383   .     A
C249   H260    1.080   .     S
H252   O268    1.014   .     S
H253   C287    1.086   .     S
H255   C401    1.086   .     S
H259   C740    1.084   1_554 S
I261   C743    2.129   .     S
O262   Zn278   1.951   .     S
O262   Zn277   1.954   .     S
O262   Zn280   1.933   .     S
O262   Zn279   1.924   .     S
O263   Zn278   1.922   .     S
O264   Zn280   1.935   .     S
O265   Zn279   1.936   .     S
O266   Zn277   1.924   .     S
O269   Zn277   1.931   .     S
O270   Zn280   1.927   .     S
O271   Zn278   1.925   .     S
O272   Zn279   1.937   .     S
O273   Zn280   1.935   .     S
O274   Zn277   1.922   .     S
O275   Zn278   1.932   .     S
O276   Zn279   1.931   .     S
C281   C287    1.438   .     S
C281   O329    1.272   .     A
C281   O327    1.273   .     A
C282   C302    1.410   .     A
C282   C296    1.390   .     A
C282   H313    1.079   .     S
C283   C296    1.396   .     A
C283   C295    1.390   .     A
C283   H306    1.084   .     S
C284   C286    1.455   .     S
C284   O328    1.277   .     A
C284   O330    1.273   .     A
C285   C294    1.479   .     S
C285   C297    1.400   .     A
C285   C301    1.418   .     A
C286   C175    1.335   1_655 S
C286   H195    1.088   1_655 S
C288   C291    1.452   .     S
C288   C457    1.332   .     S
C288   H478    1.088   .     S
C289   C290    1.436   .     S
C290   O325    1.278   .     A
C290   O331    1.278   .     A
C291   O332    1.268   .     A
C291   O326    1.268   .     A
C292   C297    1.387   .     A
C292   C803    1.400   .     S
C292   H819    1.084   .     S
C293   O321    1.269   .     A
C293   O319    1.281   .     A
C293   C296    1.455   .     S
C294   O322    1.284   .     A
C294   O320    1.283   .     A
C295   C807    1.412   1_554 S
C295   I821    2.129   1_554 S
C297   H314    1.083   .     S
C298   O324    1.399   .     S
C298   O323    1.223   .     D
C298   C299    1.486   .     S
C299   C796    1.400   1_554 S
C299   C804    1.431   1_554 S
C300   C301    1.423   .     A
C300   C803    1.431   .     S
C300   C806    1.430   .     S
C301   C305    1.408   .     A
C302   C804    1.430   1_554 S
C302   C807    1.427   1_554 S
C303   C304    1.396   .     A
C303   C799    1.412   .     S
C303   C806    1.427   .     S
C304   H312    1.081   .     S
C304   C305    1.383   .     A
C305   H316    1.080   .     S
H308   O324    1.014   .     S
H309   C175    1.086   1_655 S
H311   C457    1.086   .     S
H315   C796    1.084   1_554 S
I317   C799    2.129   .     S
O318   Zn334   1.951   .     S
O318   Zn333   1.954   .     S
O318   Zn336   1.933   .     S
O318   Zn335   1.924   .     S
O319   Zn334   1.922   .     S
O320   Zn336   1.935   .     S
O321   Zn335   1.936   .     S
O322   Zn333   1.924   .     S
O325   Zn333   1.931   .     S
O326   Zn336   1.927   .     S
O327   Zn334   1.925   .     S
O328   Zn335   1.937   .     S
O329   Zn336   1.935   .     S
O330   Zn333   1.922   .     S
O331   Zn334   1.932   .     S
O332   Zn335   1.931   .     S
C337   C343    1.438   .     S
C337   O385    1.272   .     A
C337   O383    1.273   .     A
C338   C358    1.410   .     A
C338   C352    1.390   .     A
C338   H369    1.079   .     S
C339   C352    1.396   .     A
C339   C351    1.390   .     A
C339   H362    1.084   .     S
C340   C342    1.455   .     S
C340   O384    1.277   .     A
C340   O386    1.273   .     A
C341   C350    1.479   .     S
C341   C353    1.400   .     A
C341   C357    1.418   .     A
C342   C399    1.335   .     S
C342   H419    1.088   .     S
C343   C454    1.335   1_455 S
C343   H477    1.086   1_455 S
C344   C347    1.452   .     S
C344   C9      1.332   1_565 S
C344   H30     1.088   1_565 S
C345   C346    1.436   .     S
C346   O381    1.278   .     A
C346   O387    1.278   .     A
C347   O388    1.268   .     A
C347   O382    1.268   .     A
C348   C353    1.387   .     A
C348   C859    1.400   .     S
C348   H875    1.084   .     S
C349   O377    1.269   .     A
C349   O375    1.281   .     A
C349   C352    1.455   .     S
C350   O378    1.284   .     A
C350   O376    1.283   .     A
C351   C863    1.412   1_554 S
C351   I877    2.129   1_554 S
C353   H370    1.083   .     S
C354   O380    1.399   .     S
C354   O379    1.223   .     D
C354   C355    1.486   .     S
C355   C852    1.400   1_554 S
C355   C860    1.431   1_554 S
C356   C357    1.423   .     A
C356   C859    1.431   .     S
C356   C862    1.430   .     S
C357   C361    1.408   .     A
C358   C860    1.430   1_554 S
C358   C863    1.427   1_554 S
C359   C360    1.396   .     A
C359   C855    1.412   .     S
C359   C862    1.427   .     S
C360   H368    1.081   .     S
C360   C361    1.383   .     A
C361   H372    1.080   .     S
H363   C454    1.088   1_455 S
H364   O380    1.014   .     S
H365   C399    1.086   .     S
H367   C9      1.086   1_565 S
H371   C852    1.084   1_554 S
I373   C855    2.129   .     S
O374   Zn390   1.951   .     S
O374   Zn389   1.954   .     S
O374   Zn392   1.933   .     S
O374   Zn391   1.924   .     S
O375   Zn390   1.922   .     S
O376   Zn392   1.935   .     S
O377   Zn391   1.936   .     S
O378   Zn389   1.924   .     S
O381   Zn389   1.931   .     S
O382   Zn392   1.927   .     S
O383   Zn390   1.925   .     S
O384   Zn391   1.937   .     S
O385   Zn392   1.935   .     S
O386   Zn389   1.922   .     S
O387   Zn390   1.932   .     S
O388   Zn391   1.931   .     S
C393   C399    1.438   .     S
C393   O441    1.272   .     A
C393   O439    1.273   .     A
C394   C414    1.410   .     A
C394   C408    1.390   .     A
C394   H425    1.079   .     S
C395   C408    1.396   .     A
C395   C407    1.390   .     A
C395   H418    1.084   .     S
C396   C398    1.455   .     S
C396   O440    1.277   .     A
C396   O442    1.273   .     A
C397   C406    1.479   .     S
C397   C409    1.400   .     A
C397   C413    1.418   .     A
C398   C455    1.335   .     S
C398   H475    1.088   .     S
C400   C403    1.452   .     S
C400   C65     1.332   1_565 S
C400   H86     1.088   1_565 S
C401   C402    1.436   .     S
C402   O437    1.278   .     A
C402   O443    1.278   .     A
C403   O444    1.268   .     A
C403   O438    1.268   .     A
C404   C409    1.387   .     A
C404   C915    1.400   .     S
C404   H931    1.084   .     S
C405   O433    1.269   .     A
C405   O431    1.281   .     A
C405   C408    1.455   .     S
C406   O434    1.284   .     A
C406   O432    1.283   .     A
C407   C919    1.412   1_554 S
C407   I933    2.129   1_554 S
C409   H426    1.083   .     S
C410   O436    1.399   .     S
C410   O435    1.223   .     D
C410   C411    1.486   .     S
C411   C908    1.400   1_554 S
C411   C916    1.431   1_554 S
C412   C413    1.423   .     A
C412   C915    1.431   .     S
C412   C918    1.430   .     S
C413   C417    1.408   .     A
C414   C916    1.430   1_554 S
C414   C919    1.427   1_554 S
C415   C416    1.396   .     A
C415   C911    1.412   .     S
C415   C918    1.427   .     S
C416   H424    1.081   .     S
C416   C417    1.383   .     A
C417   H428    1.080   .     S
H420   O436    1.014   .     S
H421   C455    1.086   .     S
H423   C65     1.086   1_565 S
H427   C908    1.084   1_554 S
I429   C911    2.129   .     S
O430   Zn446   1.951   .     S
O430   Zn445   1.954   .     S
O430   Zn448   1.933   .     S
O430   Zn447   1.924   .     S
O431   Zn446   1.922   .     S
O432   Zn448   1.935   .     S
O433   Zn447   1.936   .     S
O434   Zn445   1.924   .     S
O437   Zn445   1.931   .     S
O438   Zn448   1.927   .     S
O439   Zn446   1.925   .     S
O440   Zn447   1.937   .     S
O441   Zn448   1.935   .     S
O442   Zn445   1.922   .     S
O443   Zn446   1.932   .     S
O444   Zn447   1.931   .     S
C449   C455    1.438   .     S
C449   O497    1.272   .     A
C449   O495    1.273   .     A
C450   C470    1.410   .     A
C450   C464    1.390   .     A
C450   H481    1.079   .     S
C451   C464    1.396   .     A
C451   C463    1.390   .     A
C451   H474    1.084   .     S
C452   C454    1.455   .     S
C452   O496    1.277   .     A
C452   O498    1.273   .     A
C453   C462    1.479   .     S
C453   C465    1.400   .     A
C453   C469    1.418   .     A
C454   C343    1.335   1_655 S
C454   H363    1.088   1_655 S
C456   C459    1.452   .     S
C456   C121    1.332   1_565 S
C456   H142    1.088   1_565 S
C457   C458    1.436   .     S
C458   O493    1.278   .     A
C458   O499    1.278   .     A
C459   O500    1.268   .     A
C459   O494    1.268   .     A
C460   C465    1.387   .     A
C460   C971    1.400   .     S
C460   H987    1.084   .     S
C461   O489    1.269   .     A
C461   O487    1.281   .     A
C461   C464    1.455   .     S
C462   O490    1.284   .     A
C462   O488    1.283   .     A
C463   C975    1.412   1_554 S
C463   I989    2.129   1_554 S
C465   H482    1.083   .     S
C466   O492    1.399   .     S
C466   O491    1.223   .     D
C466   C467    1.486   .     S
C467   C964    1.400   1_554 S
C467   C972    1.431   1_554 S
C468   C469    1.423   .     A
C468   C971    1.431   .     S
C468   C974    1.430   .     S
C469   C473    1.408   .     A
C470   C972    1.430   1_554 S
C470   C975    1.427   1_554 S
C471   C472    1.396   .     A
C471   C967    1.412   .     S
C471   C974    1.427   .     S
C472   H480    1.081   .     S
C472   C473    1.383   .     A
C473   H484    1.080   .     S
H476   O492    1.014   .     S
H477   C343    1.086   1_655 S
H479   C121    1.086   1_565 S
H483   C964    1.084   1_554 S
I485   C967    2.129   .     S
O486   Zn502   1.951   .     S
O486   Zn501   1.954   .     S
O486   Zn504   1.933   .     S
O486   Zn503   1.924   .     S
O487   Zn502   1.922   .     S
O488   Zn504   1.935   .     S
O489   Zn503   1.936   .     S
O490   Zn501   1.924   .     S
O493   Zn501   1.931   .     S
O494   Zn504   1.927   .     S
O495   Zn502   1.925   .     S
O496   Zn503   1.937   .     S
O497   Zn504   1.935   .     S
O498   Zn501   1.922   .     S
O499   Zn502   1.932   .     S
O500   Zn503   1.931   .     S
C505   C511    1.438   .     S
C505   O553    1.272   .     A
C505   O551    1.273   .     A
C506   C526    1.410   .     A
C506   C520    1.390   .     A
C506   H537    1.079   .     S
C507   C520    1.396   .     A
C507   C519    1.390   .     A
C507   H530    1.084   .     S
C508   C510    1.455   .     S
C508   O552    1.277   .     A
C508   O554    1.273   .     A
C509   C518    1.479   .     S
C509   C521    1.400   .     A
C509   C525    1.418   .     A
C510   C567    1.335   .     S
C510   H587    1.088   .     S
C511   C622    1.335   1_455 S
C511   H645    1.086   1_455 S
C512   C515    1.452   .     S
C512   C681    1.332   .     S
C512   H702    1.088   .     S
C513   C514    1.436   .     S
C513   C848    1.332   1_545 S
C513   H871    1.086   1_545 S
C514   O549    1.278   .     A
C514   O555    1.278   .     A
C515   O556    1.268   .     A
C515   O550    1.268   .     A
C516   C521    1.387   .     A
C516   C19     1.400   1_556 S
C516   H35     1.084   1_556 S
C517   O545    1.269   .     A
C517   O543    1.281   .     A
C517   C520    1.455   .     S
C518   O546    1.284   .     A
C518   O544    1.283   .     A
C521   H538    1.083   .     S
C522   O548    1.399   .     S
C522   O547    1.223   .     D
C522   C523    1.486   .     S
C524   C525    1.423   .     A
C524   C19     1.431   1_556 S
C524   C22     1.430   1_556 S
C525   C529    1.408   .     A
C527   C528    1.396   .     A
C527   C15     1.412   1_556 S
C527   C22     1.427   1_556 S
C528   H536    1.081   .     S
C528   C529    1.383   .     A
C529   H540    1.080   .     S
H531   C622    1.088   1_455 S
H532   O548    1.014   .     S
H533   C567    1.086   .     S
H534   C848    1.088   1_545 S
H535   C681    1.086   .     S
I541   C15     2.129   1_556 S
O542   Zn558   1.951   .     S
O542   Zn557   1.954   .     S
O542   Zn560   1.933   .     S
O542   Zn559   1.924   .     S
O543   Zn558   1.922   .     S
O544   Zn560   1.935   .     S
O545   Zn559   1.936   .     S
O546   Zn557   1.924   .     S
O549   Zn557   1.931   .     S
O550   Zn560   1.927   .     S
O551   Zn558   1.925   .     S
O552   Zn559   1.937   .     S
O553   Zn560   1.935   .     S
O554   Zn557   1.922   .     S
O555   Zn558   1.932   .     S
O556   Zn559   1.931   .     S
C561   C567    1.438   .     S
C561   O609    1.272   .     A
C561   O607    1.273   .     A
C562   C582    1.410   .     A
C562   C576    1.390   .     A
C562   H593    1.079   .     S
C563   C576    1.396   .     A
C563   C575    1.390   .     A
C563   H586    1.084   .     S
C564   C566    1.455   .     S
C564   O608    1.277   .     A
C564   O610    1.273   .     A
C565   C574    1.479   .     S
C565   C577    1.400   .     A
C565   C581    1.418   .     A
C566   C623    1.335   .     S
C566   H643    1.088   .     S
C568   C571    1.452   .     S
C568   C737    1.332   .     S
C568   H758    1.088   .     S
C569   C570    1.436   .     S
C569   C904    1.332   1_545 S
C569   H927    1.086   1_545 S
C570   O605    1.278   .     A
C570   O611    1.278   .     A
C571   O612    1.268   .     A
C571   O606    1.268   .     A
C572   C577    1.387   .     A
C572   C75     1.400   1_556 S
C572   H91     1.084   1_556 S
C573   O601    1.269   .     A
C573   O599    1.281   .     A
C573   C576    1.455   .     S
C574   O602    1.284   .     A
C574   O600    1.283   .     A
C577   H594    1.083   .     S
C578   O604    1.399   .     S
C578   O603    1.223   .     D
C578   C579    1.486   .     S
C580   C581    1.423   .     A
C580   C75     1.431   1_556 S
C580   C78     1.430   1_556 S
C581   C585    1.408   .     A
C583   C584    1.396   .     A
C583   C71     1.412   1_556 S
C583   C78     1.427   1_556 S
C584   H592    1.081   .     S
C584   C585    1.383   .     A
C585   H596    1.080   .     S
H588   O604    1.014   .     S
H589   C623    1.086   .     S
H590   C904    1.088   1_545 S
H591   C737    1.086   .     S
I597   C71     2.129   1_556 S
O598   Zn614   1.951   .     S
O598   Zn613   1.954   .     S
O598   Zn616   1.933   .     S
O598   Zn615   1.924   .     S
O599   Zn614   1.922   .     S
O600   Zn616   1.935   .     S
O601   Zn615   1.936   .     S
O602   Zn613   1.924   .     S
O605   Zn613   1.931   .     S
O606   Zn616   1.927   .     S
O607   Zn614   1.925   .     S
O608   Zn615   1.937   .     S
O609   Zn616   1.935   .     S
O610   Zn613   1.922   .     S
O611   Zn614   1.932   .     S
O612   Zn615   1.931   .     S
C617   C623    1.438   .     S
C617   O665    1.272   .     A
C617   O663    1.273   .     A
C618   C638    1.410   .     A
C618   C632    1.390   .     A
C618   H649    1.079   .     S
C619   C632    1.396   .     A
C619   C631    1.390   .     A
C619   H642    1.084   .     S
C620   C622    1.455   .     S
C620   O664    1.277   .     A
C620   O666    1.273   .     A
C621   C630    1.479   .     S
C621   C633    1.400   .     A
C621   C637    1.418   .     A
C622   C511    1.335   1_655 S
C622   H531    1.088   1_655 S
C624   C627    1.452   .     S
C624   C793    1.332   .     S
C624   H814    1.088   .     S
C625   C626    1.436   .     S
C625   C960    1.332   1_545 S
C625   H983    1.086   1_545 S
C626   O661    1.278   .     A
C626   O667    1.278   .     A
C627   O668    1.268   .     A
C627   O662    1.268   .     A
C628   C633    1.387   .     A
C628   C131    1.400   1_556 S
C628   H147    1.084   1_556 S
C629   O657    1.269   .     A
C629   O655    1.281   .     A
C629   C632    1.455   .     S
C630   O658    1.284   .     A
C630   O656    1.283   .     A
C633   H650    1.083   .     S
C634   O660    1.399   .     S
C634   O659    1.223   .     D
C634   C635    1.486   .     S
C636   C637    1.423   .     A
C636   C131    1.431   1_556 S
C636   C134    1.430   1_556 S
C637   C641    1.408   .     A
C639   C640    1.396   .     A
C639   C127    1.412   1_556 S
C639   C134    1.427   1_556 S
C640   H648    1.081   .     S
C640   C641    1.383   .     A
C641   H652    1.080   .     S
H644   O660    1.014   .     S
H645   C511    1.086   1_655 S
H646   C960    1.088   1_545 S
H647   C793    1.086   .     S
I653   C127    2.129   1_556 S
O654   Zn670   1.951   .     S
O654   Zn669   1.954   .     S
O654   Zn672   1.933   .     S
O654   Zn671   1.924   .     S
O655   Zn670   1.922   .     S
O656   Zn672   1.935   .     S
O657   Zn671   1.936   .     S
O658   Zn669   1.924   .     S
O661   Zn669   1.931   .     S
O662   Zn672   1.927   .     S
O663   Zn670   1.925   .     S
O664   Zn671   1.937   .     S
O665   Zn672   1.935   .     S
O666   Zn669   1.922   .     S
O667   Zn670   1.932   .     S
O668   Zn671   1.931   .     S
C673   C679    1.438   .     S
C673   O721    1.272   .     A
C673   O719    1.273   .     A
C674   C694    1.410   .     A
C674   C688    1.390   .     A
C674   H705    1.079   .     S
C675   C688    1.396   .     A
C675   C687    1.390   .     A
C675   H698    1.084   .     S
C676   C678    1.455   .     S
C676   O720    1.277   .     A
C676   O722    1.273   .     A
C677   C686    1.479   .     S
C677   C689    1.400   .     A
C677   C693    1.418   .     A
C678   C735    1.335   .     S
C678   H755    1.088   .     S
C679   C790    1.335   1_455 S
C679   H813    1.086   1_455 S
C680   C683    1.452   .     S
C680   C849    1.332   .     S
C680   H870    1.088   .     S
C681   C682    1.436   .     S
C682   O717    1.278   .     A
C682   O723    1.278   .     A
C683   O724    1.268   .     A
C683   O718    1.268   .     A
C684   C689    1.387   .     A
C684   C187    1.400   1_556 S
C684   H203    1.084   1_556 S
C685   O713    1.269   .     A
C685   O711    1.281   .     A
C685   C688    1.455   .     S
C686   O714    1.284   .     A
C686   O712    1.283   .     A
C689   H706    1.083   .     S
C690   O716    1.399   .     S
C690   O715    1.223   .     D
C690   C691    1.486   .     S
C692   C693    1.423   .     A
C692   C187    1.431   1_556 S
C692   C190    1.430   1_556 S
C693   C697    1.408   .     A
C695   C696    1.396   .     A
C695   C183    1.412   1_556 S
C695   C190    1.427   1_556 S
C696   H704    1.081   .     S
C696   C697    1.383   .     A
C697   H708    1.080   .     S
H699   C790    1.088   1_455 S
H700   O716    1.014   .     S
H701   C735    1.086   .     S
H703   C849    1.086   .     S
I709   C183    2.129   1_556 S
O710   Zn726   1.951   .     S
O710   Zn725   1.954   .     S
O710   Zn728   1.933   .     S
O710   Zn727   1.924   .     S
O711   Zn726   1.922   .     S
O712   Zn728   1.935   .     S
O713   Zn727   1.936   .     S
O714   Zn725   1.924   .     S
O717   Zn725   1.931   .     S
O718   Zn728   1.927   .     S
O719   Zn726   1.925   .     S
O720   Zn727   1.937   .     S
O721   Zn728   1.935   .     S
O722   Zn725   1.922   .     S
O723   Zn726   1.932   .     S
O724   Zn727   1.931   .     S
C729   C735    1.438   .     S
C729   O777    1.272   .     A
C729   O775    1.273   .     A
C730   C750    1.410   .     A
C730   C744    1.390   .     A
C730   H761    1.079   .     S
C731   C744    1.396   .     A
C731   C743    1.390   .     A
C731   H754    1.084   .     S
C732   C734    1.455   .     S
C732   O776    1.277   .     A
C732   O778    1.273   .     A
C733   C742    1.479   .     S
C733   C745    1.400   .     A
C733   C749    1.418   .     A
C734   C791    1.335   .     S
C734   H811    1.088   .     S
C736   C739    1.452   .     S
C736   C905    1.332   .     S
C736   H926    1.088   .     S
C737   C738    1.436   .     S
C738   O773    1.278   .     A
C738   O779    1.278   .     A
C739   O780    1.268   .     A
C739   O774    1.268   .     A
C740   C745    1.387   .     A
C740   C243    1.400   1_556 S
C740   H259    1.084   1_556 S
C741   O769    1.269   .     A
C741   O767    1.281   .     A
C741   C744    1.455   .     S
C742   O770    1.284   .     A
C742   O768    1.283   .     A
C745   H762    1.083   .     S
C746   O772    1.399   .     S
C746   O771    1.223   .     D
C746   C747    1.486   .     S
C748   C749    1.423   .     A
C748   C243    1.431   1_556 S
C748   C246    1.430   1_556 S
C749   C753    1.408   .     A
C751   C752    1.396   .     A
C751   C239    1.412   1_556 S
C751   C246    1.427   1_556 S
C752   H760    1.081   .     S
C752   C753    1.383   .     A
C753   H764    1.080   .     S
H756   O772    1.014   .     S
H757   C791    1.086   .     S
H759   C905    1.086   .     S
I765   C239    2.129   1_556 S
O766   Zn782   1.951   .     S
O766   Zn781   1.954   .     S
O766   Zn784   1.933   .     S
O766   Zn783   1.924   .     S
O767   Zn782   1.922   .     S
O768   Zn784   1.935   .     S
O769   Zn783   1.936   .     S
O770   Zn781   1.924   .     S
O773   Zn781   1.931   .     S
O774   Zn784   1.927   .     S
O775   Zn782   1.925   .     S
O776   Zn783   1.937   .     S
O777   Zn784   1.935   .     S
O778   Zn781   1.922   .     S
O779   Zn782   1.932   .     S
O780   Zn783   1.931   .     S
C785   C791    1.438   .     S
C785   O833    1.272   .     A
C785   O831    1.273   .     A
C786   C806    1.410   .     A
C786   C800    1.390   .     A
C786   H817    1.079   .     S
C787   C800    1.396   .     A
C787   C799    1.390   .     A
C787   H810    1.084   .     S
C788   C790    1.455   .     S
C788   O832    1.277   .     A
C788   O834    1.273   .     A
C789   C798    1.479   .     S
C789   C801    1.400   .     A
C789   C805    1.418   .     A
C790   C679    1.335   1_655 S
C790   H699    1.088   1_655 S
C792   C795    1.452   .     S
C792   C961    1.332   .     S
C792   H982    1.088   .     S
C793   C794    1.436   .     S
C794   O829    1.278   .     A
C794   O835    1.278   .     A
C795   O836    1.268   .     A
C795   O830    1.268   .     A
C796   C801    1.387   .     A
C796   C299    1.400   1_556 S
C796   H315    1.084   1_556 S
C797   O825    1.269   .     A
C797   O823    1.281   .     A
C797   C800    1.455   .     S
C798   O826    1.284   .     A
C798   O824    1.283   .     A
C801   H818    1.083   .     S
C802   O828    1.399   .     S
C802   O827    1.223   .     D
C802   C803    1.486   .     S
C804   C805    1.423   .     A
C804   C299    1.431   1_556 S
C804   C302    1.430   1_556 S
C805   C809    1.408   .     A
C807   C808    1.396   .     A
C807   C295    1.412   1_556 S
C807   C302    1.427   1_556 S
C808   H816    1.081   .     S
C808   C809    1.383   .     A
C809   H820    1.080   .     S
H812   O828    1.014   .     S
H813   C679    1.086   1_655 S
H815   C961    1.086   .     S
I821   C295    2.129   1_556 S
O822   Zn838   1.951   .     S
O822   Zn837   1.954   .     S
O822   Zn840   1.933   .     S
O822   Zn839   1.924   .     S
O823   Zn838   1.922   .     S
O824   Zn840   1.935   .     S
O825   Zn839   1.936   .     S
O826   Zn837   1.924   .     S
O829   Zn837   1.931   .     S
O830   Zn840   1.927   .     S
O831   Zn838   1.925   .     S
O832   Zn839   1.937   .     S
O833   Zn840   1.935   .     S
O834   Zn837   1.922   .     S
O835   Zn838   1.932   .     S
O836   Zn839   1.931   .     S
C841   C847    1.438   .     S
C841   O889    1.272   .     A
C841   O887    1.273   .     A
C842   C862    1.410   .     A
C842   C856    1.390   .     A
C842   H873    1.079   .     S
C843   C856    1.396   .     A
C843   C855    1.390   .     A
C843   H866    1.084   .     S
C844   C846    1.455   .     S
C844   O888    1.277   .     A
C844   O890    1.273   .     A
C845   C854    1.479   .     S
C845   C857    1.400   .     A
C845   C861    1.418   .     A
C846   C903    1.335   .     S
C846   H923    1.088   .     S
C847   C958    1.335   1_455 S
C847   H981    1.086   1_455 S
C848   C851    1.452   .     S
C848   C513    1.332   1_565 S
C848   H534    1.088   1_565 S
C849   C850    1.436   .     S
C850   O885    1.278   .     A
C850   O891    1.278   .     A
C851   O892    1.268   .     A
C851   O886    1.268   .     A
C852   C857    1.387   .     A
C852   C355    1.400   1_556 S
C852   H371    1.084   1_556 S
C853   O881    1.269   .     A
C853   O879    1.281   .     A
C853   C856    1.455   .     S
C854   O882    1.284   .     A
C854   O880    1.283   .     A
C857   H874    1.083   .     S
C858   O884    1.399   .     S
C858   O883    1.223   .     D
C858   C859    1.486   .     S
C860   C861    1.423   .     A
C860   C355    1.431   1_556 S
C860   C358    1.430   1_556 S
C861   C865    1.408   .     A
C863   C864    1.396   .     A
C863   C351    1.412   1_556 S
C863   C358    1.427   1_556 S
C864   H872    1.081   .     S
C864   C865    1.383   .     A
C865   H876    1.080   .     S
H867   C958    1.088   1_455 S
H868   O884    1.014   .     S
H869   C903    1.086   .     S
H871   C513    1.086   1_565 S
I877   C351    2.129   1_556 S
O878   Zn894   1.951   .     S
O878   Zn893   1.954   .     S
O878   Zn896   1.933   .     S
O878   Zn895   1.924   .     S
O879   Zn894   1.922   .     S
O880   Zn896   1.935   .     S
O881   Zn895   1.936   .     S
O882   Zn893   1.924   .     S
O885   Zn893   1.931   .     S
O886   Zn896   1.927   .     S
O887   Zn894   1.925   .     S
O888   Zn895   1.937   .     S
O889   Zn896   1.935   .     S
O890   Zn893   1.922   .     S
O891   Zn894   1.932   .     S
O892   Zn895   1.931   .     S
C897   C903    1.438   .     S
C897   O945    1.272   .     A
C897   O943    1.273   .     A
C898   C918    1.410   .     A
C898   C912    1.390   .     A
C898   H929    1.079   .     S
C899   C912    1.396   .     A
C899   C911    1.390   .     A
C899   H922    1.084   .     S
C900   C902    1.455   .     S
C900   O944    1.277   .     A
C900   O946    1.273   .     A
C901   C910    1.479   .     S
C901   C913    1.400   .     A
C901   C917    1.418   .     A
C902   C959    1.335   .     S
C902   H979    1.088   .     S
C904   C907    1.452   .     S
C904   C569    1.332   1_565 S
C904   H590    1.088   1_565 S
C905   C906    1.436   .     S
C906   O941    1.278   .     A
C906   O947    1.278   .     A
C907   O948    1.268   .     A
C907   O942    1.268   .     A
C908   C913    1.387   .     A
C908   C411    1.400   1_556 S
C908   H427    1.084   1_556 S
C909   O937    1.269   .     A
C909   O935    1.281   .     A
C909   C912    1.455   .     S
C910   O938    1.284   .     A
C910   O936    1.283   .     A
C913   H930    1.083   .     S
C914   O940    1.399   .     S
C914   O939    1.223   .     D
C914   C915    1.486   .     S
C916   C917    1.423   .     A
C916   C411    1.431   1_556 S
C916   C414    1.430   1_556 S
C917   C921    1.408   .     A
C919   C920    1.396   .     A
C919   C407    1.412   1_556 S
C919   C414    1.427   1_556 S
C920   H928    1.081   .     S
C920   C921    1.383   .     A
C921   H932    1.080   .     S
H924   O940    1.014   .     S
H925   C959    1.086   .     S
H927   C569    1.086   1_565 S
I933   C407    2.129   1_556 S
O934   Zn950   1.951   .     S
O934   Zn949   1.954   .     S
O934   Zn952   1.933   .     S
O934   Zn951   1.924   .     S
O935   Zn950   1.922   .     S
O936   Zn952   1.935   .     S
O937   Zn951   1.936   .     S
O938   Zn949   1.924   .     S
O941   Zn949   1.931   .     S
O942   Zn952   1.927   .     S
O943   Zn950   1.925   .     S
O944   Zn951   1.937   .     S
O945   Zn952   1.935   .     S
O946   Zn949   1.922   .     S
O947   Zn950   1.932   .     S
O948   Zn951   1.931   .     S
C953   C959    1.438   .     S
C953   O1001   1.272   .     A
C953   O999    1.273   .     A
C954   C974    1.410   .     A
C954   C968    1.390   .     A
C954   H985    1.079   .     S
C955   C968    1.396   .     A
C955   C967    1.390   .     A
C955   H978    1.084   .     S
C956   C958    1.455   .     S
C956   O1000   1.277   .     A
C956   O1002   1.273   .     A
C957   C966    1.479   .     S
C957   C969    1.400   .     A
C957   C973    1.418   .     A
C958   C847    1.335   1_655 S
C958   H867    1.088   1_655 S
C960   C963    1.452   .     S
C960   C625    1.332   1_565 S
C960   H646    1.088   1_565 S
C961   C962    1.436   .     S
C962   O997    1.278   .     A
C962   O1003   1.278   .     A
C963   O1004   1.268   .     A
C963   O998    1.268   .     A
C964   C969    1.387   .     A
C964   C467    1.400   1_556 S
C964   H483    1.084   1_556 S
C965   O993    1.269   .     A
C965   O991    1.281   .     A
C965   C968    1.455   .     S
C966   O994    1.284   .     A
C966   O992    1.283   .     A
C969   H986    1.083   .     S
C970   O996    1.399   .     S
C970   O995    1.223   .     D
C970   C971    1.486   .     S
C972   C973    1.423   .     A
C972   C467    1.431   1_556 S
C972   C470    1.430   1_556 S
C973   C977    1.408   .     A
C975   C976    1.396   .     A
C975   C463    1.412   1_556 S
C975   C470    1.427   1_556 S
C976   H984    1.081   .     S
C976   C977    1.383   .     A
C977   H988    1.080   .     S
H980   O996    1.014   .     S
H981   C847    1.086   1_655 S
H983   C625    1.086   1_565 S
I989   C463    2.129   1_556 S
O990   Zn1006  1.951   .     S
O990   Zn1005  1.954   .     S
O990   Zn1008  1.933   .     S
O990   Zn1007  1.924   .     S
O991   Zn1006  1.922   .     S
O992   Zn1008  1.935   .     S
O993   Zn1007  1.936   .     S
O994   Zn1005  1.924   .     S
O997   Zn1005  1.931   .     S
O998   Zn1008  1.927   .     S
O999   Zn1006  1.925   .     S
O1000  Zn1007  1.937   .     S
O1001  Zn1008  1.935   .     S
O1002  Zn1005  1.922   .     S
O1003  Zn1006  1.932   .     S
O1004  Zn1007  1.931   .     S
