data_str_m3_o10_o16_pcu_sym.14
_audit_creation_date              2020-01-03
_audit_creation_method            'Materials Studio'
_symmetry_space_group_name_H-M    'P1'
_symmetry_Int_Tables_number       1
_symmetry_cell_setting            triclinic
loop_
_symmetry_equiv_pos_as_xyz
  x,y,z
_cell_length_a                    24.1623
_cell_length_b                    26.3367
_cell_length_c                    26.5295
_cell_angle_alpha                 92.9478
_cell_angle_beta                  107.8577
_cell_angle_gamma                 92.1029
loop_
_atom_site_label
_atom_site_type_symbol
_atom_site_fract_x
_atom_site_fract_y
_atom_site_fract_z
_atom_site_U_iso_or_equiv
_atom_site_adp_type
_atom_site_occupancy
C1     C     0.01315   0.26416   0.24722   0.00000  Uiso   1.00
C2     C     0.06469   0.16417   0.40869   0.00000  Uiso   1.00
C3     C     0.01522   0.31786   0.23973   0.00000  Uiso   1.00
C4     C     0.03849   0.16687   0.35247   0.00000  Uiso   1.00
C5     C     0.31712   0.01563   0.25993   0.00000  Uiso   1.00
C6     C     0.31993   0.06920   0.25220   0.00000  Uiso   1.00
C7     C     0.29448   0.16064   0.14714   0.00000  Uiso   1.00
C8     C     0.28406   0.14054   0.00463   0.00000  Uiso   1.00
C9     C     0.26938   0.15138   0.09005   0.00000  Uiso   1.00
C10    C     0.04946   0.20101   0.44075   0.00000  Uiso   1.00
C11    C     0.06986   0.19887   0.49492   0.00000  Uiso   1.00
C12    C     0.13127   0.13218   0.48757   0.00000  Uiso   1.00
C13    C     0.09849   0.15606   0.01606   0.00000  Uiso   1.00
C14    C     0.00662   0.24356   0.08856   0.00000  Uiso   1.00
C15    C     0.06353   0.27554   0.11294   0.00000  Uiso   1.00
C16    C     0.11563   0.24626   0.14302   0.00000  Uiso   1.00
C17    C     0.23077   0.33331   0.27530   0.00000  Uiso   1.00
C18    C     0.20856   0.02641   0.31676   0.00000  Uiso   1.00
C19    C     0.14305   0.02004   0.30076   0.00000  Uiso   1.00
C20    C     0.20759   0.22902   0.34075   0.00000  Uiso   1.00
C21    C     0.21760   0.22608   0.40023   0.00000  Uiso   1.00
C22    C     0.23347   0.27763   0.43115   0.00000  Uiso   1.00
C23    C     0.11168   0.13292   0.43184   0.00000  Uiso   1.00
C24    C     0.08078   0.08749   0.05936   0.00000  Uiso   1.00
C25    C     0.07968   0.07034   0.11282   0.00000  Uiso   1.00
C26    C     0.13675   0.04849   0.14446   0.00000  Uiso   1.00
C27    C     0.18951   0.12204   0.01356   0.00000  Uiso   1.00
C28    C     0.22747   0.11927   0.48288   0.00000  Uiso   1.00
C29    C     0.20507   0.10533   0.42888   0.00000  Uiso   1.00
C30    C     0.14584   0.10963   0.40348   0.00000  Uiso   1.00
C31    C     0.21401   0.12943   0.06877   0.00000  Uiso   1.00
C32    C     0.30149   0.16327   0.05649   0.00000  Uiso   1.00
H33    H     0.14873   0.14352   0.19864   0.00000  Uiso   1.00
H34    H     0.31404   0.26122   0.05220   0.00000  Uiso   1.00
H35    H     0.07463   0.29528   0.08109   0.00000  Uiso   1.00
H36    H     0.05574   0.30387   0.14159   0.00000  Uiso   1.00
H37    H     0.10317   0.22104   0.17003   0.00000  Uiso   1.00
H38    H     0.15142   0.27319   0.16718   0.00000  Uiso   1.00
H39    H     0.13255   0.22378   0.11510   0.00000  Uiso   1.00
H40    H     0.21240   0.29364   0.26568   0.00000  Uiso   1.00
H41    H     0.21470   0.01894   0.23752   0.00000  Uiso   1.00
H42    H     0.22800   0.01026   0.35538   0.00000  Uiso   1.00
H43    H     0.22211   0.06754   0.32106   0.00000  Uiso   1.00
H44    H     0.23411   0.09872   0.40563   0.00000  Uiso   1.00
H45    H     0.12536   0.05074   0.27482   0.00000  Uiso   1.00
H46    H     0.12759   0.02101   0.33600   0.00000  Uiso   1.00
H47    H     0.12755   0.31646   0.27839   0.00000  Uiso   1.00
H48    H     0.17219   0.25488   0.32554   0.00000  Uiso   1.00
H49    H     0.24866   0.24342   0.33462   0.00000  Uiso   1.00
H50    H     0.17723   0.21049   0.40650   0.00000  Uiso   1.00
H51    H     0.25317   0.20035   0.41615   0.00000  Uiso   1.00
H52    H     0.23998   0.27251   0.47374   0.00000  Uiso   1.00
H53    H     0.27442   0.29465   0.42695   0.00000  Uiso   1.00
H54    H     0.19740   0.30353   0.41743   0.00000  Uiso   1.00
H55    H     0.31120   0.14366   0.47947   0.00000  Uiso   1.00
H56    H     0.11054   0.06364   0.04483   0.00000  Uiso   1.00
H57    H     0.03667   0.07989   0.03043   0.00000  Uiso   1.00
H58    H     0.07143   0.10250   0.13666   0.00000  Uiso   1.00
H59    H     0.04231   0.04261   0.10627   0.00000  Uiso   1.00
H60    H     0.15046   0.01844   0.12075   0.00000  Uiso   1.00
H61    H     0.13008   0.03252   0.18007   0.00000  Uiso   1.00
H62    H     0.17281   0.07792   0.15780   0.00000  Uiso   1.00
H63    H     0.19034   0.12238   0.09578   0.00000  Uiso   1.00
H64    H     0.02149   0.23112   0.42393   0.00000  Uiso   1.00
H65    H     0.05878   0.22855   0.01817   0.00000  Uiso   1.00
H66    H     0.13122   0.10274   0.36126   0.00000  Uiso   1.00
H67    H     0.04030   0.33192   0.21536   0.00000  Uiso   1.00
H68    H     0.31484   0.24571   0.11724   0.00000  Uiso   1.00
N69    N     0.14493   0.15223   0.23542   0.00000  Uiso   1.00
N70    N     0.18840   0.18110   0.26457   0.00000  Uiso   1.00
O71    O     0.29769   0.24629   0.25357   0.00000  Uiso   1.00
O72    O     0.29162   0.33243   0.29648   0.00000  Uiso   1.00
O73    O     0.18949   0.18040   0.31566   0.00000  Uiso   1.00
O74    O     0.09717   0.14029   0.06447   0.00000  Uiso   1.00
O75    O     0.05742   0.23704   0.24423   0.00000  Uiso   1.00
O76    O     0.31490   0.17358   0.33380   0.00000  Uiso   1.00
O77    O     0.07463   0.16433   0.32446   0.00000  Uiso   1.00
O78    O     0.27592   0.09629   0.25576   0.00000  Uiso   1.00
O79    O     0.03565   0.08704   0.24642   0.00000  Uiso   1.00
O80    O     0.25870   0.16901   0.17554   0.00000  Uiso   1.00
O81    O     0.01843   0.15976   0.16620   0.00000  Uiso   1.00
O82    O     0.01868   0.19327   0.07580   0.00000  Uiso   1.00
Zn83   Zn    0.27119   0.17284   0.25623   0.00000  Uiso   1.00
Zn84   Zn    0.06214   0.16049   0.24376   0.00000  Uiso   1.00
C85    C     0.34648   0.26416   0.24722   0.00000  Uiso   1.00
C86    C     0.39802   0.16417   0.40869   0.00000  Uiso   1.00
C87    C     0.34855   0.31786   0.23973   0.00000  Uiso   1.00
C88    C     0.37182   0.16687   0.35247   0.00000  Uiso   1.00
C89    C     0.65046   0.01563   0.25993   0.00000  Uiso   1.00
C90    C     0.65327   0.06920   0.25220   0.00000  Uiso   1.00
C91    C     0.62781   0.16064   0.14714   0.00000  Uiso   1.00
C92    C     0.61740   0.14054   0.00463   0.00000  Uiso   1.00
C93    C     0.60272   0.15138   0.09005   0.00000  Uiso   1.00
C94    C     0.38279   0.20101   0.44075   0.00000  Uiso   1.00
C95    C     0.40319   0.19887   0.49492   0.00000  Uiso   1.00
C96    C     0.46461   0.13218   0.48757   0.00000  Uiso   1.00
C97    C     0.43182   0.15606   0.01606   0.00000  Uiso   1.00
C98    C     0.33995   0.24356   0.08856   0.00000  Uiso   1.00
C99    C     0.39686   0.27554   0.11294   0.00000  Uiso   1.00
C100   C     0.44897   0.24626   0.14302   0.00000  Uiso   1.00
C101   C     0.56411   0.33331   0.27530   0.00000  Uiso   1.00
C102   C     0.54189   0.02641   0.31676   0.00000  Uiso   1.00
C103   C     0.47639   0.02004   0.30076   0.00000  Uiso   1.00
C104   C     0.54092   0.22902   0.34075   0.00000  Uiso   1.00
C105   C     0.55094   0.22608   0.40023   0.00000  Uiso   1.00
C106   C     0.56680   0.27763   0.43115   0.00000  Uiso   1.00
C107   C     0.44501   0.13292   0.43184   0.00000  Uiso   1.00
C108   C     0.41412   0.08749   0.05936   0.00000  Uiso   1.00
C109   C     0.41301   0.07034   0.11282   0.00000  Uiso   1.00
C110   C     0.47008   0.04849   0.14446   0.00000  Uiso   1.00
C111   C     0.52285   0.12204   0.01356   0.00000  Uiso   1.00
C112   C     0.56080   0.11927   0.48288   0.00000  Uiso   1.00
C113   C     0.53840   0.10533   0.42888   0.00000  Uiso   1.00
C114   C     0.47917   0.10963   0.40348   0.00000  Uiso   1.00
C115   C     0.54734   0.12943   0.06877   0.00000  Uiso   1.00
C116   C     0.63482   0.16327   0.05649   0.00000  Uiso   1.00
H117   H     0.48207   0.14352   0.19864   0.00000  Uiso   1.00
H118   H     0.64737   0.26122   0.05220   0.00000  Uiso   1.00
H119   H     0.40797   0.29528   0.08109   0.00000  Uiso   1.00
H120   H     0.38907   0.30387   0.14159   0.00000  Uiso   1.00
H121   H     0.43651   0.22104   0.17003   0.00000  Uiso   1.00
H122   H     0.48475   0.27319   0.16718   0.00000  Uiso   1.00
H123   H     0.46588   0.22378   0.11510   0.00000  Uiso   1.00
H124   H     0.54574   0.29364   0.26568   0.00000  Uiso   1.00
H125   H     0.54803   0.01894   0.23752   0.00000  Uiso   1.00
H126   H     0.56134   0.01026   0.35538   0.00000  Uiso   1.00
H127   H     0.55545   0.06754   0.32106   0.00000  Uiso   1.00
H128   H     0.56744   0.09872   0.40563   0.00000  Uiso   1.00
H129   H     0.45870   0.05074   0.27482   0.00000  Uiso   1.00
H130   H     0.46092   0.02101   0.33600   0.00000  Uiso   1.00
H131   H     0.46088   0.31646   0.27839   0.00000  Uiso   1.00
H132   H     0.50553   0.25488   0.32554   0.00000  Uiso   1.00
H133   H     0.58199   0.24342   0.33462   0.00000  Uiso   1.00
H134   H     0.51057   0.21049   0.40650   0.00000  Uiso   1.00
H135   H     0.58651   0.20035   0.41615   0.00000  Uiso   1.00
H136   H     0.57331   0.27251   0.47374   0.00000  Uiso   1.00
H137   H     0.60776   0.29465   0.42695   0.00000  Uiso   1.00
H138   H     0.53073   0.30353   0.41743   0.00000  Uiso   1.00
H139   H     0.64453   0.14366   0.47947   0.00000  Uiso   1.00
H140   H     0.44387   0.06364   0.04483   0.00000  Uiso   1.00
H141   H     0.37000   0.07989   0.03043   0.00000  Uiso   1.00
H142   H     0.40476   0.10250   0.13666   0.00000  Uiso   1.00
H143   H     0.37565   0.04261   0.10627   0.00000  Uiso   1.00
H144   H     0.48379   0.01844   0.12075   0.00000  Uiso   1.00
H145   H     0.46341   0.03252   0.18007   0.00000  Uiso   1.00
H146   H     0.50615   0.07792   0.15780   0.00000  Uiso   1.00
H147   H     0.52367   0.12238   0.09578   0.00000  Uiso   1.00
H148   H     0.35483   0.23112   0.42393   0.00000  Uiso   1.00
H149   H     0.39212   0.22855   0.01817   0.00000  Uiso   1.00
H150   H     0.46456   0.10274   0.36126   0.00000  Uiso   1.00
H151   H     0.37363   0.33192   0.21536   0.00000  Uiso   1.00
H152   H     0.64817   0.24571   0.11724   0.00000  Uiso   1.00
N153   N     0.47827   0.15223   0.23542   0.00000  Uiso   1.00
N154   N     0.52173   0.18110   0.26457   0.00000  Uiso   1.00
O155   O     0.63102   0.24629   0.25357   0.00000  Uiso   1.00
O156   O     0.62496   0.33243   0.29648   0.00000  Uiso   1.00
O157   O     0.52283   0.18040   0.31566   0.00000  Uiso   1.00
O158   O     0.43051   0.14029   0.06447   0.00000  Uiso   1.00
O159   O     0.39075   0.23704   0.24423   0.00000  Uiso   1.00
O160   O     0.64823   0.17358   0.33380   0.00000  Uiso   1.00
O161   O     0.40796   0.16433   0.32446   0.00000  Uiso   1.00
O162   O     0.60925   0.09629   0.25576   0.00000  Uiso   1.00
O163   O     0.36898   0.08704   0.24642   0.00000  Uiso   1.00
O164   O     0.59204   0.16901   0.17554   0.00000  Uiso   1.00
O165   O     0.35177   0.15976   0.16620   0.00000  Uiso   1.00
O166   O     0.35201   0.19327   0.07580   0.00000  Uiso   1.00
Zn167  Zn    0.60453   0.17284   0.25623   0.00000  Uiso   1.00
Zn168  Zn    0.39547   0.16049   0.24376   0.00000  Uiso   1.00
C169   C     0.67982   0.26416   0.24722   0.00000  Uiso   1.00
C170   C     0.73135   0.16417   0.40869   0.00000  Uiso   1.00
C171   C     0.68189   0.31786   0.23973   0.00000  Uiso   1.00
C172   C     0.70515   0.16687   0.35247   0.00000  Uiso   1.00
C173   C     0.98379   0.01563   0.25993   0.00000  Uiso   1.00
C174   C     0.98660   0.06920   0.25220   0.00000  Uiso   1.00
C175   C     0.96114   0.16064   0.14714   0.00000  Uiso   1.00
C176   C     0.95073   0.14054   0.00463   0.00000  Uiso   1.00
C177   C     0.93605   0.15138   0.09005   0.00000  Uiso   1.00
C178   C     0.71613   0.20101   0.44075   0.00000  Uiso   1.00
C179   C     0.73652   0.19887   0.49492   0.00000  Uiso   1.00
C180   C     0.79794   0.13218   0.48757   0.00000  Uiso   1.00
C181   C     0.76516   0.15606   0.01606   0.00000  Uiso   1.00
C182   C     0.67328   0.24356   0.08856   0.00000  Uiso   1.00
C183   C     0.73020   0.27554   0.11294   0.00000  Uiso   1.00
C184   C     0.78230   0.24626   0.14302   0.00000  Uiso   1.00
C185   C     0.89744   0.33331   0.27530   0.00000  Uiso   1.00
C186   C     0.87522   0.02641   0.31676   0.00000  Uiso   1.00
C187   C     0.80972   0.02004   0.30076   0.00000  Uiso   1.00
C188   C     0.87425   0.22902   0.34075   0.00000  Uiso   1.00
C189   C     0.88427   0.22608   0.40023   0.00000  Uiso   1.00
C190   C     0.90014   0.27763   0.43115   0.00000  Uiso   1.00
C191   C     0.77835   0.13292   0.43184   0.00000  Uiso   1.00
C192   C     0.74745   0.08749   0.05936   0.00000  Uiso   1.00
C193   C     0.74634   0.07034   0.11282   0.00000  Uiso   1.00
C194   C     0.80341   0.04849   0.14446   0.00000  Uiso   1.00
C195   C     0.85618   0.12204   0.01356   0.00000  Uiso   1.00
C196   C     0.89414   0.11927   0.48288   0.00000  Uiso   1.00
C197   C     0.87174   0.10533   0.42888   0.00000  Uiso   1.00
C198   C     0.81251   0.10963   0.40348   0.00000  Uiso   1.00
C199   C     0.88068   0.12943   0.06877   0.00000  Uiso   1.00
C200   C     0.96815   0.16327   0.05649   0.00000  Uiso   1.00
H201   H     0.81540   0.14352   0.19864   0.00000  Uiso   1.00
H202   H     0.98070   0.26122   0.05220   0.00000  Uiso   1.00
H203   H     0.74130   0.29528   0.08109   0.00000  Uiso   1.00
H204   H     0.72240   0.30387   0.14159   0.00000  Uiso   1.00
H205   H     0.76984   0.22104   0.17003   0.00000  Uiso   1.00
H206   H     0.81808   0.27319   0.16718   0.00000  Uiso   1.00
H207   H     0.79921   0.22378   0.11510   0.00000  Uiso   1.00
H208   H     0.87907   0.29364   0.26568   0.00000  Uiso   1.00
H209   H     0.88136   0.01894   0.23752   0.00000  Uiso   1.00
H210   H     0.89467   0.01026   0.35538   0.00000  Uiso   1.00
H211   H     0.88878   0.06754   0.32106   0.00000  Uiso   1.00
H212   H     0.90078   0.09872   0.40563   0.00000  Uiso   1.00
H213   H     0.79203   0.05074   0.27482   0.00000  Uiso   1.00
H214   H     0.79426   0.02101   0.33600   0.00000  Uiso   1.00
H215   H     0.79421   0.31646   0.27839   0.00000  Uiso   1.00
H216   H     0.83886   0.25488   0.32554   0.00000  Uiso   1.00
H217   H     0.91532   0.24342   0.33462   0.00000  Uiso   1.00
H218   H     0.84390   0.21049   0.40650   0.00000  Uiso   1.00
H219   H     0.91984   0.20035   0.41615   0.00000  Uiso   1.00
H220   H     0.90664   0.27251   0.47374   0.00000  Uiso   1.00
H221   H     0.94109   0.29465   0.42695   0.00000  Uiso   1.00
H222   H     0.86406   0.30353   0.41743   0.00000  Uiso   1.00
H223   H     0.97786   0.14366   0.47947   0.00000  Uiso   1.00
H224   H     0.77720   0.06364   0.04483   0.00000  Uiso   1.00
H225   H     0.70334   0.07989   0.03043   0.00000  Uiso   1.00
H226   H     0.73810   0.10250   0.13666   0.00000  Uiso   1.00
H227   H     0.70898   0.04261   0.10627   0.00000  Uiso   1.00
H228   H     0.81713   0.01844   0.12075   0.00000  Uiso   1.00
H229   H     0.79675   0.03252   0.18007   0.00000  Uiso   1.00
H230   H     0.83948   0.07792   0.15780   0.00000  Uiso   1.00
H231   H     0.85700   0.12238   0.09578   0.00000  Uiso   1.00
H232   H     0.68816   0.23112   0.42393   0.00000  Uiso   1.00
H233   H     0.72545   0.22855   0.01817   0.00000  Uiso   1.00
H234   H     0.79789   0.10274   0.36126   0.00000  Uiso   1.00
H235   H     0.70696   0.33192   0.21536   0.00000  Uiso   1.00
H236   H     0.98151   0.24571   0.11724   0.00000  Uiso   1.00
N237   N     0.81160   0.15223   0.23542   0.00000  Uiso   1.00
N238   N     0.85507   0.18110   0.26457   0.00000  Uiso   1.00
O239   O     0.96435   0.24629   0.25357   0.00000  Uiso   1.00
O240   O     0.95829   0.33243   0.29648   0.00000  Uiso   1.00
O241   O     0.85616   0.18040   0.31566   0.00000  Uiso   1.00
O242   O     0.76384   0.14029   0.06447   0.00000  Uiso   1.00
O243   O     0.72408   0.23704   0.24423   0.00000  Uiso   1.00
O244   O     0.98157   0.17358   0.33380   0.00000  Uiso   1.00
O245   O     0.74130   0.16433   0.32446   0.00000  Uiso   1.00
O246   O     0.94258   0.09629   0.25576   0.00000  Uiso   1.00
O247   O     0.70231   0.08704   0.24642   0.00000  Uiso   1.00
O248   O     0.92537   0.16901   0.17554   0.00000  Uiso   1.00
O249   O     0.68510   0.15976   0.16620   0.00000  Uiso   1.00
O250   O     0.68534   0.19327   0.07580   0.00000  Uiso   1.00
Zn251  Zn    0.93786   0.17284   0.25623   0.00000  Uiso   1.00
Zn252  Zn    0.72881   0.16049   0.24376   0.00000  Uiso   1.00
C253   C     0.01315   0.59749   0.24722   0.00000  Uiso   1.00
C254   C     0.06469   0.49751   0.40869   0.00000  Uiso   1.00
C255   C     0.01522   0.65119   0.23973   0.00000  Uiso   1.00
C256   C     0.03849   0.50020   0.35247   0.00000  Uiso   1.00
C257   C     0.31712   0.34896   0.25993   0.00000  Uiso   1.00
C258   C     0.31993   0.40253   0.25220   0.00000  Uiso   1.00
C259   C     0.29448   0.49397   0.14714   0.00000  Uiso   1.00
C260   C     0.28406   0.47387   0.00463   0.00000  Uiso   1.00
C261   C     0.26938   0.48471   0.09005   0.00000  Uiso   1.00
C262   C     0.04946   0.53434   0.44075   0.00000  Uiso   1.00
C263   C     0.06986   0.53220   0.49492   0.00000  Uiso   1.00
C264   C     0.13127   0.46551   0.48757   0.00000  Uiso   1.00
C265   C     0.09849   0.48939   0.01606   0.00000  Uiso   1.00
C266   C     0.00662   0.57690   0.08856   0.00000  Uiso   1.00
C267   C     0.06353   0.60888   0.11294   0.00000  Uiso   1.00
C268   C     0.11563   0.57959   0.14302   0.00000  Uiso   1.00
C269   C     0.23077   0.66665   0.27530   0.00000  Uiso   1.00
C270   C     0.20856   0.35975   0.31676   0.00000  Uiso   1.00
C271   C     0.14305   0.35338   0.30076   0.00000  Uiso   1.00
C272   C     0.20759   0.56235   0.34075   0.00000  Uiso   1.00
C273   C     0.21760   0.55941   0.40023   0.00000  Uiso   1.00
C274   C     0.23347   0.61096   0.43115   0.00000  Uiso   1.00
C275   C     0.11168   0.46625   0.43184   0.00000  Uiso   1.00
C276   C     0.08078   0.42083   0.05936   0.00000  Uiso   1.00
C277   C     0.07968   0.40367   0.11282   0.00000  Uiso   1.00
C278   C     0.13675   0.38182   0.14446   0.00000  Uiso   1.00
C279   C     0.18951   0.45538   0.01356   0.00000  Uiso   1.00
C280   C     0.22747   0.45260   0.48288   0.00000  Uiso   1.00
C281   C     0.20507   0.43866   0.42888   0.00000  Uiso   1.00
C282   C     0.14584   0.44296   0.40348   0.00000  Uiso   1.00
C283   C     0.21401   0.46277   0.06877   0.00000  Uiso   1.00
C284   C     0.30149   0.49660   0.05649   0.00000  Uiso   1.00
H285   H     0.14873   0.47685   0.19864   0.00000  Uiso   1.00
H286   H     0.31404   0.59455   0.05220   0.00000  Uiso   1.00
H287   H     0.07463   0.62862   0.08109   0.00000  Uiso   1.00
H288   H     0.05574   0.63720   0.14159   0.00000  Uiso   1.00
H289   H     0.10317   0.55437   0.17003   0.00000  Uiso   1.00
H290   H     0.15142   0.60652   0.16718   0.00000  Uiso   1.00
H291   H     0.13255   0.55711   0.11510   0.00000  Uiso   1.00
H292   H     0.21240   0.62697   0.26568   0.00000  Uiso   1.00
H293   H     0.21470   0.35227   0.23752   0.00000  Uiso   1.00
H294   H     0.22800   0.34359   0.35538   0.00000  Uiso   1.00
H295   H     0.22211   0.40087   0.32106   0.00000  Uiso   1.00
H296   H     0.23411   0.43206   0.40563   0.00000  Uiso   1.00
H297   H     0.12536   0.38408   0.27482   0.00000  Uiso   1.00
H298   H     0.12759   0.35434   0.33600   0.00000  Uiso   1.00
H299   H     0.12755   0.64979   0.27839   0.00000  Uiso   1.00
H300   H     0.17219   0.58821   0.32554   0.00000  Uiso   1.00
H301   H     0.24866   0.57675   0.33462   0.00000  Uiso   1.00
H302   H     0.17723   0.54383   0.40650   0.00000  Uiso   1.00
H303   H     0.25317   0.53368   0.41615   0.00000  Uiso   1.00
H304   H     0.23998   0.60584   0.47374   0.00000  Uiso   1.00
H305   H     0.27442   0.62799   0.42695   0.00000  Uiso   1.00
H306   H     0.19740   0.63687   0.41743   0.00000  Uiso   1.00
H307   H     0.31120   0.47700   0.47947   0.00000  Uiso   1.00
H308   H     0.11054   0.39697   0.04483   0.00000  Uiso   1.00
H309   H     0.03667   0.41323   0.03043   0.00000  Uiso   1.00
H310   H     0.07143   0.43583   0.13666   0.00000  Uiso   1.00
H311   H     0.04231   0.37594   0.10627   0.00000  Uiso   1.00
H312   H     0.15046   0.35178   0.12075   0.00000  Uiso   1.00
H313   H     0.13008   0.36585   0.18007   0.00000  Uiso   1.00
H314   H     0.17281   0.41126   0.15780   0.00000  Uiso   1.00
H315   H     0.19034   0.45571   0.09578   0.00000  Uiso   1.00
H316   H     0.02149   0.56445   0.42393   0.00000  Uiso   1.00
H317   H     0.05878   0.56189   0.01817   0.00000  Uiso   1.00
H318   H     0.13122   0.43608   0.36126   0.00000  Uiso   1.00
H319   H     0.04030   0.66525   0.21536   0.00000  Uiso   1.00
H320   H     0.31484   0.57905   0.11724   0.00000  Uiso   1.00
N321   N     0.14493   0.48556   0.23542   0.00000  Uiso   1.00
N322   N     0.18840   0.51444   0.26457   0.00000  Uiso   1.00
O323   O     0.29769   0.57963   0.25357   0.00000  Uiso   1.00
O324   O     0.29162   0.66577   0.29648   0.00000  Uiso   1.00
O325   O     0.18949   0.51373   0.31566   0.00000  Uiso   1.00
O326   O     0.09717   0.47363   0.06447   0.00000  Uiso   1.00
O327   O     0.05742   0.57038   0.24423   0.00000  Uiso   1.00
O328   O     0.31490   0.50691   0.33380   0.00000  Uiso   1.00
O329   O     0.07463   0.49766   0.32446   0.00000  Uiso   1.00
O330   O     0.27592   0.42962   0.25576   0.00000  Uiso   1.00
O331   O     0.03565   0.42037   0.24642   0.00000  Uiso   1.00
O332   O     0.25870   0.50234   0.17554   0.00000  Uiso   1.00
O333   O     0.01843   0.49309   0.16620   0.00000  Uiso   1.00
O334   O     0.01868   0.52661   0.07580   0.00000  Uiso   1.00
Zn335  Zn    0.27119   0.50618   0.25623   0.00000  Uiso   1.00
Zn336  Zn    0.06214   0.49382   0.24376   0.00000  Uiso   1.00
C337   C     0.34648   0.59749   0.24722   0.00000  Uiso   1.00
C338   C     0.39802   0.49751   0.40869   0.00000  Uiso   1.00
C339   C     0.34855   0.65119   0.23973   0.00000  Uiso   1.00
C340   C     0.37182   0.50020   0.35247   0.00000  Uiso   1.00
C341   C     0.65046   0.34896   0.25993   0.00000  Uiso   1.00
C342   C     0.65327   0.40253   0.25220   0.00000  Uiso   1.00
C343   C     0.62781   0.49397   0.14714   0.00000  Uiso   1.00
C344   C     0.61740   0.47387   0.00463   0.00000  Uiso   1.00
C345   C     0.60272   0.48471   0.09005   0.00000  Uiso   1.00
C346   C     0.38279   0.53434   0.44075   0.00000  Uiso   1.00
C347   C     0.40319   0.53220   0.49492   0.00000  Uiso   1.00
C348   C     0.46461   0.46551   0.48757   0.00000  Uiso   1.00
C349   C     0.43182   0.48939   0.01606   0.00000  Uiso   1.00
C350   C     0.33995   0.57690   0.08856   0.00000  Uiso   1.00
C351   C     0.39686   0.60888   0.11294   0.00000  Uiso   1.00
C352   C     0.44897   0.57959   0.14302   0.00000  Uiso   1.00
C353   C     0.56411   0.66665   0.27530   0.00000  Uiso   1.00
C354   C     0.54189   0.35975   0.31676   0.00000  Uiso   1.00
C355   C     0.47639   0.35338   0.30076   0.00000  Uiso   1.00
C356   C     0.54092   0.56235   0.34075   0.00000  Uiso   1.00
C357   C     0.55094   0.55941   0.40023   0.00000  Uiso   1.00
C358   C     0.56680   0.61096   0.43115   0.00000  Uiso   1.00
C359   C     0.44501   0.46625   0.43184   0.00000  Uiso   1.00
C360   C     0.41412   0.42083   0.05936   0.00000  Uiso   1.00
C361   C     0.41301   0.40367   0.11282   0.00000  Uiso   1.00
C362   C     0.47008   0.38182   0.14446   0.00000  Uiso   1.00
C363   C     0.52285   0.45538   0.01356   0.00000  Uiso   1.00
C364   C     0.56080   0.45260   0.48288   0.00000  Uiso   1.00
C365   C     0.53840   0.43866   0.42888   0.00000  Uiso   1.00
C366   C     0.47917   0.44296   0.40348   0.00000  Uiso   1.00
C367   C     0.54734   0.46277   0.06877   0.00000  Uiso   1.00
C368   C     0.63482   0.49660   0.05649   0.00000  Uiso   1.00
H369   H     0.48207   0.47685   0.19864   0.00000  Uiso   1.00
H370   H     0.64737   0.59455   0.05220   0.00000  Uiso   1.00
H371   H     0.40797   0.62862   0.08109   0.00000  Uiso   1.00
H372   H     0.38907   0.63720   0.14159   0.00000  Uiso   1.00
H373   H     0.43651   0.55437   0.17003   0.00000  Uiso   1.00
H374   H     0.48475   0.60652   0.16718   0.00000  Uiso   1.00
H375   H     0.46588   0.55711   0.11510   0.00000  Uiso   1.00
H376   H     0.54574   0.62697   0.26568   0.00000  Uiso   1.00
H377   H     0.54803   0.35227   0.23752   0.00000  Uiso   1.00
H378   H     0.56134   0.34359   0.35538   0.00000  Uiso   1.00
H379   H     0.55545   0.40087   0.32106   0.00000  Uiso   1.00
H380   H     0.56744   0.43206   0.40563   0.00000  Uiso   1.00
H381   H     0.45870   0.38408   0.27482   0.00000  Uiso   1.00
H382   H     0.46092   0.35434   0.33600   0.00000  Uiso   1.00
H383   H     0.46088   0.64979   0.27839   0.00000  Uiso   1.00
H384   H     0.50553   0.58821   0.32554   0.00000  Uiso   1.00
H385   H     0.58199   0.57675   0.33462   0.00000  Uiso   1.00
H386   H     0.51057   0.54383   0.40650   0.00000  Uiso   1.00
H387   H     0.58651   0.53368   0.41615   0.00000  Uiso   1.00
H388   H     0.57331   0.60584   0.47374   0.00000  Uiso   1.00
H389   H     0.60776   0.62799   0.42695   0.00000  Uiso   1.00
H390   H     0.53073   0.63687   0.41743   0.00000  Uiso   1.00
H391   H     0.64453   0.47700   0.47947   0.00000  Uiso   1.00
H392   H     0.44387   0.39697   0.04483   0.00000  Uiso   1.00
H393   H     0.37000   0.41323   0.03043   0.00000  Uiso   1.00
H394   H     0.40476   0.43583   0.13666   0.00000  Uiso   1.00
H395   H     0.37565   0.37594   0.10627   0.00000  Uiso   1.00
H396   H     0.48379   0.35178   0.12075   0.00000  Uiso   1.00
H397   H     0.46341   0.36585   0.18007   0.00000  Uiso   1.00
H398   H     0.50615   0.41126   0.15780   0.00000  Uiso   1.00
H399   H     0.52367   0.45571   0.09578   0.00000  Uiso   1.00
H400   H     0.35483   0.56445   0.42393   0.00000  Uiso   1.00
H401   H     0.39212   0.56189   0.01817   0.00000  Uiso   1.00
H402   H     0.46456   0.43608   0.36126   0.00000  Uiso   1.00
H403   H     0.37363   0.66525   0.21536   0.00000  Uiso   1.00
H404   H     0.64817   0.57905   0.11724   0.00000  Uiso   1.00
N405   N     0.47827   0.48556   0.23542   0.00000  Uiso   1.00
N406   N     0.52173   0.51444   0.26457   0.00000  Uiso   1.00
O407   O     0.63102   0.57963   0.25357   0.00000  Uiso   1.00
O408   O     0.62496   0.66577   0.29648   0.00000  Uiso   1.00
O409   O     0.52283   0.51373   0.31566   0.00000  Uiso   1.00
O410   O     0.43051   0.47363   0.06447   0.00000  Uiso   1.00
O411   O     0.39075   0.57038   0.24423   0.00000  Uiso   1.00
O412   O     0.64823   0.50691   0.33380   0.00000  Uiso   1.00
O413   O     0.40796   0.49766   0.32446   0.00000  Uiso   1.00
O414   O     0.60925   0.42962   0.25576   0.00000  Uiso   1.00
O415   O     0.36898   0.42037   0.24642   0.00000  Uiso   1.00
O416   O     0.59204   0.50234   0.17554   0.00000  Uiso   1.00
O417   O     0.35177   0.49309   0.16620   0.00000  Uiso   1.00
O418   O     0.35201   0.52661   0.07580   0.00000  Uiso   1.00
Zn419  Zn    0.60453   0.50618   0.25623   0.00000  Uiso   1.00
Zn420  Zn    0.39547   0.49382   0.24376   0.00000  Uiso   1.00
C421   C     0.67982   0.59749   0.24722   0.00000  Uiso   1.00
C422   C     0.73135   0.49751   0.40869   0.00000  Uiso   1.00
C423   C     0.68189   0.65119   0.23973   0.00000  Uiso   1.00
C424   C     0.70515   0.50020   0.35247   0.00000  Uiso   1.00
C425   C     0.98379   0.34896   0.25993   0.00000  Uiso   1.00
C426   C     0.98660   0.40253   0.25220   0.00000  Uiso   1.00
C427   C     0.96114   0.49397   0.14714   0.00000  Uiso   1.00
C428   C     0.95073   0.47387   0.00463   0.00000  Uiso   1.00
C429   C     0.93605   0.48471   0.09005   0.00000  Uiso   1.00
C430   C     0.71613   0.53434   0.44075   0.00000  Uiso   1.00
C431   C     0.73652   0.53220   0.49492   0.00000  Uiso   1.00
C432   C     0.79794   0.46551   0.48757   0.00000  Uiso   1.00
C433   C     0.76516   0.48939   0.01606   0.00000  Uiso   1.00
C434   C     0.67328   0.57690   0.08856   0.00000  Uiso   1.00
C435   C     0.73020   0.60888   0.11294   0.00000  Uiso   1.00
C436   C     0.78230   0.57959   0.14302   0.00000  Uiso   1.00
C437   C     0.89744   0.66665   0.27530   0.00000  Uiso   1.00
C438   C     0.87522   0.35975   0.31676   0.00000  Uiso   1.00
C439   C     0.80972   0.35338   0.30076   0.00000  Uiso   1.00
C440   C     0.87425   0.56235   0.34075   0.00000  Uiso   1.00
C441   C     0.88427   0.55941   0.40023   0.00000  Uiso   1.00
C442   C     0.90014   0.61096   0.43115   0.00000  Uiso   1.00
C443   C     0.77835   0.46625   0.43184   0.00000  Uiso   1.00
C444   C     0.74745   0.42083   0.05936   0.00000  Uiso   1.00
C445   C     0.74634   0.40367   0.11282   0.00000  Uiso   1.00
C446   C     0.80341   0.38182   0.14446   0.00000  Uiso   1.00
C447   C     0.85618   0.45538   0.01356   0.00000  Uiso   1.00
C448   C     0.89414   0.45260   0.48288   0.00000  Uiso   1.00
C449   C     0.87174   0.43866   0.42888   0.00000  Uiso   1.00
C450   C     0.81251   0.44296   0.40348   0.00000  Uiso   1.00
C451   C     0.88068   0.46277   0.06877   0.00000  Uiso   1.00
C452   C     0.96815   0.49660   0.05649   0.00000  Uiso   1.00
H453   H     0.81540   0.47685   0.19864   0.00000  Uiso   1.00
H454   H     0.98070   0.59455   0.05220   0.00000  Uiso   1.00
H455   H     0.74130   0.62862   0.08109   0.00000  Uiso   1.00
H456   H     0.72240   0.63720   0.14159   0.00000  Uiso   1.00
H457   H     0.76984   0.55437   0.17003   0.00000  Uiso   1.00
H458   H     0.81808   0.60652   0.16718   0.00000  Uiso   1.00
H459   H     0.79921   0.55711   0.11510   0.00000  Uiso   1.00
H460   H     0.87907   0.62697   0.26568   0.00000  Uiso   1.00
H461   H     0.88136   0.35227   0.23752   0.00000  Uiso   1.00
H462   H     0.89467   0.34359   0.35538   0.00000  Uiso   1.00
H463   H     0.88878   0.40087   0.32106   0.00000  Uiso   1.00
H464   H     0.90078   0.43206   0.40563   0.00000  Uiso   1.00
H465   H     0.79203   0.38408   0.27482   0.00000  Uiso   1.00
H466   H     0.79426   0.35434   0.33600   0.00000  Uiso   1.00
H467   H     0.79421   0.64979   0.27839   0.00000  Uiso   1.00
H468   H     0.83886   0.58821   0.32554   0.00000  Uiso   1.00
H469   H     0.91532   0.57675   0.33462   0.00000  Uiso   1.00
H470   H     0.84390   0.54383   0.40650   0.00000  Uiso   1.00
H471   H     0.91984   0.53368   0.41615   0.00000  Uiso   1.00
H472   H     0.90664   0.60584   0.47374   0.00000  Uiso   1.00
H473   H     0.94109   0.62799   0.42695   0.00000  Uiso   1.00
H474   H     0.86406   0.63687   0.41743   0.00000  Uiso   1.00
H475   H     0.97786   0.47700   0.47947   0.00000  Uiso   1.00
H476   H     0.77720   0.39697   0.04483   0.00000  Uiso   1.00
H477   H     0.70334   0.41323   0.03043   0.00000  Uiso   1.00
H478   H     0.73810   0.43583   0.13666   0.00000  Uiso   1.00
H479   H     0.70898   0.37594   0.10627   0.00000  Uiso   1.00
H480   H     0.81713   0.35178   0.12075   0.00000  Uiso   1.00
H481   H     0.79675   0.36585   0.18007   0.00000  Uiso   1.00
H482   H     0.83948   0.41126   0.15780   0.00000  Uiso   1.00
H483   H     0.85700   0.45571   0.09578   0.00000  Uiso   1.00
H484   H     0.68816   0.56445   0.42393   0.00000  Uiso   1.00
H485   H     0.72545   0.56189   0.01817   0.00000  Uiso   1.00
H486   H     0.79789   0.43608   0.36126   0.00000  Uiso   1.00
H487   H     0.70696   0.66525   0.21536   0.00000  Uiso   1.00
H488   H     0.98151   0.57905   0.11724   0.00000  Uiso   1.00
N489   N     0.81160   0.48556   0.23542   0.00000  Uiso   1.00
N490   N     0.85507   0.51444   0.26457   0.00000  Uiso   1.00
O491   O     0.96435   0.57963   0.25357   0.00000  Uiso   1.00
O492   O     0.95829   0.66577   0.29648   0.00000  Uiso   1.00
O493   O     0.85616   0.51373   0.31566   0.00000  Uiso   1.00
O494   O     0.76384   0.47363   0.06447   0.00000  Uiso   1.00
O495   O     0.72408   0.57038   0.24423   0.00000  Uiso   1.00
O496   O     0.98157   0.50691   0.33380   0.00000  Uiso   1.00
O497   O     0.74130   0.49766   0.32446   0.00000  Uiso   1.00
O498   O     0.94258   0.42962   0.25576   0.00000  Uiso   1.00
O499   O     0.70231   0.42037   0.24642   0.00000  Uiso   1.00
O500   O     0.92537   0.50234   0.17554   0.00000  Uiso   1.00
O501   O     0.68510   0.49309   0.16620   0.00000  Uiso   1.00
O502   O     0.68534   0.52661   0.07580   0.00000  Uiso   1.00
Zn503  Zn    0.93786   0.50618   0.25623   0.00000  Uiso   1.00
Zn504  Zn    0.72881   0.49382   0.24376   0.00000  Uiso   1.00
C505   C     0.01315   0.93083   0.24722   0.00000  Uiso   1.00
C506   C     0.06469   0.83084   0.40869   0.00000  Uiso   1.00
C507   C     0.01522   0.98453   0.23973   0.00000  Uiso   1.00
C508   C     0.03849   0.83353   0.35247   0.00000  Uiso   1.00
C509   C     0.31712   0.68229   0.25993   0.00000  Uiso   1.00
C510   C     0.31993   0.73587   0.25220   0.00000  Uiso   1.00
C511   C     0.29448   0.82731   0.14714   0.00000  Uiso   1.00
C512   C     0.28406   0.80720   0.00463   0.00000  Uiso   1.00
C513   C     0.26938   0.81804   0.09005   0.00000  Uiso   1.00
C514   C     0.04946   0.86768   0.44075   0.00000  Uiso   1.00
C515   C     0.06986   0.86553   0.49492   0.00000  Uiso   1.00
C516   C     0.13127   0.79885   0.48757   0.00000  Uiso   1.00
C517   C     0.09849   0.82272   0.01606   0.00000  Uiso   1.00
C518   C     0.00662   0.91023   0.08856   0.00000  Uiso   1.00
C519   C     0.06353   0.94221   0.11294   0.00000  Uiso   1.00
C520   C     0.11563   0.91293   0.14302   0.00000  Uiso   1.00
C521   C     0.23077   0.99998   0.27530   0.00000  Uiso   1.00
C522   C     0.20856   0.69308   0.31676   0.00000  Uiso   1.00
C523   C     0.14305   0.68671   0.30076   0.00000  Uiso   1.00
C524   C     0.20759   0.89569   0.34075   0.00000  Uiso   1.00
C525   C     0.21760   0.89274   0.40023   0.00000  Uiso   1.00
C526   C     0.23347   0.94430   0.43115   0.00000  Uiso   1.00
C527   C     0.11168   0.79959   0.43184   0.00000  Uiso   1.00
C528   C     0.08078   0.75416   0.05936   0.00000  Uiso   1.00
C529   C     0.07968   0.73700   0.11282   0.00000  Uiso   1.00
C530   C     0.13675   0.71515   0.14446   0.00000  Uiso   1.00
C531   C     0.18951   0.78871   0.01356   0.00000  Uiso   1.00
C532   C     0.22747   0.78594   0.48288   0.00000  Uiso   1.00
C533   C     0.20507   0.77199   0.42888   0.00000  Uiso   1.00
C534   C     0.14584   0.77630   0.40348   0.00000  Uiso   1.00
C535   C     0.21401   0.79610   0.06877   0.00000  Uiso   1.00
C536   C     0.30149   0.82994   0.05649   0.00000  Uiso   1.00
H537   H     0.14873   0.81018   0.19864   0.00000  Uiso   1.00
H538   H     0.31404   0.92788   0.05220   0.00000  Uiso   1.00
H539   H     0.07463   0.96195   0.08109   0.00000  Uiso   1.00
H540   H     0.05574   0.97054   0.14159   0.00000  Uiso   1.00
H541   H     0.10317   0.88770   0.17003   0.00000  Uiso   1.00
H542   H     0.15142   0.93985   0.16718   0.00000  Uiso   1.00
H543   H     0.13255   0.89045   0.11510   0.00000  Uiso   1.00
H544   H     0.21240   0.96031   0.26568   0.00000  Uiso   1.00
H545   H     0.21470   0.68560   0.23752   0.00000  Uiso   1.00
H546   H     0.22800   0.67693   0.35538   0.00000  Uiso   1.00
H547   H     0.22211   0.73421   0.32106   0.00000  Uiso   1.00
H548   H     0.23411   0.76539   0.40563   0.00000  Uiso   1.00
H549   H     0.12536   0.71741   0.27482   0.00000  Uiso   1.00
H550   H     0.12759   0.68768   0.33600   0.00000  Uiso   1.00
H551   H     0.12755   0.98312   0.27839   0.00000  Uiso   1.00
H552   H     0.17219   0.92154   0.32554   0.00000  Uiso   1.00
H553   H     0.24866   0.91009   0.33462   0.00000  Uiso   1.00
H554   H     0.17723   0.87716   0.40650   0.00000  Uiso   1.00
H555   H     0.25317   0.86701   0.41615   0.00000  Uiso   1.00
H556   H     0.23998   0.93918   0.47374   0.00000  Uiso   1.00
H557   H     0.27442   0.96132   0.42695   0.00000  Uiso   1.00
H558   H     0.19740   0.97020   0.41743   0.00000  Uiso   1.00
H559   H     0.31120   0.81033   0.47947   0.00000  Uiso   1.00
H560   H     0.11054   0.73030   0.04483   0.00000  Uiso   1.00
H561   H     0.03667   0.74656   0.03043   0.00000  Uiso   1.00
H562   H     0.07143   0.76916   0.13666   0.00000  Uiso   1.00
H563   H     0.04231   0.70928   0.10627   0.00000  Uiso   1.00
H564   H     0.15046   0.68511   0.12075   0.00000  Uiso   1.00
H565   H     0.13008   0.69919   0.18007   0.00000  Uiso   1.00
H566   H     0.17281   0.74459   0.15780   0.00000  Uiso   1.00
H567   H     0.19034   0.78904   0.09578   0.00000  Uiso   1.00
H568   H     0.02149   0.89778   0.42393   0.00000  Uiso   1.00
H569   H     0.05878   0.89522   0.01817   0.00000  Uiso   1.00
H570   H     0.13122   0.76941   0.36126   0.00000  Uiso   1.00
H571   H     0.04030   0.99859   0.21536   0.00000  Uiso   1.00
H572   H     0.31484   0.91238   0.11724   0.00000  Uiso   1.00
N573   N     0.14493   0.81890   0.23542   0.00000  Uiso   1.00
N574   N     0.18840   0.84777   0.26457   0.00000  Uiso   1.00
O575   O     0.29769   0.91296   0.25357   0.00000  Uiso   1.00
O576   O     0.29162   0.99910   0.29648   0.00000  Uiso   1.00
O577   O     0.18949   0.84707   0.31566   0.00000  Uiso   1.00
O578   O     0.09717   0.80696   0.06447   0.00000  Uiso   1.00
O579   O     0.05742   0.90371   0.24423   0.00000  Uiso   1.00
O580   O     0.31490   0.84024   0.33380   0.00000  Uiso   1.00
O581   O     0.07463   0.83099   0.32446   0.00000  Uiso   1.00
O582   O     0.27592   0.76296   0.25576   0.00000  Uiso   1.00
O583   O     0.03565   0.75371   0.24642   0.00000  Uiso   1.00
O584   O     0.25870   0.83567   0.17554   0.00000  Uiso   1.00
O585   O     0.01843   0.82642   0.16620   0.00000  Uiso   1.00
O586   O     0.01868   0.85994   0.07580   0.00000  Uiso   1.00
Zn587  Zn    0.27119   0.83951   0.25623   0.00000  Uiso   1.00
Zn588  Zn    0.06214   0.82716   0.24376   0.00000  Uiso   1.00
C589   C     0.34648   0.93083   0.24722   0.00000  Uiso   1.00
C590   C     0.39802   0.83084   0.40869   0.00000  Uiso   1.00
C591   C     0.34855   0.98453   0.23973   0.00000  Uiso   1.00
C592   C     0.37182   0.83353   0.35247   0.00000  Uiso   1.00
C593   C     0.65046   0.68229   0.25993   0.00000  Uiso   1.00
C594   C     0.65327   0.73587   0.25220   0.00000  Uiso   1.00
C595   C     0.62781   0.82731   0.14714   0.00000  Uiso   1.00
C596   C     0.61740   0.80720   0.00463   0.00000  Uiso   1.00
C597   C     0.60272   0.81804   0.09005   0.00000  Uiso   1.00
C598   C     0.38279   0.86768   0.44075   0.00000  Uiso   1.00
C599   C     0.40319   0.86553   0.49492   0.00000  Uiso   1.00
C600   C     0.46461   0.79885   0.48757   0.00000  Uiso   1.00
C601   C     0.43182   0.82272   0.01606   0.00000  Uiso   1.00
C602   C     0.33995   0.91023   0.08856   0.00000  Uiso   1.00
C603   C     0.39686   0.94221   0.11294   0.00000  Uiso   1.00
C604   C     0.44897   0.91293   0.14302   0.00000  Uiso   1.00
C605   C     0.56411   0.99998   0.27530   0.00000  Uiso   1.00
C606   C     0.54189   0.69308   0.31676   0.00000  Uiso   1.00
C607   C     0.47639   0.68671   0.30076   0.00000  Uiso   1.00
C608   C     0.54092   0.89569   0.34075   0.00000  Uiso   1.00
C609   C     0.55094   0.89274   0.40023   0.00000  Uiso   1.00
C610   C     0.56680   0.94430   0.43115   0.00000  Uiso   1.00
C611   C     0.44501   0.79959   0.43184   0.00000  Uiso   1.00
C612   C     0.41412   0.75416   0.05936   0.00000  Uiso   1.00
C613   C     0.41301   0.73700   0.11282   0.00000  Uiso   1.00
C614   C     0.47008   0.71515   0.14446   0.00000  Uiso   1.00
C615   C     0.52285   0.78871   0.01356   0.00000  Uiso   1.00
C616   C     0.56080   0.78594   0.48288   0.00000  Uiso   1.00
C617   C     0.53840   0.77199   0.42888   0.00000  Uiso   1.00
C618   C     0.47917   0.77630   0.40348   0.00000  Uiso   1.00
C619   C     0.54734   0.79610   0.06877   0.00000  Uiso   1.00
C620   C     0.63482   0.82994   0.05649   0.00000  Uiso   1.00
H621   H     0.48207   0.81018   0.19864   0.00000  Uiso   1.00
H622   H     0.64737   0.92788   0.05220   0.00000  Uiso   1.00
H623   H     0.40797   0.96195   0.08109   0.00000  Uiso   1.00
H624   H     0.38907   0.97054   0.14159   0.00000  Uiso   1.00
H625   H     0.43651   0.88770   0.17003   0.00000  Uiso   1.00
H626   H     0.48475   0.93985   0.16718   0.00000  Uiso   1.00
H627   H     0.46588   0.89045   0.11510   0.00000  Uiso   1.00
H628   H     0.54574   0.96031   0.26568   0.00000  Uiso   1.00
H629   H     0.54803   0.68560   0.23752   0.00000  Uiso   1.00
H630   H     0.56134   0.67693   0.35538   0.00000  Uiso   1.00
H631   H     0.55545   0.73421   0.32106   0.00000  Uiso   1.00
H632   H     0.56744   0.76539   0.40563   0.00000  Uiso   1.00
H633   H     0.45870   0.71741   0.27482   0.00000  Uiso   1.00
H634   H     0.46092   0.68768   0.33600   0.00000  Uiso   1.00
H635   H     0.46088   0.98312   0.27839   0.00000  Uiso   1.00
H636   H     0.50553   0.92154   0.32554   0.00000  Uiso   1.00
H637   H     0.58199   0.91009   0.33462   0.00000  Uiso   1.00
H638   H     0.51057   0.87716   0.40650   0.00000  Uiso   1.00
H639   H     0.58651   0.86701   0.41615   0.00000  Uiso   1.00
H640   H     0.57331   0.93918   0.47374   0.00000  Uiso   1.00
H641   H     0.60776   0.96132   0.42695   0.00000  Uiso   1.00
H642   H     0.53073   0.97020   0.41743   0.00000  Uiso   1.00
H643   H     0.64453   0.81033   0.47947   0.00000  Uiso   1.00
H644   H     0.44387   0.73030   0.04483   0.00000  Uiso   1.00
H645   H     0.37000   0.74656   0.03043   0.00000  Uiso   1.00
H646   H     0.40476   0.76916   0.13666   0.00000  Uiso   1.00
H647   H     0.37565   0.70928   0.10627   0.00000  Uiso   1.00
H648   H     0.48379   0.68511   0.12075   0.00000  Uiso   1.00
H649   H     0.46341   0.69919   0.18007   0.00000  Uiso   1.00
H650   H     0.50615   0.74459   0.15780   0.00000  Uiso   1.00
H651   H     0.52367   0.78904   0.09578   0.00000  Uiso   1.00
H652   H     0.35483   0.89778   0.42393   0.00000  Uiso   1.00
H653   H     0.39212   0.89522   0.01817   0.00000  Uiso   1.00
H654   H     0.46456   0.76941   0.36126   0.00000  Uiso   1.00
H655   H     0.37363   0.99859   0.21536   0.00000  Uiso   1.00
H656   H     0.64817   0.91238   0.11724   0.00000  Uiso   1.00
N657   N     0.47827   0.81890   0.23542   0.00000  Uiso   1.00
N658   N     0.52173   0.84777   0.26457   0.00000  Uiso   1.00
O659   O     0.63102   0.91296   0.25357   0.00000  Uiso   1.00
O660   O     0.62496   0.99910   0.29648   0.00000  Uiso   1.00
O661   O     0.52283   0.84707   0.31566   0.00000  Uiso   1.00
O662   O     0.43051   0.80696   0.06447   0.00000  Uiso   1.00
O663   O     0.39075   0.90371   0.24423   0.00000  Uiso   1.00
O664   O     0.64823   0.84024   0.33380   0.00000  Uiso   1.00
O665   O     0.40796   0.83099   0.32446   0.00000  Uiso   1.00
O666   O     0.60925   0.76296   0.25576   0.00000  Uiso   1.00
O667   O     0.36898   0.75371   0.24642   0.00000  Uiso   1.00
O668   O     0.59204   0.83567   0.17554   0.00000  Uiso   1.00
O669   O     0.35177   0.82642   0.16620   0.00000  Uiso   1.00
O670   O     0.35201   0.85994   0.07580   0.00000  Uiso   1.00
Zn671  Zn    0.60453   0.83951   0.25623   0.00000  Uiso   1.00
Zn672  Zn    0.39547   0.82716   0.24376   0.00000  Uiso   1.00
C673   C     0.67982   0.93083   0.24722   0.00000  Uiso   1.00
C674   C     0.73135   0.83084   0.40869   0.00000  Uiso   1.00
C675   C     0.68189   0.98453   0.23973   0.00000  Uiso   1.00
C676   C     0.70515   0.83353   0.35247   0.00000  Uiso   1.00
C677   C     0.98379   0.68229   0.25993   0.00000  Uiso   1.00
C678   C     0.98660   0.73587   0.25220   0.00000  Uiso   1.00
C679   C     0.96114   0.82731   0.14714   0.00000  Uiso   1.00
C680   C     0.95073   0.80720   0.00463   0.00000  Uiso   1.00
C681   C     0.93605   0.81804   0.09005   0.00000  Uiso   1.00
C682   C     0.71613   0.86768   0.44075   0.00000  Uiso   1.00
C683   C     0.73652   0.86553   0.49492   0.00000  Uiso   1.00
C684   C     0.79794   0.79885   0.48757   0.00000  Uiso   1.00
C685   C     0.76516   0.82272   0.01606   0.00000  Uiso   1.00
C686   C     0.67328   0.91023   0.08856   0.00000  Uiso   1.00
C687   C     0.73020   0.94221   0.11294   0.00000  Uiso   1.00
C688   C     0.78230   0.91293   0.14302   0.00000  Uiso   1.00
C689   C     0.89744   0.99998   0.27530   0.00000  Uiso   1.00
C690   C     0.87522   0.69308   0.31676   0.00000  Uiso   1.00
C691   C     0.80972   0.68671   0.30076   0.00000  Uiso   1.00
C692   C     0.87425   0.89569   0.34075   0.00000  Uiso   1.00
C693   C     0.88427   0.89274   0.40023   0.00000  Uiso   1.00
C694   C     0.90014   0.94430   0.43115   0.00000  Uiso   1.00
C695   C     0.77835   0.79959   0.43184   0.00000  Uiso   1.00
C696   C     0.74745   0.75416   0.05936   0.00000  Uiso   1.00
C697   C     0.74634   0.73700   0.11282   0.00000  Uiso   1.00
C698   C     0.80341   0.71515   0.14446   0.00000  Uiso   1.00
C699   C     0.85618   0.78871   0.01356   0.00000  Uiso   1.00
C700   C     0.89414   0.78594   0.48288   0.00000  Uiso   1.00
C701   C     0.87174   0.77199   0.42888   0.00000  Uiso   1.00
C702   C     0.81251   0.77630   0.40348   0.00000  Uiso   1.00
C703   C     0.88068   0.79610   0.06877   0.00000  Uiso   1.00
C704   C     0.96815   0.82994   0.05649   0.00000  Uiso   1.00
H705   H     0.81540   0.81018   0.19864   0.00000  Uiso   1.00
H706   H     0.98070   0.92788   0.05220   0.00000  Uiso   1.00
H707   H     0.74130   0.96195   0.08109   0.00000  Uiso   1.00
H708   H     0.72240   0.97054   0.14159   0.00000  Uiso   1.00
H709   H     0.76984   0.88770   0.17003   0.00000  Uiso   1.00
H710   H     0.81808   0.93985   0.16718   0.00000  Uiso   1.00
H711   H     0.79921   0.89045   0.11510   0.00000  Uiso   1.00
H712   H     0.87907   0.96031   0.26568   0.00000  Uiso   1.00
H713   H     0.88136   0.68560   0.23752   0.00000  Uiso   1.00
H714   H     0.89467   0.67693   0.35538   0.00000  Uiso   1.00
H715   H     0.88878   0.73421   0.32106   0.00000  Uiso   1.00
H716   H     0.90078   0.76539   0.40563   0.00000  Uiso   1.00
H717   H     0.79203   0.71741   0.27482   0.00000  Uiso   1.00
H718   H     0.79426   0.68768   0.33600   0.00000  Uiso   1.00
H719   H     0.79421   0.98312   0.27839   0.00000  Uiso   1.00
H720   H     0.83886   0.92154   0.32554   0.00000  Uiso   1.00
H721   H     0.91532   0.91009   0.33462   0.00000  Uiso   1.00
H722   H     0.84390   0.87716   0.40650   0.00000  Uiso   1.00
H723   H     0.91984   0.86701   0.41615   0.00000  Uiso   1.00
H724   H     0.90664   0.93918   0.47374   0.00000  Uiso   1.00
H725   H     0.94109   0.96132   0.42695   0.00000  Uiso   1.00
H726   H     0.86406   0.97020   0.41743   0.00000  Uiso   1.00
H727   H     0.97786   0.81033   0.47947   0.00000  Uiso   1.00
H728   H     0.77720   0.73030   0.04483   0.00000  Uiso   1.00
H729   H     0.70334   0.74656   0.03043   0.00000  Uiso   1.00
H730   H     0.73810   0.76916   0.13666   0.00000  Uiso   1.00
H731   H     0.70898   0.70928   0.10627   0.00000  Uiso   1.00
H732   H     0.81713   0.68511   0.12075   0.00000  Uiso   1.00
H733   H     0.79675   0.69919   0.18007   0.00000  Uiso   1.00
H734   H     0.83948   0.74459   0.15780   0.00000  Uiso   1.00
H735   H     0.85700   0.78904   0.09578   0.00000  Uiso   1.00
H736   H     0.68816   0.89778   0.42393   0.00000  Uiso   1.00
H737   H     0.72545   0.89522   0.01817   0.00000  Uiso   1.00
H738   H     0.79789   0.76941   0.36126   0.00000  Uiso   1.00
H739   H     0.70696   0.99859   0.21536   0.00000  Uiso   1.00
H740   H     0.98151   0.91238   0.11724   0.00000  Uiso   1.00
N741   N     0.81160   0.81890   0.23542   0.00000  Uiso   1.00
N742   N     0.85507   0.84777   0.26457   0.00000  Uiso   1.00
O743   O     0.96435   0.91296   0.25357   0.00000  Uiso   1.00
O744   O     0.95829   0.99910   0.29648   0.00000  Uiso   1.00
O745   O     0.85616   0.84707   0.31566   0.00000  Uiso   1.00
O746   O     0.76384   0.80696   0.06447   0.00000  Uiso   1.00
O747   O     0.72408   0.90371   0.24423   0.00000  Uiso   1.00
O748   O     0.98157   0.84024   0.33380   0.00000  Uiso   1.00
O749   O     0.74130   0.83099   0.32446   0.00000  Uiso   1.00
O750   O     0.94258   0.76296   0.25576   0.00000  Uiso   1.00
O751   O     0.70231   0.75371   0.24642   0.00000  Uiso   1.00
O752   O     0.92537   0.83567   0.17554   0.00000  Uiso   1.00
O753   O     0.68510   0.82642   0.16620   0.00000  Uiso   1.00
O754   O     0.68534   0.85994   0.07580   0.00000  Uiso   1.00
Zn755  Zn    0.93786   0.83951   0.25623   0.00000  Uiso   1.00
Zn756  Zn    0.72881   0.82716   0.24376   0.00000  Uiso   1.00
C757   C     0.01315   0.26416   0.74722   0.00000  Uiso   1.00
C758   C     0.06469   0.16417   0.90869   0.00000  Uiso   1.00
C759   C     0.01522   0.31786   0.73973   0.00000  Uiso   1.00
C760   C     0.03849   0.16687   0.85247   0.00000  Uiso   1.00
C761   C     0.31712   0.01563   0.75993   0.00000  Uiso   1.00
C762   C     0.31993   0.06920   0.75220   0.00000  Uiso   1.00
C763   C     0.29448   0.16064   0.64714   0.00000  Uiso   1.00
C764   C     0.28406   0.14054   0.50463   0.00000  Uiso   1.00
C765   C     0.26938   0.15138   0.59005   0.00000  Uiso   1.00
C766   C     0.04946   0.20101   0.94075   0.00000  Uiso   1.00
C767   C     0.06986   0.19887   0.99492   0.00000  Uiso   1.00
C768   C     0.13127   0.13218   0.98757   0.00000  Uiso   1.00
C769   C     0.09849   0.15606   0.51606   0.00000  Uiso   1.00
C770   C     0.00662   0.24356   0.58856   0.00000  Uiso   1.00
C771   C     0.06353   0.27554   0.61294   0.00000  Uiso   1.00
C772   C     0.11563   0.24626   0.64302   0.00000  Uiso   1.00
C773   C     0.23077   0.33331   0.77530   0.00000  Uiso   1.00
C774   C     0.20856   0.02641   0.81676   0.00000  Uiso   1.00
C775   C     0.14305   0.02004   0.80076   0.00000  Uiso   1.00
C776   C     0.20759   0.22902   0.84075   0.00000  Uiso   1.00
C777   C     0.21760   0.22608   0.90023   0.00000  Uiso   1.00
C778   C     0.23347   0.27763   0.93115   0.00000  Uiso   1.00
C779   C     0.11168   0.13292   0.93184   0.00000  Uiso   1.00
C780   C     0.08078   0.08749   0.55936   0.00000  Uiso   1.00
C781   C     0.07968   0.07034   0.61282   0.00000  Uiso   1.00
C782   C     0.13675   0.04849   0.64446   0.00000  Uiso   1.00
C783   C     0.18951   0.12204   0.51356   0.00000  Uiso   1.00
C784   C     0.22747   0.11927   0.98288   0.00000  Uiso   1.00
C785   C     0.20507   0.10533   0.92888   0.00000  Uiso   1.00
C786   C     0.14584   0.10963   0.90348   0.00000  Uiso   1.00
C787   C     0.21401   0.12943   0.56877   0.00000  Uiso   1.00
C788   C     0.30149   0.16327   0.55649   0.00000  Uiso   1.00
H789   H     0.14873   0.14352   0.69864   0.00000  Uiso   1.00
H790   H     0.31404   0.26122   0.55220   0.00000  Uiso   1.00
H791   H     0.07463   0.29528   0.58109   0.00000  Uiso   1.00
H792   H     0.05574   0.30387   0.64159   0.00000  Uiso   1.00
H793   H     0.10317   0.22104   0.67003   0.00000  Uiso   1.00
H794   H     0.15142   0.27319   0.66718   0.00000  Uiso   1.00
H795   H     0.13255   0.22378   0.61510   0.00000  Uiso   1.00
H796   H     0.21240   0.29364   0.76568   0.00000  Uiso   1.00
H797   H     0.21470   0.01894   0.73752   0.00000  Uiso   1.00
H798   H     0.22800   0.01026   0.85538   0.00000  Uiso   1.00
H799   H     0.22211   0.06754   0.82106   0.00000  Uiso   1.00
H800   H     0.23411   0.09872   0.90563   0.00000  Uiso   1.00
H801   H     0.12536   0.05074   0.77482   0.00000  Uiso   1.00
H802   H     0.12759   0.02101   0.83600   0.00000  Uiso   1.00
H803   H     0.12755   0.31646   0.77839   0.00000  Uiso   1.00
H804   H     0.17219   0.25488   0.82554   0.00000  Uiso   1.00
H805   H     0.24866   0.24342   0.83462   0.00000  Uiso   1.00
H806   H     0.17723   0.21049   0.90650   0.00000  Uiso   1.00
H807   H     0.25317   0.20035   0.91615   0.00000  Uiso   1.00
H808   H     0.23998   0.27251   0.97374   0.00000  Uiso   1.00
H809   H     0.27442   0.29465   0.92695   0.00000  Uiso   1.00
H810   H     0.19740   0.30353   0.91743   0.00000  Uiso   1.00
H811   H     0.31120   0.14366   0.97947   0.00000  Uiso   1.00
H812   H     0.11054   0.06364   0.54483   0.00000  Uiso   1.00
H813   H     0.03667   0.07989   0.53043   0.00000  Uiso   1.00
H814   H     0.07143   0.10250   0.63666   0.00000  Uiso   1.00
H815   H     0.04231   0.04261   0.60627   0.00000  Uiso   1.00
H816   H     0.15046   0.01844   0.62075   0.00000  Uiso   1.00
H817   H     0.13008   0.03252   0.68007   0.00000  Uiso   1.00
H818   H     0.17281   0.07792   0.65780   0.00000  Uiso   1.00
H819   H     0.19034   0.12238   0.59578   0.00000  Uiso   1.00
H820   H     0.02149   0.23112   0.92393   0.00000  Uiso   1.00
H821   H     0.05878   0.22855   0.51817   0.00000  Uiso   1.00
H822   H     0.13122   0.10274   0.86126   0.00000  Uiso   1.00
H823   H     0.04030   0.33192   0.71536   0.00000  Uiso   1.00
H824   H     0.31484   0.24571   0.61724   0.00000  Uiso   1.00
N825   N     0.14493   0.15223   0.73542   0.00000  Uiso   1.00
N826   N     0.18840   0.18110   0.76457   0.00000  Uiso   1.00
O827   O     0.29769   0.24629   0.75357   0.00000  Uiso   1.00
O828   O     0.29162   0.33243   0.79648   0.00000  Uiso   1.00
O829   O     0.18949   0.18040   0.81566   0.00000  Uiso   1.00
O830   O     0.09717   0.14029   0.56447   0.00000  Uiso   1.00
O831   O     0.05742   0.23704   0.74423   0.00000  Uiso   1.00
O832   O     0.31490   0.17358   0.83380   0.00000  Uiso   1.00
O833   O     0.07463   0.16433   0.82446   0.00000  Uiso   1.00
O834   O     0.27592   0.09629   0.75576   0.00000  Uiso   1.00
O835   O     0.03565   0.08704   0.74642   0.00000  Uiso   1.00
O836   O     0.25870   0.16901   0.67554   0.00000  Uiso   1.00
O837   O     0.01843   0.15976   0.66620   0.00000  Uiso   1.00
O838   O     0.01868   0.19327   0.57580   0.00000  Uiso   1.00
Zn839  Zn    0.27119   0.17284   0.75623   0.00000  Uiso   1.00
Zn840  Zn    0.06214   0.16049   0.74376   0.00000  Uiso   1.00
C841   C     0.34648   0.26416   0.74722   0.00000  Uiso   1.00
C842   C     0.39802   0.16417   0.90869   0.00000  Uiso   1.00
C843   C     0.34855   0.31786   0.73973   0.00000  Uiso   1.00
C844   C     0.37182   0.16687   0.85247   0.00000  Uiso   1.00
C845   C     0.65046   0.01563   0.75993   0.00000  Uiso   1.00
C846   C     0.65327   0.06920   0.75220   0.00000  Uiso   1.00
C847   C     0.62781   0.16064   0.64714   0.00000  Uiso   1.00
C848   C     0.61740   0.14054   0.50463   0.00000  Uiso   1.00
C849   C     0.60272   0.15138   0.59005   0.00000  Uiso   1.00
C850   C     0.38279   0.20101   0.94075   0.00000  Uiso   1.00
C851   C     0.40319   0.19887   0.99492   0.00000  Uiso   1.00
C852   C     0.46461   0.13218   0.98757   0.00000  Uiso   1.00
C853   C     0.43182   0.15606   0.51606   0.00000  Uiso   1.00
C854   C     0.33995   0.24356   0.58856   0.00000  Uiso   1.00
C855   C     0.39686   0.27554   0.61294   0.00000  Uiso   1.00
C856   C     0.44897   0.24626   0.64302   0.00000  Uiso   1.00
C857   C     0.56411   0.33331   0.77530   0.00000  Uiso   1.00
C858   C     0.54189   0.02641   0.81676   0.00000  Uiso   1.00
C859   C     0.47639   0.02004   0.80076   0.00000  Uiso   1.00
C860   C     0.54092   0.22902   0.84075   0.00000  Uiso   1.00
C861   C     0.55094   0.22608   0.90023   0.00000  Uiso   1.00
C862   C     0.56680   0.27763   0.93115   0.00000  Uiso   1.00
C863   C     0.44501   0.13292   0.93184   0.00000  Uiso   1.00
C864   C     0.41412   0.08749   0.55936   0.00000  Uiso   1.00
C865   C     0.41301   0.07034   0.61282   0.00000  Uiso   1.00
C866   C     0.47008   0.04849   0.64446   0.00000  Uiso   1.00
C867   C     0.52285   0.12204   0.51356   0.00000  Uiso   1.00
C868   C     0.56080   0.11927   0.98288   0.00000  Uiso   1.00
C869   C     0.53840   0.10533   0.92888   0.00000  Uiso   1.00
C870   C     0.47917   0.10963   0.90348   0.00000  Uiso   1.00
C871   C     0.54734   0.12943   0.56877   0.00000  Uiso   1.00
C872   C     0.63482   0.16327   0.55649   0.00000  Uiso   1.00
H873   H     0.48207   0.14352   0.69864   0.00000  Uiso   1.00
H874   H     0.64737   0.26122   0.55220   0.00000  Uiso   1.00
H875   H     0.40797   0.29528   0.58109   0.00000  Uiso   1.00
H876   H     0.38907   0.30387   0.64159   0.00000  Uiso   1.00
H877   H     0.43651   0.22104   0.67003   0.00000  Uiso   1.00
H878   H     0.48475   0.27319   0.66718   0.00000  Uiso   1.00
H879   H     0.46588   0.22378   0.61510   0.00000  Uiso   1.00
H880   H     0.54574   0.29364   0.76568   0.00000  Uiso   1.00
H881   H     0.54803   0.01894   0.73752   0.00000  Uiso   1.00
H882   H     0.56134   0.01026   0.85538   0.00000  Uiso   1.00
H883   H     0.55545   0.06754   0.82106   0.00000  Uiso   1.00
H884   H     0.56744   0.09872   0.90563   0.00000  Uiso   1.00
H885   H     0.45870   0.05074   0.77482   0.00000  Uiso   1.00
H886   H     0.46092   0.02101   0.83600   0.00000  Uiso   1.00
H887   H     0.46088   0.31646   0.77839   0.00000  Uiso   1.00
H888   H     0.50553   0.25488   0.82554   0.00000  Uiso   1.00
H889   H     0.58199   0.24342   0.83462   0.00000  Uiso   1.00
H890   H     0.51057   0.21049   0.90650   0.00000  Uiso   1.00
H891   H     0.58651   0.20035   0.91615   0.00000  Uiso   1.00
H892   H     0.57331   0.27251   0.97374   0.00000  Uiso   1.00
H893   H     0.60776   0.29465   0.92695   0.00000  Uiso   1.00
H894   H     0.53073   0.30353   0.91743   0.00000  Uiso   1.00
H895   H     0.64453   0.14366   0.97947   0.00000  Uiso   1.00
H896   H     0.44387   0.06364   0.54483   0.00000  Uiso   1.00
H897   H     0.37000   0.07989   0.53043   0.00000  Uiso   1.00
H898   H     0.40476   0.10250   0.63666   0.00000  Uiso   1.00
H899   H     0.37565   0.04261   0.60627   0.00000  Uiso   1.00
H900   H     0.48379   0.01844   0.62075   0.00000  Uiso   1.00
H901   H     0.46341   0.03252   0.68007   0.00000  Uiso   1.00
H902   H     0.50615   0.07792   0.65780   0.00000  Uiso   1.00
H903   H     0.52367   0.12238   0.59578   0.00000  Uiso   1.00
H904   H     0.35483   0.23112   0.92393   0.00000  Uiso   1.00
H905   H     0.39212   0.22855   0.51817   0.00000  Uiso   1.00
H906   H     0.46456   0.10274   0.86126   0.00000  Uiso   1.00
H907   H     0.37363   0.33192   0.71536   0.00000  Uiso   1.00
H908   H     0.64817   0.24571   0.61724   0.00000  Uiso   1.00
N909   N     0.47827   0.15223   0.73542   0.00000  Uiso   1.00
N910   N     0.52173   0.18110   0.76457   0.00000  Uiso   1.00
O911   O     0.63102   0.24629   0.75357   0.00000  Uiso   1.00
O912   O     0.62496   0.33243   0.79648   0.00000  Uiso   1.00
O913   O     0.52283   0.18040   0.81566   0.00000  Uiso   1.00
O914   O     0.43051   0.14029   0.56447   0.00000  Uiso   1.00
O915   O     0.39075   0.23704   0.74423   0.00000  Uiso   1.00
O916   O     0.64823   0.17358   0.83380   0.00000  Uiso   1.00
O917   O     0.40796   0.16433   0.82446   0.00000  Uiso   1.00
O918   O     0.60925   0.09629   0.75576   0.00000  Uiso   1.00
O919   O     0.36898   0.08704   0.74642   0.00000  Uiso   1.00
O920   O     0.59204   0.16901   0.67554   0.00000  Uiso   1.00
O921   O     0.35177   0.15976   0.66620   0.00000  Uiso   1.00
O922   O     0.35201   0.19327   0.57580   0.00000  Uiso   1.00
Zn923  Zn    0.60453   0.17284   0.75623   0.00000  Uiso   1.00
Zn924  Zn    0.39547   0.16049   0.74376   0.00000  Uiso   1.00
C925   C     0.67982   0.26416   0.74722   0.00000  Uiso   1.00
C926   C     0.73135   0.16417   0.90869   0.00000  Uiso   1.00
C927   C     0.68189   0.31786   0.73973   0.00000  Uiso   1.00
C928   C     0.70515   0.16687   0.85247   0.00000  Uiso   1.00
C929   C     0.98379   0.01563   0.75993   0.00000  Uiso   1.00
C930   C     0.98660   0.06920   0.75220   0.00000  Uiso   1.00
C931   C     0.96114   0.16064   0.64714   0.00000  Uiso   1.00
C932   C     0.95073   0.14054   0.50463   0.00000  Uiso   1.00
C933   C     0.93605   0.15138   0.59005   0.00000  Uiso   1.00
C934   C     0.71613   0.20101   0.94075   0.00000  Uiso   1.00
C935   C     0.73652   0.19887   0.99492   0.00000  Uiso   1.00
C936   C     0.79794   0.13218   0.98757   0.00000  Uiso   1.00
C937   C     0.76516   0.15606   0.51606   0.00000  Uiso   1.00
C938   C     0.67328   0.24356   0.58856   0.00000  Uiso   1.00
C939   C     0.73020   0.27554   0.61294   0.00000  Uiso   1.00
C940   C     0.78230   0.24626   0.64302   0.00000  Uiso   1.00
C941   C     0.89744   0.33331   0.77530   0.00000  Uiso   1.00
C942   C     0.87522   0.02641   0.81676   0.00000  Uiso   1.00
C943   C     0.80972   0.02004   0.80076   0.00000  Uiso   1.00
C944   C     0.87425   0.22902   0.84075   0.00000  Uiso   1.00
C945   C     0.88427   0.22608   0.90023   0.00000  Uiso   1.00
C946   C     0.90014   0.27763   0.93115   0.00000  Uiso   1.00
C947   C     0.77835   0.13292   0.93184   0.00000  Uiso   1.00
C948   C     0.74745   0.08749   0.55936   0.00000  Uiso   1.00
C949   C     0.74634   0.07034   0.61282   0.00000  Uiso   1.00
C950   C     0.80341   0.04849   0.64446   0.00000  Uiso   1.00
C951   C     0.85618   0.12204   0.51356   0.00000  Uiso   1.00
C952   C     0.89414   0.11927   0.98288   0.00000  Uiso   1.00
C953   C     0.87174   0.10533   0.92888   0.00000  Uiso   1.00
C954   C     0.81251   0.10963   0.90348   0.00000  Uiso   1.00
C955   C     0.88068   0.12943   0.56877   0.00000  Uiso   1.00
C956   C     0.96815   0.16327   0.55649   0.00000  Uiso   1.00
H957   H     0.81540   0.14352   0.69864   0.00000  Uiso   1.00
H958   H     0.98070   0.26122   0.55220   0.00000  Uiso   1.00
H959   H     0.74130   0.29528   0.58109   0.00000  Uiso   1.00
H960   H     0.72240   0.30387   0.64159   0.00000  Uiso   1.00
H961   H     0.76984   0.22104   0.67003   0.00000  Uiso   1.00
H962   H     0.81808   0.27319   0.66718   0.00000  Uiso   1.00
H963   H     0.79921   0.22378   0.61510   0.00000  Uiso   1.00
H964   H     0.87907   0.29364   0.76568   0.00000  Uiso   1.00
H965   H     0.88136   0.01894   0.73752   0.00000  Uiso   1.00
H966   H     0.89467   0.01026   0.85538   0.00000  Uiso   1.00
H967   H     0.88878   0.06754   0.82106   0.00000  Uiso   1.00
H968   H     0.90078   0.09872   0.90563   0.00000  Uiso   1.00
H969   H     0.79203   0.05074   0.77482   0.00000  Uiso   1.00
H970   H     0.79426   0.02101   0.83600   0.00000  Uiso   1.00
H971   H     0.79421   0.31646   0.77839   0.00000  Uiso   1.00
H972   H     0.83886   0.25488   0.82554   0.00000  Uiso   1.00
H973   H     0.91532   0.24342   0.83462   0.00000  Uiso   1.00
H974   H     0.84390   0.21049   0.90650   0.00000  Uiso   1.00
H975   H     0.91984   0.20035   0.91615   0.00000  Uiso   1.00
H976   H     0.90664   0.27251   0.97374   0.00000  Uiso   1.00
H977   H     0.94109   0.29465   0.92695   0.00000  Uiso   1.00
H978   H     0.86406   0.30353   0.91743   0.00000  Uiso   1.00
H979   H     0.97786   0.14366   0.97947   0.00000  Uiso   1.00
H980   H     0.77720   0.06364   0.54483   0.00000  Uiso   1.00
H981   H     0.70334   0.07989   0.53043   0.00000  Uiso   1.00
H982   H     0.73810   0.10250   0.63666   0.00000  Uiso   1.00
H983   H     0.70898   0.04261   0.60627   0.00000  Uiso   1.00
H984   H     0.81713   0.01844   0.62075   0.00000  Uiso   1.00
H985   H     0.79675   0.03252   0.68007   0.00000  Uiso   1.00
H986   H     0.83948   0.07792   0.65780   0.00000  Uiso   1.00
H987   H     0.85700   0.12238   0.59578   0.00000  Uiso   1.00
H988   H     0.68816   0.23112   0.92393   0.00000  Uiso   1.00
H989   H     0.72545   0.22855   0.51817   0.00000  Uiso   1.00
H990   H     0.79789   0.10274   0.86126   0.00000  Uiso   1.00
H991   H     0.70696   0.33192   0.71536   0.00000  Uiso   1.00
H992   H     0.98151   0.24571   0.61724   0.00000  Uiso   1.00
N993   N     0.81160   0.15223   0.73542   0.00000  Uiso   1.00
N994   N     0.85507   0.18110   0.76457   0.00000  Uiso   1.00
O995   O     0.96435   0.24629   0.75357   0.00000  Uiso   1.00
O996   O     0.95829   0.33243   0.79648   0.00000  Uiso   1.00
O997   O     0.85616   0.18040   0.81566   0.00000  Uiso   1.00
O998   O     0.76384   0.14029   0.56447   0.00000  Uiso   1.00
O999   O     0.72408   0.23704   0.74423   0.00000  Uiso   1.00
O1000  O     0.98157   0.17358   0.83380   0.00000  Uiso   1.00
O1001  O     0.74130   0.16433   0.82446   0.00000  Uiso   1.00
O1002  O     0.94258   0.09629   0.75576   0.00000  Uiso   1.00
O1003  O     0.70231   0.08704   0.74642   0.00000  Uiso   1.00
O1004  O     0.92537   0.16901   0.67554   0.00000  Uiso   1.00
O1005  O     0.68510   0.15976   0.66620   0.00000  Uiso   1.00
O1006  O     0.68534   0.19327   0.57580   0.00000  Uiso   1.00
Zn1007 Zn    0.93786   0.17284   0.75623   0.00000  Uiso   1.00
Zn1008 Zn    0.72881   0.16049   0.74376   0.00000  Uiso   1.00
C1009  C     0.01315   0.59749   0.74722   0.00000  Uiso   1.00
C1010  C     0.06469   0.49751   0.90869   0.00000  Uiso   1.00
C1011  C     0.01522   0.65119   0.73973   0.00000  Uiso   1.00
C1012  C     0.03849   0.50020   0.85247   0.00000  Uiso   1.00
C1013  C     0.31712   0.34896   0.75993   0.00000  Uiso   1.00
C1014  C     0.31993   0.40253   0.75220   0.00000  Uiso   1.00
C1015  C     0.29448   0.49397   0.64714   0.00000  Uiso   1.00
C1016  C     0.28406   0.47387   0.50463   0.00000  Uiso   1.00
C1017  C     0.26938   0.48471   0.59005   0.00000  Uiso   1.00
C1018  C     0.04946   0.53434   0.94075   0.00000  Uiso   1.00
C1019  C     0.06986   0.53220   0.99492   0.00000  Uiso   1.00
C1020  C     0.13127   0.46551   0.98757   0.00000  Uiso   1.00
C1021  C     0.09849   0.48939   0.51606   0.00000  Uiso   1.00
C1022  C     0.00662   0.57690   0.58856   0.00000  Uiso   1.00
C1023  C     0.06353   0.60888   0.61294   0.00000  Uiso   1.00
C1024  C     0.11563   0.57959   0.64302   0.00000  Uiso   1.00
C1025  C     0.23077   0.66665   0.77530   0.00000  Uiso   1.00
C1026  C     0.20856   0.35975   0.81676   0.00000  Uiso   1.00
C1027  C     0.14305   0.35338   0.80076   0.00000  Uiso   1.00
C1028  C     0.20759   0.56235   0.84075   0.00000  Uiso   1.00
C1029  C     0.21760   0.55941   0.90023   0.00000  Uiso   1.00
C1030  C     0.23347   0.61096   0.93115   0.00000  Uiso   1.00
C1031  C     0.11168   0.46625   0.93184   0.00000  Uiso   1.00
C1032  C     0.08078   0.42083   0.55936   0.00000  Uiso   1.00
C1033  C     0.07968   0.40367   0.61282   0.00000  Uiso   1.00
C1034  C     0.13675   0.38182   0.64446   0.00000  Uiso   1.00
C1035  C     0.18951   0.45538   0.51356   0.00000  Uiso   1.00
C1036  C     0.22747   0.45260   0.98288   0.00000  Uiso   1.00
C1037  C     0.20507   0.43866   0.92888   0.00000  Uiso   1.00
C1038  C     0.14584   0.44296   0.90348   0.00000  Uiso   1.00
C1039  C     0.21401   0.46277   0.56877   0.00000  Uiso   1.00
C1040  C     0.30149   0.49660   0.55649   0.00000  Uiso   1.00
H1041  H     0.14873   0.47685   0.69864   0.00000  Uiso   1.00
H1042  H     0.31404   0.59455   0.55220   0.00000  Uiso   1.00
H1043  H     0.07463   0.62862   0.58109   0.00000  Uiso   1.00
H1044  H     0.05574   0.63720   0.64159   0.00000  Uiso   1.00
H1045  H     0.10317   0.55437   0.67003   0.00000  Uiso   1.00
H1046  H     0.15142   0.60652   0.66718   0.00000  Uiso   1.00
H1047  H     0.13255   0.55711   0.61510   0.00000  Uiso   1.00
H1048  H     0.21240   0.62697   0.76568   0.00000  Uiso   1.00
H1049  H     0.21470   0.35227   0.73752   0.00000  Uiso   1.00
H1050  H     0.22800   0.34359   0.85538   0.00000  Uiso   1.00
H1051  H     0.22211   0.40087   0.82106   0.00000  Uiso   1.00
H1052  H     0.23411   0.43206   0.90563   0.00000  Uiso   1.00
H1053  H     0.12536   0.38408   0.77482   0.00000  Uiso   1.00
H1054  H     0.12759   0.35434   0.83600   0.00000  Uiso   1.00
H1055  H     0.12755   0.64979   0.77839   0.00000  Uiso   1.00
H1056  H     0.17219   0.58821   0.82554   0.00000  Uiso   1.00
H1057  H     0.24866   0.57675   0.83462   0.00000  Uiso   1.00
H1058  H     0.17723   0.54383   0.90650   0.00000  Uiso   1.00
H1059  H     0.25317   0.53368   0.91615   0.00000  Uiso   1.00
H1060  H     0.23998   0.60584   0.97374   0.00000  Uiso   1.00
H1061  H     0.27442   0.62799   0.92695   0.00000  Uiso   1.00
H1062  H     0.19740   0.63687   0.91743   0.00000  Uiso   1.00
H1063  H     0.31120   0.47700   0.97947   0.00000  Uiso   1.00
H1064  H     0.11054   0.39697   0.54483   0.00000  Uiso   1.00
H1065  H     0.03667   0.41323   0.53043   0.00000  Uiso   1.00
H1066  H     0.07143   0.43583   0.63666   0.00000  Uiso   1.00
H1067  H     0.04231   0.37594   0.60627   0.00000  Uiso   1.00
H1068  H     0.15046   0.35178   0.62075   0.00000  Uiso   1.00
H1069  H     0.13008   0.36585   0.68007   0.00000  Uiso   1.00
H1070  H     0.17281   0.41126   0.65780   0.00000  Uiso   1.00
H1071  H     0.19034   0.45571   0.59578   0.00000  Uiso   1.00
H1072  H     0.02149   0.56445   0.92393   0.00000  Uiso   1.00
H1073  H     0.05878   0.56189   0.51817   0.00000  Uiso   1.00
H1074  H     0.13122   0.43608   0.86126   0.00000  Uiso   1.00
H1075  H     0.04030   0.66525   0.71536   0.00000  Uiso   1.00
H1076  H     0.31484   0.57905   0.61724   0.00000  Uiso   1.00
N1077  N     0.14493   0.48556   0.73542   0.00000  Uiso   1.00
N1078  N     0.18840   0.51444   0.76457   0.00000  Uiso   1.00
O1079  O     0.29769   0.57963   0.75357   0.00000  Uiso   1.00
O1080  O     0.29162   0.66577   0.79648   0.00000  Uiso   1.00
O1081  O     0.18949   0.51373   0.81566   0.00000  Uiso   1.00
O1082  O     0.09717   0.47363   0.56447   0.00000  Uiso   1.00
O1083  O     0.05742   0.57038   0.74423   0.00000  Uiso   1.00
O1084  O     0.31490   0.50691   0.83380   0.00000  Uiso   1.00
O1085  O     0.07463   0.49766   0.82446   0.00000  Uiso   1.00
O1086  O     0.27592   0.42962   0.75576   0.00000  Uiso   1.00
O1087  O     0.03565   0.42037   0.74642   0.00000  Uiso   1.00
O1088  O     0.25870   0.50234   0.67554   0.00000  Uiso   1.00
O1089  O     0.01843   0.49309   0.66620   0.00000  Uiso   1.00
O1090  O     0.01868   0.52661   0.57580   0.00000  Uiso   1.00
Zn1091 Zn    0.27119   0.50618   0.75623   0.00000  Uiso   1.00
Zn1092 Zn    0.06214   0.49382   0.74376   0.00000  Uiso   1.00
C1093  C     0.34648   0.59749   0.74722   0.00000  Uiso   1.00
C1094  C     0.39802   0.49751   0.90869   0.00000  Uiso   1.00
C1095  C     0.34855   0.65119   0.73973   0.00000  Uiso   1.00
C1096  C     0.37182   0.50020   0.85247   0.00000  Uiso   1.00
C1097  C     0.65046   0.34896   0.75993   0.00000  Uiso   1.00
C1098  C     0.65327   0.40253   0.75220   0.00000  Uiso   1.00
C1099  C     0.62781   0.49397   0.64714   0.00000  Uiso   1.00
C1100  C     0.61740   0.47387   0.50463   0.00000  Uiso   1.00
C1101  C     0.60272   0.48471   0.59005   0.00000  Uiso   1.00
C1102  C     0.38279   0.53434   0.94075   0.00000  Uiso   1.00
C1103  C     0.40319   0.53220   0.99492   0.00000  Uiso   1.00
C1104  C     0.46461   0.46551   0.98757   0.00000  Uiso   1.00
C1105  C     0.43182   0.48939   0.51606   0.00000  Uiso   1.00
C1106  C     0.33995   0.57690   0.58856   0.00000  Uiso   1.00
C1107  C     0.39686   0.60888   0.61294   0.00000  Uiso   1.00
C1108  C     0.44897   0.57959   0.64302   0.00000  Uiso   1.00
C1109  C     0.56411   0.66665   0.77530   0.00000  Uiso   1.00
C1110  C     0.54189   0.35975   0.81676   0.00000  Uiso   1.00
C1111  C     0.47639   0.35338   0.80076   0.00000  Uiso   1.00
C1112  C     0.54092   0.56235   0.84075   0.00000  Uiso   1.00
C1113  C     0.55094   0.55941   0.90023   0.00000  Uiso   1.00
C1114  C     0.56680   0.61096   0.93115   0.00000  Uiso   1.00
C1115  C     0.44501   0.46625   0.93184   0.00000  Uiso   1.00
C1116  C     0.41412   0.42083   0.55936   0.00000  Uiso   1.00
C1117  C     0.41301   0.40367   0.61282   0.00000  Uiso   1.00
C1118  C     0.47008   0.38182   0.64446   0.00000  Uiso   1.00
C1119  C     0.52285   0.45538   0.51356   0.00000  Uiso   1.00
C1120  C     0.56080   0.45260   0.98288   0.00000  Uiso   1.00
C1121  C     0.53840   0.43866   0.92888   0.00000  Uiso   1.00
C1122  C     0.47917   0.44296   0.90348   0.00000  Uiso   1.00
C1123  C     0.54734   0.46277   0.56877   0.00000  Uiso   1.00
C1124  C     0.63482   0.49660   0.55649   0.00000  Uiso   1.00
H1125  H     0.48207   0.47685   0.69864   0.00000  Uiso   1.00
H1126  H     0.64737   0.59455   0.55220   0.00000  Uiso   1.00
H1127  H     0.40797   0.62862   0.58109   0.00000  Uiso   1.00
H1128  H     0.38907   0.63720   0.64159   0.00000  Uiso   1.00
H1129  H     0.43651   0.55437   0.67003   0.00000  Uiso   1.00
H1130  H     0.48475   0.60652   0.66718   0.00000  Uiso   1.00
H1131  H     0.46588   0.55711   0.61510   0.00000  Uiso   1.00
H1132  H     0.54574   0.62697   0.76568   0.00000  Uiso   1.00
H1133  H     0.54803   0.35227   0.73752   0.00000  Uiso   1.00
H1134  H     0.56134   0.34359   0.85538   0.00000  Uiso   1.00
H1135  H     0.55545   0.40087   0.82106   0.00000  Uiso   1.00
H1136  H     0.56744   0.43206   0.90563   0.00000  Uiso   1.00
H1137  H     0.45870   0.38408   0.77482   0.00000  Uiso   1.00
H1138  H     0.46092   0.35434   0.83600   0.00000  Uiso   1.00
H1139  H     0.46088   0.64979   0.77839   0.00000  Uiso   1.00
H1140  H     0.50553   0.58821   0.82554   0.00000  Uiso   1.00
H1141  H     0.58199   0.57675   0.83462   0.00000  Uiso   1.00
H1142  H     0.51057   0.54383   0.90650   0.00000  Uiso   1.00
H1143  H     0.58651   0.53368   0.91615   0.00000  Uiso   1.00
H1144  H     0.57331   0.60584   0.97374   0.00000  Uiso   1.00
H1145  H     0.60776   0.62799   0.92695   0.00000  Uiso   1.00
H1146  H     0.53073   0.63687   0.91743   0.00000  Uiso   1.00
H1147  H     0.64453   0.47700   0.97947   0.00000  Uiso   1.00
H1148  H     0.44387   0.39697   0.54483   0.00000  Uiso   1.00
H1149  H     0.37000   0.41323   0.53043   0.00000  Uiso   1.00
H1150  H     0.40476   0.43583   0.63666   0.00000  Uiso   1.00
H1151  H     0.37565   0.37594   0.60627   0.00000  Uiso   1.00
H1152  H     0.48379   0.35178   0.62075   0.00000  Uiso   1.00
H1153  H     0.46341   0.36585   0.68007   0.00000  Uiso   1.00
H1154  H     0.50615   0.41126   0.65780   0.00000  Uiso   1.00
H1155  H     0.52367   0.45571   0.59578   0.00000  Uiso   1.00
H1156  H     0.35483   0.56445   0.92393   0.00000  Uiso   1.00
H1157  H     0.39212   0.56189   0.51817   0.00000  Uiso   1.00
H1158  H     0.46456   0.43608   0.86126   0.00000  Uiso   1.00
H1159  H     0.37363   0.66525   0.71536   0.00000  Uiso   1.00
H1160  H     0.64817   0.57905   0.61724   0.00000  Uiso   1.00
N1161  N     0.47827   0.48556   0.73542   0.00000  Uiso   1.00
N1162  N     0.52173   0.51444   0.76457   0.00000  Uiso   1.00
O1163  O     0.63102   0.57963   0.75357   0.00000  Uiso   1.00
O1164  O     0.62496   0.66577   0.79648   0.00000  Uiso   1.00
O1165  O     0.52283   0.51373   0.81566   0.00000  Uiso   1.00
O1166  O     0.43051   0.47363   0.56447   0.00000  Uiso   1.00
O1167  O     0.39075   0.57038   0.74423   0.00000  Uiso   1.00
O1168  O     0.64823   0.50691   0.83380   0.00000  Uiso   1.00
O1169  O     0.40796   0.49766   0.82446   0.00000  Uiso   1.00
O1170  O     0.60925   0.42962   0.75576   0.00000  Uiso   1.00
O1171  O     0.36898   0.42037   0.74642   0.00000  Uiso   1.00
O1172  O     0.59204   0.50234   0.67554   0.00000  Uiso   1.00
O1173  O     0.35177   0.49309   0.66620   0.00000  Uiso   1.00
O1174  O     0.35201   0.52661   0.57580   0.00000  Uiso   1.00
Zn1175 Zn    0.60453   0.50618   0.75623   0.00000  Uiso   1.00
Zn1176 Zn    0.39547   0.49382   0.74376   0.00000  Uiso   1.00
C1177  C     0.67982   0.59749   0.74722   0.00000  Uiso   1.00
C1178  C     0.73135   0.49751   0.90869   0.00000  Uiso   1.00
C1179  C     0.68189   0.65119   0.73973   0.00000  Uiso   1.00
C1180  C     0.70515   0.50020   0.85247   0.00000  Uiso   1.00
C1181  C     0.98379   0.34896   0.75993   0.00000  Uiso   1.00
C1182  C     0.98660   0.40253   0.75220   0.00000  Uiso   1.00
C1183  C     0.96114   0.49397   0.64714   0.00000  Uiso   1.00
C1184  C     0.95073   0.47387   0.50463   0.00000  Uiso   1.00
C1185  C     0.93605   0.48471   0.59005   0.00000  Uiso   1.00
C1186  C     0.71613   0.53434   0.94075   0.00000  Uiso   1.00
C1187  C     0.73652   0.53220   0.99492   0.00000  Uiso   1.00
C1188  C     0.79794   0.46551   0.98757   0.00000  Uiso   1.00
C1189  C     0.76516   0.48939   0.51606   0.00000  Uiso   1.00
C1190  C     0.67328   0.57690   0.58856   0.00000  Uiso   1.00
C1191  C     0.73020   0.60888   0.61294   0.00000  Uiso   1.00
C1192  C     0.78230   0.57959   0.64302   0.00000  Uiso   1.00
C1193  C     0.89744   0.66665   0.77530   0.00000  Uiso   1.00
C1194  C     0.87522   0.35975   0.81676   0.00000  Uiso   1.00
C1195  C     0.80972   0.35338   0.80076   0.00000  Uiso   1.00
C1196  C     0.87425   0.56235   0.84075   0.00000  Uiso   1.00
C1197  C     0.88427   0.55941   0.90023   0.00000  Uiso   1.00
C1198  C     0.90014   0.61096   0.93115   0.00000  Uiso   1.00
C1199  C     0.77835   0.46625   0.93184   0.00000  Uiso   1.00
C1200  C     0.74745   0.42083   0.55936   0.00000  Uiso   1.00
C1201  C     0.74634   0.40367   0.61282   0.00000  Uiso   1.00
C1202  C     0.80341   0.38182   0.64446   0.00000  Uiso   1.00
C1203  C     0.85618   0.45538   0.51356   0.00000  Uiso   1.00
C1204  C     0.89414   0.45260   0.98288   0.00000  Uiso   1.00
C1205  C     0.87174   0.43866   0.92888   0.00000  Uiso   1.00
C1206  C     0.81251   0.44296   0.90348   0.00000  Uiso   1.00
C1207  C     0.88068   0.46277   0.56877   0.00000  Uiso   1.00
C1208  C     0.96815   0.49660   0.55649   0.00000  Uiso   1.00
H1209  H     0.81540   0.47685   0.69864   0.00000  Uiso   1.00
H1210  H     0.98070   0.59455   0.55220   0.00000  Uiso   1.00
H1211  H     0.74130   0.62862   0.58109   0.00000  Uiso   1.00
H1212  H     0.72240   0.63720   0.64159   0.00000  Uiso   1.00
H1213  H     0.76984   0.55437   0.67003   0.00000  Uiso   1.00
H1214  H     0.81808   0.60652   0.66718   0.00000  Uiso   1.00
H1215  H     0.79921   0.55711   0.61510   0.00000  Uiso   1.00
H1216  H     0.87907   0.62697   0.76568   0.00000  Uiso   1.00
H1217  H     0.88136   0.35227   0.73752   0.00000  Uiso   1.00
H1218  H     0.89467   0.34359   0.85538   0.00000  Uiso   1.00
H1219  H     0.88878   0.40087   0.82106   0.00000  Uiso   1.00
H1220  H     0.90078   0.43206   0.90563   0.00000  Uiso   1.00
H1221  H     0.79203   0.38408   0.77482   0.00000  Uiso   1.00
H1222  H     0.79426   0.35434   0.83600   0.00000  Uiso   1.00
H1223  H     0.79421   0.64979   0.77839   0.00000  Uiso   1.00
H1224  H     0.83886   0.58821   0.82554   0.00000  Uiso   1.00
H1225  H     0.91532   0.57675   0.83462   0.00000  Uiso   1.00
H1226  H     0.84390   0.54383   0.90650   0.00000  Uiso   1.00
H1227  H     0.91984   0.53368   0.91615   0.00000  Uiso   1.00
H1228  H     0.90664   0.60584   0.97374   0.00000  Uiso   1.00
H1229  H     0.94109   0.62799   0.92695   0.00000  Uiso   1.00
H1230  H     0.86406   0.63687   0.91743   0.00000  Uiso   1.00
H1231  H     0.97786   0.47700   0.97947   0.00000  Uiso   1.00
H1232  H     0.77720   0.39697   0.54483   0.00000  Uiso   1.00
H1233  H     0.70334   0.41323   0.53043   0.00000  Uiso   1.00
H1234  H     0.73810   0.43583   0.63666   0.00000  Uiso   1.00
H1235  H     0.70898   0.37594   0.60627   0.00000  Uiso   1.00
H1236  H     0.81713   0.35178   0.62075   0.00000  Uiso   1.00
H1237  H     0.79675   0.36585   0.68007   0.00000  Uiso   1.00
H1238  H     0.83948   0.41126   0.65780   0.00000  Uiso   1.00
H1239  H     0.85700   0.45571   0.59578   0.00000  Uiso   1.00
H1240  H     0.68816   0.56445   0.92393   0.00000  Uiso   1.00
H1241  H     0.72545   0.56189   0.51817   0.00000  Uiso   1.00
H1242  H     0.79789   0.43608   0.86126   0.00000  Uiso   1.00
H1243  H     0.70696   0.66525   0.71536   0.00000  Uiso   1.00
H1244  H     0.98151   0.57905   0.61724   0.00000  Uiso   1.00
N1245  N     0.81160   0.48556   0.73542   0.00000  Uiso   1.00
N1246  N     0.85507   0.51444   0.76457   0.00000  Uiso   1.00
O1247  O     0.96435   0.57963   0.75357   0.00000  Uiso   1.00
O1248  O     0.95829   0.66577   0.79648   0.00000  Uiso   1.00
O1249  O     0.85616   0.51373   0.81566   0.00000  Uiso   1.00
O1250  O     0.76384   0.47363   0.56447   0.00000  Uiso   1.00
O1251  O     0.72408   0.57038   0.74423   0.00000  Uiso   1.00
O1252  O     0.98157   0.50691   0.83380   0.00000  Uiso   1.00
O1253  O     0.74130   0.49766   0.82446   0.00000  Uiso   1.00
O1254  O     0.94258   0.42962   0.75576   0.00000  Uiso   1.00
O1255  O     0.70231   0.42037   0.74642   0.00000  Uiso   1.00
O1256  O     0.92537   0.50234   0.67554   0.00000  Uiso   1.00
O1257  O     0.68510   0.49309   0.66620   0.00000  Uiso   1.00
O1258  O     0.68534   0.52661   0.57580   0.00000  Uiso   1.00
Zn1259 Zn    0.93786   0.50618   0.75623   0.00000  Uiso   1.00
Zn1260 Zn    0.72881   0.49382   0.74376   0.00000  Uiso   1.00
C1261  C     0.01315   0.93083   0.74722   0.00000  Uiso   1.00
C1262  C     0.06469   0.83084   0.90869   0.00000  Uiso   1.00
C1263  C     0.01522   0.98453   0.73973   0.00000  Uiso   1.00
C1264  C     0.03849   0.83353   0.85247   0.00000  Uiso   1.00
C1265  C     0.31712   0.68229   0.75993   0.00000  Uiso   1.00
C1266  C     0.31993   0.73587   0.75220   0.00000  Uiso   1.00
C1267  C     0.29448   0.82731   0.64714   0.00000  Uiso   1.00
C1268  C     0.28406   0.80720   0.50463   0.00000  Uiso   1.00
C1269  C     0.26938   0.81804   0.59005   0.00000  Uiso   1.00
C1270  C     0.04946   0.86768   0.94075   0.00000  Uiso   1.00
C1271  C     0.06986   0.86553   0.99492   0.00000  Uiso   1.00
C1272  C     0.13127   0.79885   0.98757   0.00000  Uiso   1.00
C1273  C     0.09849   0.82272   0.51606   0.00000  Uiso   1.00
C1274  C     0.00662   0.91023   0.58856   0.00000  Uiso   1.00
C1275  C     0.06353   0.94221   0.61294   0.00000  Uiso   1.00
C1276  C     0.11563   0.91293   0.64302   0.00000  Uiso   1.00
C1277  C     0.23077   0.99998   0.77530   0.00000  Uiso   1.00
C1278  C     0.20856   0.69308   0.81676   0.00000  Uiso   1.00
C1279  C     0.14305   0.68671   0.80076   0.00000  Uiso   1.00
C1280  C     0.20759   0.89569   0.84075   0.00000  Uiso   1.00
C1281  C     0.21760   0.89274   0.90023   0.00000  Uiso   1.00
C1282  C     0.23347   0.94430   0.93115   0.00000  Uiso   1.00
C1283  C     0.11168   0.79959   0.93184   0.00000  Uiso   1.00
C1284  C     0.08078   0.75416   0.55936   0.00000  Uiso   1.00
C1285  C     0.07968   0.73700   0.61282   0.00000  Uiso   1.00
C1286  C     0.13675   0.71515   0.64446   0.00000  Uiso   1.00
C1287  C     0.18951   0.78871   0.51356   0.00000  Uiso   1.00
C1288  C     0.22747   0.78594   0.98288   0.00000  Uiso   1.00
C1289  C     0.20507   0.77199   0.92888   0.00000  Uiso   1.00
C1290  C     0.14584   0.77630   0.90348   0.00000  Uiso   1.00
C1291  C     0.21401   0.79610   0.56877   0.00000  Uiso   1.00
C1292  C     0.30149   0.82994   0.55649   0.00000  Uiso   1.00
H1293  H     0.14873   0.81018   0.69864   0.00000  Uiso   1.00
H1294  H     0.31404   0.92788   0.55220   0.00000  Uiso   1.00
H1295  H     0.07463   0.96195   0.58109   0.00000  Uiso   1.00
H1296  H     0.05574   0.97054   0.64159   0.00000  Uiso   1.00
H1297  H     0.10317   0.88770   0.67003   0.00000  Uiso   1.00
H1298  H     0.15142   0.93985   0.66718   0.00000  Uiso   1.00
H1299  H     0.13255   0.89045   0.61510   0.00000  Uiso   1.00
H1300  H     0.21240   0.96031   0.76568   0.00000  Uiso   1.00
H1301  H     0.21470   0.68560   0.73752   0.00000  Uiso   1.00
H1302  H     0.22800   0.67693   0.85538   0.00000  Uiso   1.00
H1303  H     0.22211   0.73421   0.82106   0.00000  Uiso   1.00
H1304  H     0.23411   0.76539   0.90563   0.00000  Uiso   1.00
H1305  H     0.12536   0.71741   0.77482   0.00000  Uiso   1.00
H1306  H     0.12759   0.68768   0.83600   0.00000  Uiso   1.00
H1307  H     0.12755   0.98312   0.77839   0.00000  Uiso   1.00
H1308  H     0.17219   0.92154   0.82554   0.00000  Uiso   1.00
H1309  H     0.24866   0.91009   0.83462   0.00000  Uiso   1.00
H1310  H     0.17723   0.87716   0.90650   0.00000  Uiso   1.00
H1311  H     0.25317   0.86701   0.91615   0.00000  Uiso   1.00
H1312  H     0.23998   0.93918   0.97374   0.00000  Uiso   1.00
H1313  H     0.27442   0.96132   0.92695   0.00000  Uiso   1.00
H1314  H     0.19740   0.97020   0.91743   0.00000  Uiso   1.00
H1315  H     0.31120   0.81033   0.97947   0.00000  Uiso   1.00
H1316  H     0.11054   0.73030   0.54483   0.00000  Uiso   1.00
H1317  H     0.03667   0.74656   0.53043   0.00000  Uiso   1.00
H1318  H     0.07143   0.76916   0.63666   0.00000  Uiso   1.00
H1319  H     0.04231   0.70928   0.60627   0.00000  Uiso   1.00
H1320  H     0.15046   0.68511   0.62075   0.00000  Uiso   1.00
H1321  H     0.13008   0.69919   0.68007   0.00000  Uiso   1.00
H1322  H     0.17281   0.74459   0.65780   0.00000  Uiso   1.00
H1323  H     0.19034   0.78904   0.59578   0.00000  Uiso   1.00
H1324  H     0.02149   0.89778   0.92393   0.00000  Uiso   1.00
H1325  H     0.05878   0.89522   0.51817   0.00000  Uiso   1.00
H1326  H     0.13122   0.76941   0.86126   0.00000  Uiso   1.00
H1327  H     0.04030   0.99859   0.71536   0.00000  Uiso   1.00
H1328  H     0.31484   0.91238   0.61724   0.00000  Uiso   1.00
N1329  N     0.14493   0.81890   0.73542   0.00000  Uiso   1.00
N1330  N     0.18840   0.84777   0.76457   0.00000  Uiso   1.00
O1331  O     0.29769   0.91296   0.75357   0.00000  Uiso   1.00
O1332  O     0.29162   0.99910   0.79648   0.00000  Uiso   1.00
O1333  O     0.18949   0.84707   0.81566   0.00000  Uiso   1.00
O1334  O     0.09717   0.80696   0.56447   0.00000  Uiso   1.00
O1335  O     0.05742   0.90371   0.74423   0.00000  Uiso   1.00
O1336  O     0.31490   0.84024   0.83380   0.00000  Uiso   1.00
O1337  O     0.07463   0.83099   0.82446   0.00000  Uiso   1.00
O1338  O     0.27592   0.76296   0.75576   0.00000  Uiso   1.00
O1339  O     0.03565   0.75371   0.74642   0.00000  Uiso   1.00
O1340  O     0.25870   0.83567   0.67554   0.00000  Uiso   1.00
O1341  O     0.01843   0.82642   0.66620   0.00000  Uiso   1.00
O1342  O     0.01868   0.85994   0.57580   0.00000  Uiso   1.00
Zn1343 Zn    0.27119   0.83951   0.75623   0.00000  Uiso   1.00
Zn1344 Zn    0.06214   0.82716   0.74376   0.00000  Uiso   1.00
C1345  C     0.34648   0.93083   0.74722   0.00000  Uiso   1.00
C1346  C     0.39802   0.83084   0.90869   0.00000  Uiso   1.00
C1347  C     0.34855   0.98453   0.73973   0.00000  Uiso   1.00
C1348  C     0.37182   0.83353   0.85247   0.00000  Uiso   1.00
C1349  C     0.65046   0.68229   0.75993   0.00000  Uiso   1.00
C1350  C     0.65327   0.73587   0.75220   0.00000  Uiso   1.00
C1351  C     0.62781   0.82731   0.64714   0.00000  Uiso   1.00
C1352  C     0.61740   0.80720   0.50463   0.00000  Uiso   1.00
C1353  C     0.60272   0.81804   0.59005   0.00000  Uiso   1.00
C1354  C     0.38279   0.86768   0.94075   0.00000  Uiso   1.00
C1355  C     0.40319   0.86553   0.99492   0.00000  Uiso   1.00
C1356  C     0.46461   0.79885   0.98757   0.00000  Uiso   1.00
C1357  C     0.43182   0.82272   0.51606   0.00000  Uiso   1.00
C1358  C     0.33995   0.91023   0.58856   0.00000  Uiso   1.00
C1359  C     0.39686   0.94221   0.61294   0.00000  Uiso   1.00
C1360  C     0.44897   0.91293   0.64302   0.00000  Uiso   1.00
C1361  C     0.56411   0.99998   0.77530   0.00000  Uiso   1.00
C1362  C     0.54189   0.69308   0.81676   0.00000  Uiso   1.00
C1363  C     0.47639   0.68671   0.80076   0.00000  Uiso   1.00
C1364  C     0.54092   0.89569   0.84075   0.00000  Uiso   1.00
C1365  C     0.55094   0.89274   0.90023   0.00000  Uiso   1.00
C1366  C     0.56680   0.94430   0.93115   0.00000  Uiso   1.00
C1367  C     0.44501   0.79959   0.93184   0.00000  Uiso   1.00
C1368  C     0.41412   0.75416   0.55936   0.00000  Uiso   1.00
C1369  C     0.41301   0.73700   0.61282   0.00000  Uiso   1.00
C1370  C     0.47008   0.71515   0.64446   0.00000  Uiso   1.00
C1371  C     0.52285   0.78871   0.51356   0.00000  Uiso   1.00
C1372  C     0.56080   0.78594   0.98288   0.00000  Uiso   1.00
C1373  C     0.53840   0.77199   0.92888   0.00000  Uiso   1.00
C1374  C     0.47917   0.77630   0.90348   0.00000  Uiso   1.00
C1375  C     0.54734   0.79610   0.56877   0.00000  Uiso   1.00
C1376  C     0.63482   0.82994   0.55649   0.00000  Uiso   1.00
H1377  H     0.48207   0.81018   0.69864   0.00000  Uiso   1.00
H1378  H     0.64737   0.92788   0.55220   0.00000  Uiso   1.00
H1379  H     0.40797   0.96195   0.58109   0.00000  Uiso   1.00
H1380  H     0.38907   0.97054   0.64159   0.00000  Uiso   1.00
H1381  H     0.43651   0.88770   0.67003   0.00000  Uiso   1.00
H1382  H     0.48475   0.93985   0.66718   0.00000  Uiso   1.00
H1383  H     0.46588   0.89045   0.61510   0.00000  Uiso   1.00
H1384  H     0.54574   0.96031   0.76568   0.00000  Uiso   1.00
H1385  H     0.54803   0.68560   0.73752   0.00000  Uiso   1.00
H1386  H     0.56134   0.67693   0.85538   0.00000  Uiso   1.00
H1387  H     0.55545   0.73421   0.82106   0.00000  Uiso   1.00
H1388  H     0.56744   0.76539   0.90563   0.00000  Uiso   1.00
H1389  H     0.45870   0.71741   0.77482   0.00000  Uiso   1.00
H1390  H     0.46092   0.68768   0.83600   0.00000  Uiso   1.00
H1391  H     0.46088   0.98312   0.77839   0.00000  Uiso   1.00
H1392  H     0.50553   0.92154   0.82554   0.00000  Uiso   1.00
H1393  H     0.58199   0.91009   0.83462   0.00000  Uiso   1.00
H1394  H     0.51057   0.87716   0.90650   0.00000  Uiso   1.00
H1395  H     0.58651   0.86701   0.91615   0.00000  Uiso   1.00
H1396  H     0.57331   0.93918   0.97374   0.00000  Uiso   1.00
H1397  H     0.60776   0.96132   0.92695   0.00000  Uiso   1.00
H1398  H     0.53073   0.97020   0.91743   0.00000  Uiso   1.00
H1399  H     0.64453   0.81033   0.97947   0.00000  Uiso   1.00
H1400  H     0.44387   0.73030   0.54483   0.00000  Uiso   1.00
H1401  H     0.37000   0.74656   0.53043   0.00000  Uiso   1.00
H1402  H     0.40476   0.76916   0.63666   0.00000  Uiso   1.00
H1403  H     0.37565   0.70928   0.60627   0.00000  Uiso   1.00
H1404  H     0.48379   0.68511   0.62075   0.00000  Uiso   1.00
H1405  H     0.46341   0.69919   0.68007   0.00000  Uiso   1.00
H1406  H     0.50615   0.74459   0.65780   0.00000  Uiso   1.00
H1407  H     0.52367   0.78904   0.59578   0.00000  Uiso   1.00
H1408  H     0.35483   0.89778   0.92393   0.00000  Uiso   1.00
H1409  H     0.39212   0.89522   0.51817   0.00000  Uiso   1.00
H1410  H     0.46456   0.76941   0.86126   0.00000  Uiso   1.00
H1411  H     0.37363   0.99859   0.71536   0.00000  Uiso   1.00
H1412  H     0.64817   0.91238   0.61724   0.00000  Uiso   1.00
N1413  N     0.47827   0.81890   0.73542   0.00000  Uiso   1.00
N1414  N     0.52173   0.84777   0.76457   0.00000  Uiso   1.00
O1415  O     0.63102   0.91296   0.75357   0.00000  Uiso   1.00
O1416  O     0.62496   0.99910   0.79648   0.00000  Uiso   1.00
O1417  O     0.52283   0.84707   0.81566   0.00000  Uiso   1.00
O1418  O     0.43051   0.80696   0.56447   0.00000  Uiso   1.00
O1419  O     0.39075   0.90371   0.74423   0.00000  Uiso   1.00
O1420  O     0.64823   0.84024   0.83380   0.00000  Uiso   1.00
O1421  O     0.40796   0.83099   0.82446   0.00000  Uiso   1.00
O1422  O     0.60925   0.76296   0.75576   0.00000  Uiso   1.00
O1423  O     0.36898   0.75371   0.74642   0.00000  Uiso   1.00
O1424  O     0.59204   0.83567   0.67554   0.00000  Uiso   1.00
O1425  O     0.35177   0.82642   0.66620   0.00000  Uiso   1.00
O1426  O     0.35201   0.85994   0.57580   0.00000  Uiso   1.00
Zn1427 Zn    0.60453   0.83951   0.75623   0.00000  Uiso   1.00
Zn1428 Zn    0.39547   0.82716   0.74376   0.00000  Uiso   1.00
C1429  C     0.67982   0.93083   0.74722   0.00000  Uiso   1.00
C1430  C     0.73135   0.83084   0.90869   0.00000  Uiso   1.00
C1431  C     0.68189   0.98453   0.73973   0.00000  Uiso   1.00
C1432  C     0.70515   0.83353   0.85247   0.00000  Uiso   1.00
C1433  C     0.98379   0.68229   0.75993   0.00000  Uiso   1.00
C1434  C     0.98660   0.73587   0.75220   0.00000  Uiso   1.00
C1435  C     0.96114   0.82731   0.64714   0.00000  Uiso   1.00
C1436  C     0.95073   0.80720   0.50463   0.00000  Uiso   1.00
C1437  C     0.93605   0.81804   0.59005   0.00000  Uiso   1.00
C1438  C     0.71613   0.86768   0.94075   0.00000  Uiso   1.00
C1439  C     0.73652   0.86553   0.99492   0.00000  Uiso   1.00
C1440  C     0.79794   0.79885   0.98757   0.00000  Uiso   1.00
C1441  C     0.76516   0.82272   0.51606   0.00000  Uiso   1.00
C1442  C     0.67328   0.91023   0.58856   0.00000  Uiso   1.00
C1443  C     0.73020   0.94221   0.61294   0.00000  Uiso   1.00
C1444  C     0.78230   0.91293   0.64302   0.00000  Uiso   1.00
C1445  C     0.89744   0.99998   0.77530   0.00000  Uiso   1.00
C1446  C     0.87522   0.69308   0.81676   0.00000  Uiso   1.00
C1447  C     0.80972   0.68671   0.80076   0.00000  Uiso   1.00
C1448  C     0.87425   0.89569   0.84075   0.00000  Uiso   1.00
C1449  C     0.88427   0.89274   0.90023   0.00000  Uiso   1.00
C1450  C     0.90014   0.94430   0.93115   0.00000  Uiso   1.00
C1451  C     0.77835   0.79959   0.93184   0.00000  Uiso   1.00
C1452  C     0.74745   0.75416   0.55936   0.00000  Uiso   1.00
C1453  C     0.74634   0.73700   0.61282   0.00000  Uiso   1.00
C1454  C     0.80341   0.71515   0.64446   0.00000  Uiso   1.00
C1455  C     0.85618   0.78871   0.51356   0.00000  Uiso   1.00
C1456  C     0.89414   0.78594   0.98288   0.00000  Uiso   1.00
C1457  C     0.87174   0.77199   0.92888   0.00000  Uiso   1.00
C1458  C     0.81251   0.77630   0.90348   0.00000  Uiso   1.00
C1459  C     0.88068   0.79610   0.56877   0.00000  Uiso   1.00
C1460  C     0.96815   0.82994   0.55649   0.00000  Uiso   1.00
H1461  H     0.81540   0.81018   0.69864   0.00000  Uiso   1.00
H1462  H     0.98070   0.92788   0.55220   0.00000  Uiso   1.00
H1463  H     0.74130   0.96195   0.58109   0.00000  Uiso   1.00
H1464  H     0.72240   0.97054   0.64159   0.00000  Uiso   1.00
H1465  H     0.76984   0.88770   0.67003   0.00000  Uiso   1.00
H1466  H     0.81808   0.93985   0.66718   0.00000  Uiso   1.00
H1467  H     0.79921   0.89045   0.61510   0.00000  Uiso   1.00
H1468  H     0.87907   0.96031   0.76568   0.00000  Uiso   1.00
H1469  H     0.88136   0.68560   0.73752   0.00000  Uiso   1.00
H1470  H     0.89467   0.67693   0.85538   0.00000  Uiso   1.00
H1471  H     0.88878   0.73421   0.82106   0.00000  Uiso   1.00
H1472  H     0.90078   0.76539   0.90563   0.00000  Uiso   1.00
H1473  H     0.79203   0.71741   0.77482   0.00000  Uiso   1.00
H1474  H     0.79426   0.68768   0.83600   0.00000  Uiso   1.00
H1475  H     0.79421   0.98312   0.77839   0.00000  Uiso   1.00
H1476  H     0.83886   0.92154   0.82554   0.00000  Uiso   1.00
H1477  H     0.91532   0.91009   0.83462   0.00000  Uiso   1.00
H1478  H     0.84390   0.87716   0.90650   0.00000  Uiso   1.00
H1479  H     0.91984   0.86701   0.91615   0.00000  Uiso   1.00
H1480  H     0.90664   0.93918   0.97374   0.00000  Uiso   1.00
H1481  H     0.94109   0.96132   0.92695   0.00000  Uiso   1.00
H1482  H     0.86406   0.97020   0.91743   0.00000  Uiso   1.00
H1483  H     0.97786   0.81033   0.97947   0.00000  Uiso   1.00
H1484  H     0.77720   0.73030   0.54483   0.00000  Uiso   1.00
H1485  H     0.70334   0.74656   0.53043   0.00000  Uiso   1.00
H1486  H     0.73810   0.76916   0.63666   0.00000  Uiso   1.00
H1487  H     0.70898   0.70928   0.60627   0.00000  Uiso   1.00
H1488  H     0.81713   0.68511   0.62075   0.00000  Uiso   1.00
H1489  H     0.79675   0.69919   0.68007   0.00000  Uiso   1.00
H1490  H     0.83948   0.74459   0.65780   0.00000  Uiso   1.00
H1491  H     0.85700   0.78904   0.59578   0.00000  Uiso   1.00
H1492  H     0.68816   0.89778   0.92393   0.00000  Uiso   1.00
H1493  H     0.72545   0.89522   0.51817   0.00000  Uiso   1.00
H1494  H     0.79789   0.76941   0.86126   0.00000  Uiso   1.00
H1495  H     0.70696   0.99859   0.71536   0.00000  Uiso   1.00
H1496  H     0.98151   0.91238   0.61724   0.00000  Uiso   1.00
N1497  N     0.81160   0.81890   0.73542   0.00000  Uiso   1.00
N1498  N     0.85507   0.84777   0.76457   0.00000  Uiso   1.00
O1499  O     0.96435   0.91296   0.75357   0.00000  Uiso   1.00
O1500  O     0.95829   0.99910   0.79648   0.00000  Uiso   1.00
O1501  O     0.85616   0.84707   0.81566   0.00000  Uiso   1.00
O1502  O     0.76384   0.80696   0.56447   0.00000  Uiso   1.00
O1503  O     0.72408   0.90371   0.74423   0.00000  Uiso   1.00
O1504  O     0.98157   0.84024   0.83380   0.00000  Uiso   1.00
O1505  O     0.74130   0.83099   0.82446   0.00000  Uiso   1.00
O1506  O     0.94258   0.76296   0.75576   0.00000  Uiso   1.00
O1507  O     0.70231   0.75371   0.74642   0.00000  Uiso   1.00
O1508  O     0.92537   0.83567   0.67554   0.00000  Uiso   1.00
O1509  O     0.68510   0.82642   0.66620   0.00000  Uiso   1.00
O1510  O     0.68534   0.85994   0.57580   0.00000  Uiso   1.00
Zn1511 Zn    0.93786   0.83951   0.75623   0.00000  Uiso   1.00
Zn1512 Zn    0.72881   0.82716   0.74376   0.00000  Uiso   1.00
loop_
_geom_bond_atom_site_label_1
_geom_bond_atom_site_label_2
_geom_bond_distance
_geom_bond_site_symmetry_2
_ccdc_geom_bond_type
C1     C3      1.439   .     S
C1     O75     1.328   .     A
C1     O239    1.315   1_455 S
C2     C4      1.437   .     S
C2     C23     1.427   .     A
C2     C10     1.390   .     A
C3     H67     1.082   .     S
C3     C425    1.336   1_455 S
C4     O77     1.310   .     A
C4     O244    1.333   1_455 S
C5     C6      1.438   .     S
C5     C591    1.336   1_545 S
C5     O576    1.378   1_545 S
C6     O78     1.327   .     A
C6     O163    1.314   .     S
C7     C9      1.452   .     S
C7     O80     1.326   .     A
C7     O165    1.322   .     S
C8     C32     1.404   .     A
C8     C784    1.394   1_554 S
C8     H811    1.073   1_554 S
C9     C32     1.388   .     A
C9     C31     1.375   .     A
C10    H64     1.084   .     S
C10    C11     1.374   .     A
C11    C769    1.396   .     S
C11    H821    1.063   .     S
C12    C23     1.409   .     A
C12    C769    1.396   .     S
C12    C783    1.406   .     S
C13    O74     1.379   .     S
C13    C767    1.396   1_554 S
C13    C768    1.396   1_554 S
C14    O82     1.413   .     S
C14    C15     1.527   .     S
C14    H202    1.112   1_455 S
C14    H236    1.110   1_455 S
C15    C16     1.528   .     S
C15    H35     1.109   .     S
C15    H36     1.100   .     S
C16    H37     1.101   .     S
C16    H39     1.106   .     S
C16    H38     1.109   .     S
C17    H40     1.106   .     S
C17    O72     1.405   .     S
C17    C270    1.514   .     S
C17    H293    1.110   .     S
C18    H42     1.103   .     S
C18    C19     1.508   .     S
C18    H43     1.110   .     S
C18    C521    1.514   1_545 S
C19    H46     1.108   .     S
C19    H45     1.101   .     S
C19    H551    1.103   1_545 S
C20    H49     1.110   .     S
C20    H48     1.103   .     S
C20    O73     1.402   .     S
C20    C21     1.528   .     S
C21    C22     1.522   .     S
C21    H50     1.107   .     S
C21    H51     1.107   .     S
C22    H54     1.110   .     S
C22    H53     1.110   .     S
C22    H52     1.108   .     S
C23    C30     1.412   .     A
C24    H57     1.110   .     S
C24    C25     1.518   .     S
C24    H56     1.113   .     S
C24    O74     1.420   .     S
C25    C26     1.528   .     S
C25    H58     1.092   .     S
C25    H59     1.105   .     S
C26    H61     1.106   .     S
C26    H62     1.104   .     S
C26    H60     1.108   .     S
C27    C31     1.402   .     A
C27    C768    1.406   1_554 S
C27    C784    1.402   1_554 S
C28    C29     1.391   .     A
C28    C764    1.394   .     S
C28    C783    1.402   .     S
C29    C30     1.394   .     A
C29    H44     1.080   .     S
C30    H66     1.070   .     S
C31    H63     1.064   .     S
C32    O166    1.372   .     S
H33    N69     1.023   .     S
H34    C98     1.112   .     S
H41    C521    1.110   1_545 S
H47    C271    1.103   .     S
H55    C764    1.073   .     S
H65    C767    1.063   1_554 S
H68    C98     1.110   .     S
N69    Zn84    2.097   .     S
N69    N70     1.289   .     D
N70    O73     1.349   .     S
N70    Zn83    2.097   .     S
O71    Zn83    2.027   .     S
O71    C85     1.315   .     S
O72    C257    1.378   .     S
O75    Zn84    2.023   .     S
O76    Zn83    2.003   .     S
O76    C88     1.333   .     S
O77    Zn84    2.065   .     S
O78    Zn83    2.023   .     S
O79    Zn84    2.027   .     S
O79    C174    1.314   1_455 S
O80    Zn83    2.065   .     S
O81    Zn84    2.003   .     S
O81    C175    1.322   1_455 S
O82    C200    1.372   1_455 S
C85    C87     1.439   .     S
C85    O159    1.328   .     A
C86    C88     1.437   .     S
C86    C107    1.427   .     A
C86    C94     1.390   .     A
C87    H151    1.082   .     S
C87    C257    1.336   .     S
C88    O161    1.310   .     A
C89    C90     1.438   .     S
C89    C675    1.336   1_545 S
C89    O660    1.378   1_545 S
C90    O162    1.327   .     A
C90    O247    1.314   .     S
C91    C93     1.452   .     S
C91    O164    1.326   .     A
C91    O249    1.322   .     S
C92    C116    1.404   .     A
C92    C868    1.394   1_554 S
C92    H895    1.073   1_554 S
C93    C116    1.388   .     A
C93    C115    1.375   .     A
C94    H148    1.084   .     S
C94    C95     1.374   .     A
C95    C853    1.396   .     S
C95    H905    1.063   .     S
C96    C107    1.409   .     A
C96    C853    1.396   .     S
C96    C867    1.406   .     S
C97    O158    1.379   .     S
C97    C851    1.396   1_554 S
C97    C852    1.396   1_554 S
C98    O166    1.413   .     S
C98    C99     1.527   .     S
C99    C100    1.528   .     S
C99    H119    1.109   .     S
C99    H120    1.100   .     S
C100   H121    1.101   .     S
C100   H123    1.106   .     S
C100   H122    1.109   .     S
C101   H124    1.106   .     S
C101   O156    1.405   .     S
C101   C354    1.514   .     S
C101   H377    1.110   .     S
C102   H126    1.103   .     S
C102   C103    1.508   .     S
C102   H127    1.110   .     S
C102   C605    1.514   1_545 S
C103   H130    1.108   .     S
C103   H129    1.101   .     S
C103   H635    1.103   1_545 S
C104   H133    1.110   .     S
C104   H132    1.103   .     S
C104   O157    1.402   .     S
C104   C105    1.528   .     S
C105   C106    1.522   .     S
C105   H134    1.107   .     S
C105   H135    1.107   .     S
C106   H138    1.110   .     S
C106   H137    1.110   .     S
C106   H136    1.108   .     S
C107   C114    1.412   .     A
C108   H141    1.110   .     S
C108   C109    1.518   .     S
C108   H140    1.113   .     S
C108   O158    1.420   .     S
C109   C110    1.528   .     S
C109   H142    1.092   .     S
C109   H143    1.105   .     S
C110   H145    1.106   .     S
C110   H146    1.104   .     S
C110   H144    1.108   .     S
C111   C115    1.402   .     A
C111   C852    1.406   1_554 S
C111   C868    1.402   1_554 S
C112   C113    1.391   .     A
C112   C848    1.394   .     S
C112   C867    1.402   .     S
C113   C114    1.394   .     A
C113   H128    1.080   .     S
C114   H150    1.070   .     S
C115   H147    1.064   .     S
C116   O250    1.372   .     S
H117   N153    1.023   .     S
H118   C182    1.112   .     S
H125   C605    1.110   1_545 S
H131   C355    1.103   .     S
H139   C848    1.073   .     S
H149   C851    1.063   1_554 S
H152   C182    1.110   .     S
N153   Zn168   2.097   .     S
N153   N154    1.289   .     D
N154   O157    1.349   .     S
N154   Zn167   2.097   .     S
O155   Zn167   2.027   .     S
O155   C169    1.315   .     S
O156   C341    1.378   .     S
O159   Zn168   2.023   .     S
O160   Zn167   2.003   .     S
O160   C172    1.333   .     S
O161   Zn168   2.065   .     S
O162   Zn167   2.023   .     S
O163   Zn168   2.027   .     S
O164   Zn167   2.065   .     S
O165   Zn168   2.003   .     S
C169   C171    1.439   .     S
C169   O243    1.328   .     A
C170   C172    1.437   .     S
C170   C191    1.427   .     A
C170   C178    1.390   .     A
C171   H235    1.082   .     S
C171   C341    1.336   .     S
C172   O245    1.310   .     A
C173   C174    1.438   .     S
C173   C507    1.336   1_645 S
C173   O744    1.378   1_545 S
C174   O246    1.327   .     A
C174   O79     1.314   1_655 S
C175   C177    1.452   .     S
C175   O248    1.326   .     A
C175   O81     1.322   1_655 S
C176   C200    1.404   .     A
C176   C952    1.394   1_554 S
C176   H979    1.073   1_554 S
C177   C200    1.388   .     A
C177   C199    1.375   .     A
C178   H232    1.084   .     S
C178   C179    1.374   .     A
C179   C937    1.396   .     S
C179   H989    1.063   .     S
C180   C191    1.409   .     A
C180   C937    1.396   .     S
C180   C951    1.406   .     S
C181   O242    1.379   .     S
C181   C935    1.396   1_554 S
C181   C936    1.396   1_554 S
C182   O250    1.413   .     S
C182   C183    1.527   .     S
C183   C184    1.528   .     S
C183   H203    1.109   .     S
C183   H204    1.100   .     S
C184   H205    1.101   .     S
C184   H207    1.106   .     S
C184   H206    1.109   .     S
C185   H208    1.106   .     S
C185   O240    1.405   .     S
C185   C438    1.514   .     S
C185   H461    1.110   .     S
C186   H210    1.103   .     S
C186   C187    1.508   .     S
C186   H211    1.110   .     S
C186   C689    1.514   1_545 S
C187   H214    1.108   .     S
C187   H213    1.101   .     S
C187   H719    1.103   1_545 S
C188   H217    1.110   .     S
C188   H216    1.103   .     S
C188   O241    1.402   .     S
C188   C189    1.528   .     S
C189   C190    1.522   .     S
C189   H218    1.107   .     S
C189   H219    1.107   .     S
C190   H222    1.110   .     S
C190   H221    1.110   .     S
C190   H220    1.108   .     S
C191   C198    1.412   .     A
C192   H225    1.110   .     S
C192   C193    1.518   .     S
C192   H224    1.113   .     S
C192   O242    1.420   .     S
C193   C194    1.528   .     S
C193   H226    1.092   .     S
C193   H227    1.105   .     S
C194   H229    1.106   .     S
C194   H230    1.104   .     S
C194   H228    1.108   .     S
C195   C199    1.402   .     A
C195   C936    1.406   1_554 S
C195   C952    1.402   1_554 S
C196   C197    1.391   .     A
C196   C932    1.394   .     S
C196   C951    1.402   .     S
C197   C198    1.394   .     A
C197   H212    1.080   .     S
C198   H234    1.070   .     S
C199   H231    1.064   .     S
C200   O82     1.372   1_655 S
H201   N237    1.023   .     S
H202   C14     1.112   1_655 S
H209   C689    1.110   1_545 S
H215   C439    1.103   .     S
H223   C932    1.073   .     S
H233   C935    1.063   1_554 S
H236   C14     1.110   1_655 S
N237   Zn252   2.097   .     S
N237   N238    1.289   .     D
N238   O241    1.349   .     S
N238   Zn251   2.097   .     S
O239   Zn251   2.027   .     S
O239   C1      1.315   1_655 S
O240   C425    1.378   .     S
O243   Zn252   2.023   .     S
O244   Zn251   2.003   .     S
O244   C4      1.333   1_655 S
O245   Zn252   2.065   .     S
O246   Zn251   2.023   .     S
O247   Zn252   2.027   .     S
O248   Zn251   2.065   .     S
O249   Zn252   2.003   .     S
C253   C255    1.439   .     S
C253   O327    1.328   .     A
C253   O491    1.315   1_455 S
C254   C256    1.437   .     S
C254   C275    1.427   .     A
C254   C262    1.390   .     A
C255   H319    1.082   .     S
C255   C677    1.336   1_455 S
C256   O329    1.310   .     A
C256   O496    1.333   1_455 S
C257   C258    1.438   .     S
C258   O330    1.327   .     A
C258   O415    1.314   .     S
C259   C261    1.452   .     S
C259   O332    1.326   .     A
C259   O417    1.322   .     S
C260   C284    1.404   .     A
C260   C1036   1.394   1_554 S
C260   H1063   1.073   1_554 S
C261   C284    1.388   .     A
C261   C283    1.375   .     A
C262   H316    1.084   .     S
C262   C263    1.374   .     A
C263   C1021   1.396   .     S
C263   H1073   1.063   .     S
C264   C275    1.409   .     A
C264   C1021   1.396   .     S
C264   C1035   1.406   .     S
C265   O326    1.379   .     S
C265   C1019   1.396   1_554 S
C265   C1020   1.396   1_554 S
C266   O334    1.413   .     S
C266   C267    1.527   .     S
C266   H454    1.112   1_455 S
C266   H488    1.110   1_455 S
C267   C268    1.528   .     S
C267   H287    1.109   .     S
C267   H288    1.100   .     S
C268   H289    1.101   .     S
C268   H291    1.106   .     S
C268   H290    1.109   .     S
C269   H292    1.106   .     S
C269   O324    1.405   .     S
C269   C522    1.514   .     S
C269   H545    1.110   .     S
C270   H294    1.103   .     S
C270   C271    1.508   .     S
C270   H295    1.110   .     S
C271   H298    1.108   .     S
C271   H297    1.101   .     S
C272   H301    1.110   .     S
C272   H300    1.103   .     S
C272   O325    1.402   .     S
C272   C273    1.528   .     S
C273   C274    1.522   .     S
C273   H302    1.107   .     S
C273   H303    1.107   .     S
C274   H306    1.110   .     S
C274   H305    1.110   .     S
C274   H304    1.108   .     S
C275   C282    1.412   .     A
C276   H309    1.110   .     S
C276   C277    1.518   .     S
C276   H308    1.113   .     S
C276   O326    1.420   .     S
C277   C278    1.528   .     S
C277   H310    1.092   .     S
C277   H311    1.105   .     S
C278   H313    1.106   .     S
C278   H314    1.104   .     S
C278   H312    1.108   .     S
C279   C283    1.402   .     A
C279   C1020   1.406   1_554 S
C279   C1036   1.402   1_554 S
C280   C281    1.391   .     A
C280   C1016   1.394   .     S
C280   C1035   1.402   .     S
C281   C282    1.394   .     A
C281   H296    1.080   .     S
C282   H318    1.070   .     S
C283   H315    1.064   .     S
C284   O418    1.372   .     S
H285   N321    1.023   .     S
H286   C350    1.112   .     S
H299   C523    1.103   .     S
H307   C1016   1.073   .     S
H317   C1019   1.063   1_554 S
H320   C350    1.110   .     S
N321   Zn336   2.097   .     S
N321   N322    1.289   .     D
N322   O325    1.349   .     S
N322   Zn335   2.097   .     S
O323   Zn335   2.027   .     S
O323   C337    1.315   .     S
O324   C509    1.378   .     S
O327   Zn336   2.023   .     S
O328   Zn335   2.003   .     S
O328   C340    1.333   .     S
O329   Zn336   2.065   .     S
O330   Zn335   2.023   .     S
O331   Zn336   2.027   .     S
O331   C426    1.314   1_455 S
O332   Zn335   2.065   .     S
O333   Zn336   2.003   .     S
O333   C427    1.322   1_455 S
O334   C452    1.372   1_455 S
C337   C339    1.439   .     S
C337   O411    1.328   .     A
C338   C340    1.437   .     S
C338   C359    1.427   .     A
C338   C346    1.390   .     A
C339   H403    1.082   .     S
C339   C509    1.336   .     S
C340   O413    1.310   .     A
C341   C342    1.438   .     S
C342   O414    1.327   .     A
C342   O499    1.314   .     S
C343   C345    1.452   .     S
C343   O416    1.326   .     A
C343   O501    1.322   .     S
C344   C368    1.404   .     A
C344   C1120   1.394   1_554 S
C344   H1147   1.073   1_554 S
C345   C368    1.388   .     A
C345   C367    1.375   .     A
C346   H400    1.084   .     S
C346   C347    1.374   .     A
C347   C1105   1.396   .     S
C347   H1157   1.063   .     S
C348   C359    1.409   .     A
C348   C1105   1.396   .     S
C348   C1119   1.406   .     S
C349   O410    1.379   .     S
C349   C1103   1.396   1_554 S
C349   C1104   1.396   1_554 S
C350   O418    1.413   .     S
C350   C351    1.527   .     S
C351   C352    1.528   .     S
C351   H371    1.109   .     S
C351   H372    1.100   .     S
C352   H373    1.101   .     S
C352   H375    1.106   .     S
C352   H374    1.109   .     S
C353   H376    1.106   .     S
C353   O408    1.405   .     S
C353   C606    1.514   .     S
C353   H629    1.110   .     S
C354   H378    1.103   .     S
C354   C355    1.508   .     S
C354   H379    1.110   .     S
C355   H382    1.108   .     S
C355   H381    1.101   .     S
C356   H385    1.110   .     S
C356   H384    1.103   .     S
C356   O409    1.402   .     S
C356   C357    1.528   .     S
C357   C358    1.522   .     S
C357   H386    1.107   .     S
C357   H387    1.107   .     S
C358   H390    1.110   .     S
C358   H389    1.110   .     S
C358   H388    1.108   .     S
C359   C366    1.412   .     A
C360   H393    1.110   .     S
C360   C361    1.518   .     S
C360   H392    1.113   .     S
C360   O410    1.420   .     S
C361   C362    1.528   .     S
C361   H394    1.092   .     S
C361   H395    1.105   .     S
C362   H397    1.106   .     S
C362   H398    1.104   .     S
C362   H396    1.108   .     S
C363   C367    1.402   .     A
C363   C1104   1.406   1_554 S
C363   C1120   1.402   1_554 S
C364   C365    1.391   .     A
C364   C1100   1.394   .     S
C364   C1119   1.402   .     S
C365   C366    1.394   .     A
C365   H380    1.080   .     S
C366   H402    1.070   .     S
C367   H399    1.064   .     S
C368   O502    1.372   .     S
H369   N405    1.023   .     S
H370   C434    1.112   .     S
H383   C607    1.103   .     S
H391   C1100   1.073   .     S
H401   C1103   1.063   1_554 S
H404   C434    1.110   .     S
N405   Zn420   2.097   .     S
N405   N406    1.289   .     D
N406   O409    1.349   .     S
N406   Zn419   2.097   .     S
O407   Zn419   2.027   .     S
O407   C421    1.315   .     S
O408   C593    1.378   .     S
O411   Zn420   2.023   .     S
O412   Zn419   2.003   .     S
O412   C424    1.333   .     S
O413   Zn420   2.065   .     S
O414   Zn419   2.023   .     S
O415   Zn420   2.027   .     S
O416   Zn419   2.065   .     S
O417   Zn420   2.003   .     S
C421   C423    1.439   .     S
C421   O495    1.328   .     A
C422   C424    1.437   .     S
C422   C443    1.427   .     A
C422   C430    1.390   .     A
C423   H487    1.082   .     S
C423   C593    1.336   .     S
C424   O497    1.310   .     A
C425   C426    1.438   .     S
C425   C3      1.336   1_655 S
C426   O498    1.327   .     A
C426   O331    1.314   1_655 S
C427   C429    1.452   .     S
C427   O500    1.326   .     A
C427   O333    1.322   1_655 S
C428   C452    1.404   .     A
C428   C1204   1.394   1_554 S
C428   H1231   1.073   1_554 S
C429   C452    1.388   .     A
C429   C451    1.375   .     A
C430   H484    1.084   .     S
C430   C431    1.374   .     A
C431   C1189   1.396   .     S
C431   H1241   1.063   .     S
C432   C443    1.409   .     A
C432   C1189   1.396   .     S
C432   C1203   1.406   .     S
C433   O494    1.379   .     S
C433   C1187   1.396   1_554 S
C433   C1188   1.396   1_554 S
C434   O502    1.413   .     S
C434   C435    1.527   .     S
C435   C436    1.528   .     S
C435   H455    1.109   .     S
C435   H456    1.100   .     S
C436   H457    1.101   .     S
C436   H459    1.106   .     S
C436   H458    1.109   .     S
C437   H460    1.106   .     S
C437   O492    1.405   .     S
C437   C690    1.514   .     S
C437   H713    1.110   .     S
C438   H462    1.103   .     S
C438   C439    1.508   .     S
C438   H463    1.110   .     S
C439   H466    1.108   .     S
C439   H465    1.101   .     S
C440   H469    1.110   .     S
C440   H468    1.103   .     S
C440   O493    1.402   .     S
C440   C441    1.528   .     S
C441   C442    1.522   .     S
C441   H470    1.107   .     S
C441   H471    1.107   .     S
C442   H474    1.110   .     S
C442   H473    1.110   .     S
C442   H472    1.108   .     S
C443   C450    1.412   .     A
C444   H477    1.110   .     S
C444   C445    1.518   .     S
C444   H476    1.113   .     S
C444   O494    1.420   .     S
C445   C446    1.528   .     S
C445   H478    1.092   .     S
C445   H479    1.105   .     S
C446   H481    1.106   .     S
C446   H482    1.104   .     S
C446   H480    1.108   .     S
C447   C451    1.402   .     A
C447   C1188   1.406   1_554 S
C447   C1204   1.402   1_554 S
C448   C449    1.391   .     A
C448   C1184   1.394   .     S
C448   C1203   1.402   .     S
C449   C450    1.394   .     A
C449   H464    1.080   .     S
C450   H486    1.070   .     S
C451   H483    1.064   .     S
C452   O334    1.372   1_655 S
H453   N489    1.023   .     S
H454   C266    1.112   1_655 S
H467   C691    1.103   .     S
H475   C1184   1.073   .     S
H485   C1187   1.063   1_554 S
H488   C266    1.110   1_655 S
N489   Zn504   2.097   .     S
N489   N490    1.289   .     D
N490   O493    1.349   .     S
N490   Zn503   2.097   .     S
O491   Zn503   2.027   .     S
O491   C253    1.315   1_655 S
O492   C677    1.378   .     S
O495   Zn504   2.023   .     S
O496   Zn503   2.003   .     S
O496   C256    1.333   1_655 S
O497   Zn504   2.065   .     S
O498   Zn503   2.023   .     S
O499   Zn504   2.027   .     S
O500   Zn503   2.065   .     S
O501   Zn504   2.003   .     S
C505   C507    1.439   .     S
C505   O579    1.328   .     A
C505   O743    1.315   1_455 S
C506   C508    1.437   .     S
C506   C527    1.427   .     A
C506   C514    1.390   .     A
C507   H571    1.082   .     S
C507   C173    1.336   1_465 S
C508   O581    1.310   .     A
C508   O748    1.333   1_455 S
C509   C510    1.438   .     S
C510   O582    1.327   .     A
C510   O667    1.314   .     S
C511   C513    1.452   .     S
C511   O584    1.326   .     A
C511   O669    1.322   .     S
C512   C536    1.404   .     A
C512   C1288   1.394   1_554 S
C512   H1315   1.073   1_554 S
C513   C536    1.388   .     A
C513   C535    1.375   .     A
C514   H568    1.084   .     S
C514   C515    1.374   .     A
C515   C1273   1.396   .     S
C515   H1325   1.063   .     S
C516   C527    1.409   .     A
C516   C1273   1.396   .     S
C516   C1287   1.406   .     S
C517   O578    1.379   .     S
C517   C1271   1.396   1_554 S
C517   C1272   1.396   1_554 S
C518   O586    1.413   .     S
C518   C519    1.527   .     S
C518   H706    1.112   1_455 S
C518   H740    1.110   1_455 S
C519   C520    1.528   .     S
C519   H539    1.109   .     S
C519   H540    1.100   .     S
C520   H541    1.101   .     S
C520   H543    1.106   .     S
C520   H542    1.109   .     S
C521   H544    1.106   .     S
C521   O576    1.405   .     S
C521   C18     1.514   1_565 S
C521   H41     1.110   1_565 S
C522   H546    1.103   .     S
C522   C523    1.508   .     S
C522   H547    1.110   .     S
C523   H550    1.108   .     S
C523   H549    1.101   .     S
C524   H553    1.110   .     S
C524   H552    1.103   .     S
C524   O577    1.402   .     S
C524   C525    1.528   .     S
C525   C526    1.522   .     S
C525   H554    1.107   .     S
C525   H555    1.107   .     S
C526   H558    1.110   .     S
C526   H557    1.110   .     S
C526   H556    1.108   .     S
C527   C534    1.412   .     A
C528   H561    1.110   .     S
C528   C529    1.518   .     S
C528   H560    1.113   .     S
C528   O578    1.420   .     S
C529   C530    1.528   .     S
C529   H562    1.092   .     S
C529   H563    1.105   .     S
C530   H565    1.106   .     S
C530   H566    1.104   .     S
C530   H564    1.108   .     S
C531   C535    1.402   .     A
C531   C1272   1.406   1_554 S
C531   C1288   1.402   1_554 S
C532   C533    1.391   .     A
C532   C1268   1.394   .     S
C532   C1287   1.402   .     S
C533   C534    1.394   .     A
C533   H548    1.080   .     S
C534   H570    1.070   .     S
C535   H567    1.064   .     S
C536   O670    1.372   .     S
H537   N573    1.023   .     S
H538   C602    1.112   .     S
H551   C19     1.103   1_565 S
H559   C1268   1.073   .     S
H569   C1271   1.063   1_554 S
H572   C602    1.110   .     S
N573   Zn588   2.097   .     S
N573   N574    1.289   .     D
N574   O577    1.349   .     S
N574   Zn587   2.097   .     S
O575   Zn587   2.027   .     S
O575   C589    1.315   .     S
O576   C5      1.378   1_565 S
O579   Zn588   2.023   .     S
O580   Zn587   2.003   .     S
O580   C592    1.333   .     S
O581   Zn588   2.065   .     S
O582   Zn587   2.023   .     S
O583   Zn588   2.027   .     S
O583   C678    1.314   1_455 S
O584   Zn587   2.065   .     S
O585   Zn588   2.003   .     S
O585   C679    1.322   1_455 S
O586   C704    1.372   1_455 S
C589   C591    1.439   .     S
C589   O663    1.328   .     A
C590   C592    1.437   .     S
C590   C611    1.427   .     A
C590   C598    1.390   .     A
C591   H655    1.082   .     S
C591   C5      1.336   1_565 S
C592   O665    1.310   .     A
C593   C594    1.438   .     S
C594   O666    1.327   .     A
C594   O751    1.314   .     S
C595   C597    1.452   .     S
C595   O668    1.326   .     A
C595   O753    1.322   .     S
C596   C620    1.404   .     A
C596   C1372   1.394   1_554 S
C596   H1399   1.073   1_554 S
C597   C620    1.388   .     A
C597   C619    1.375   .     A
C598   H652    1.084   .     S
C598   C599    1.374   .     A
C599   C1357   1.396   .     S
C599   H1409   1.063   .     S
C600   C611    1.409   .     A
C600   C1357   1.396   .     S
C600   C1371   1.406   .     S
C601   O662    1.379   .     S
C601   C1355   1.396   1_554 S
C601   C1356   1.396   1_554 S
C602   O670    1.413   .     S
C602   C603    1.527   .     S
C603   C604    1.528   .     S
C603   H623    1.109   .     S
C603   H624    1.100   .     S
C604   H625    1.101   .     S
C604   H627    1.106   .     S
C604   H626    1.109   .     S
C605   H628    1.106   .     S
C605   O660    1.405   .     S
C605   C102    1.514   1_565 S
C605   H125    1.110   1_565 S
C606   H630    1.103   .     S
C606   C607    1.508   .     S
C606   H631    1.110   .     S
C607   H634    1.108   .     S
C607   H633    1.101   .     S
C608   H637    1.110   .     S
C608   H636    1.103   .     S
C608   O661    1.402   .     S
C608   C609    1.528   .     S
C609   C610    1.522   .     S
C609   H638    1.107   .     S
C609   H639    1.107   .     S
C610   H642    1.110   .     S
C610   H641    1.110   .     S
C610   H640    1.108   .     S
C611   C618    1.412   .     A
C612   H645    1.110   .     S
C612   C613    1.518   .     S
C612   H644    1.113   .     S
C612   O662    1.420   .     S
C613   C614    1.528   .     S
C613   H646    1.092   .     S
C613   H647    1.105   .     S
C614   H649    1.106   .     S
C614   H650    1.104   .     S
C614   H648    1.108   .     S
C615   C619    1.402   .     A
C615   C1356   1.406   1_554 S
C615   C1372   1.402   1_554 S
C616   C617    1.391   .     A
C616   C1352   1.394   .     S
C616   C1371   1.402   .     S
C617   C618    1.394   .     A
C617   H632    1.080   .     S
C618   H654    1.070   .     S
C619   H651    1.064   .     S
C620   O754    1.372   .     S
H621   N657    1.023   .     S
H622   C686    1.112   .     S
H635   C103    1.103   1_565 S
H643   C1352   1.073   .     S
H653   C1355   1.063   1_554 S
H656   C686    1.110   .     S
N657   Zn672   2.097   .     S
N657   N658    1.289   .     D
N658   O661    1.349   .     S
N658   Zn671   2.097   .     S
O659   Zn671   2.027   .     S
O659   C673    1.315   .     S
O660   C89     1.378   1_565 S
O663   Zn672   2.023   .     S
O664   Zn671   2.003   .     S
O664   C676    1.333   .     S
O665   Zn672   2.065   .     S
O666   Zn671   2.023   .     S
O667   Zn672   2.027   .     S
O668   Zn671   2.065   .     S
O669   Zn672   2.003   .     S
C673   C675    1.439   .     S
C673   O747    1.328   .     A
C674   C676    1.437   .     S
C674   C695    1.427   .     A
C674   C682    1.390   .     A
C675   H739    1.082   .     S
C675   C89     1.336   1_565 S
C676   O749    1.310   .     A
C677   C678    1.438   .     S
C677   C255    1.336   1_655 S
C678   O750    1.327   .     A
C678   O583    1.314   1_655 S
C679   C681    1.452   .     S
C679   O752    1.326   .     A
C679   O585    1.322   1_655 S
C680   C704    1.404   .     A
C680   C1456   1.394   1_554 S
C680   H1483   1.073   1_554 S
C681   C704    1.388   .     A
C681   C703    1.375   .     A
C682   H736    1.084   .     S
C682   C683    1.374   .     A
C683   C1441   1.396   .     S
C683   H1493   1.063   .     S
C684   C695    1.409   .     A
C684   C1441   1.396   .     S
C684   C1455   1.406   .     S
C685   O746    1.379   .     S
C685   C1439   1.396   1_554 S
C685   C1440   1.396   1_554 S
C686   O754    1.413   .     S
C686   C687    1.527   .     S
C687   C688    1.528   .     S
C687   H707    1.109   .     S
C687   H708    1.100   .     S
C688   H709    1.101   .     S
C688   H711    1.106   .     S
C688   H710    1.109   .     S
C689   H712    1.106   .     S
C689   O744    1.405   .     S
C689   C186    1.514   1_565 S
C689   H209    1.110   1_565 S
C690   H714    1.103   .     S
C690   C691    1.508   .     S
C690   H715    1.110   .     S
C691   H718    1.108   .     S
C691   H717    1.101   .     S
C692   H721    1.110   .     S
C692   H720    1.103   .     S
C692   O745    1.402   .     S
C692   C693    1.528   .     S
C693   C694    1.522   .     S
C693   H722    1.107   .     S
C693   H723    1.107   .     S
C694   H726    1.110   .     S
C694   H725    1.110   .     S
C694   H724    1.108   .     S
C695   C702    1.412   .     A
C696   H729    1.110   .     S
C696   C697    1.518   .     S
C696   H728    1.113   .     S
C696   O746    1.420   .     S
C697   C698    1.528   .     S
C697   H730    1.092   .     S
C697   H731    1.105   .     S
C698   H733    1.106   .     S
C698   H734    1.104   .     S
C698   H732    1.108   .     S
C699   C703    1.402   .     A
C699   C1440   1.406   1_554 S
C699   C1456   1.402   1_554 S
C700   C701    1.391   .     A
C700   C1436   1.394   .     S
C700   C1455   1.402   .     S
C701   C702    1.394   .     A
C701   H716    1.080   .     S
C702   H738    1.070   .     S
C703   H735    1.064   .     S
C704   O586    1.372   1_655 S
H705   N741    1.023   .     S
H706   C518    1.112   1_655 S
H719   C187    1.103   1_565 S
H727   C1436   1.073   .     S
H737   C1439   1.063   1_554 S
H740   C518    1.110   1_655 S
N741   Zn756   2.097   .     S
N741   N742    1.289   .     D
N742   O745    1.349   .     S
N742   Zn755   2.097   .     S
O743   Zn755   2.027   .     S
O743   C505    1.315   1_655 S
O744   C173    1.378   1_565 S
O747   Zn756   2.023   .     S
O748   Zn755   2.003   .     S
O748   C508    1.333   1_655 S
O749   Zn756   2.065   .     S
O750   Zn755   2.023   .     S
O751   Zn756   2.027   .     S
O752   Zn755   2.065   .     S
O753   Zn756   2.003   .     S
C757   C759    1.439   .     S
C757   O831    1.328   .     A
C757   O995    1.315   1_455 S
C758   C760    1.437   .     S
C758   C779    1.427   .     A
C758   C766    1.390   .     A
C759   H823    1.082   .     S
C759   C1181   1.336   1_455 S
C760   O833    1.310   .     A
C760   O1000   1.333   1_455 S
C761   C762    1.438   .     S
C761   C1347   1.336   1_545 S
C761   O1332   1.378   1_545 S
C762   O834    1.327   .     A
C762   O919    1.314   .     S
C763   C765    1.452   .     S
C763   O836    1.326   .     A
C763   O921    1.322   .     S
C764   C788    1.404   .     A
C765   C788    1.388   .     A
C765   C787    1.375   .     A
C766   H820    1.084   .     S
C766   C767    1.374   .     A
C767   C13     1.396   1_556 S
C767   H65     1.063   1_556 S
C768   C779    1.409   .     A
C768   C13     1.396   1_556 S
C768   C27     1.406   1_556 S
C769   O830    1.379   .     S
C770   O838    1.413   .     S
C770   C771    1.527   .     S
C770   H958    1.112   1_455 S
C770   H992    1.110   1_455 S
C771   C772    1.528   .     S
C771   H791    1.109   .     S
C771   H792    1.100   .     S
C772   H793    1.101   .     S
C772   H795    1.106   .     S
C772   H794    1.109   .     S
C773   H796    1.106   .     S
C773   O828    1.405   .     S
C773   C1026   1.514   .     S
C773   H1049   1.110   .     S
C774   H798    1.103   .     S
C774   C775    1.508   .     S
C774   H799    1.110   .     S
C774   C1277   1.514   1_545 S
C775   H802    1.108   .     S
C775   H801    1.101   .     S
C775   H1307   1.103   1_545 S
C776   H805    1.110   .     S
C776   H804    1.103   .     S
C776   O829    1.402   .     S
C776   C777    1.528   .     S
C777   C778    1.522   .     S
C777   H806    1.107   .     S
C777   H807    1.107   .     S
C778   H810    1.110   .     S
C778   H809    1.110   .     S
C778   H808    1.108   .     S
C779   C786    1.412   .     A
C780   H813    1.110   .     S
C780   C781    1.518   .     S
C780   H812    1.113   .     S
C780   O830    1.420   .     S
C781   C782    1.528   .     S
C781   H814    1.092   .     S
C781   H815    1.105   .     S
C782   H817    1.106   .     S
C782   H818    1.104   .     S
C782   H816    1.108   .     S
C783   C787    1.402   .     A
C784   C785    1.391   .     A
C784   C8      1.394   1_556 S
C784   C27     1.402   1_556 S
C785   C786    1.394   .     A
C785   H800    1.080   .     S
C786   H822    1.070   .     S
C787   H819    1.064   .     S
C788   O922    1.372   .     S
H789   N825    1.023   .     S
H790   C854    1.112   .     S
H797   C1277   1.110   1_545 S
H803   C1027   1.103   .     S
H811   C8      1.073   1_556 S
H824   C854    1.110   .     S
N825   Zn840   2.097   .     S
N825   N826    1.289   .     D
N826   O829    1.349   .     S
N826   Zn839   2.097   .     S
O827   Zn839   2.027   .     S
O827   C841    1.315   .     S
O828   C1013   1.378   .     S
O831   Zn840   2.023   .     S
O832   Zn839   2.003   .     S
O832   C844    1.333   .     S
O833   Zn840   2.065   .     S
O834   Zn839   2.023   .     S
O835   Zn840   2.027   .     S
O835   C930    1.314   1_455 S
O836   Zn839   2.065   .     S
O837   Zn840   2.003   .     S
O837   C931    1.322   1_455 S
O838   C956    1.372   1_455 S
C841   C843    1.439   .     S
C841   O915    1.328   .     A
C842   C844    1.437   .     S
C842   C863    1.427   .     A
C842   C850    1.390   .     A
C843   H907    1.082   .     S
C843   C1013   1.336   .     S
C844   O917    1.310   .     A
C845   C846    1.438   .     S
C845   C1431   1.336   1_545 S
C845   O1416   1.378   1_545 S
C846   O918    1.327   .     A
C846   O1003   1.314   .     S
C847   C849    1.452   .     S
C847   O920    1.326   .     A
C847   O1005   1.322   .     S
C848   C872    1.404   .     A
C849   C872    1.388   .     A
C849   C871    1.375   .     A
C850   H904    1.084   .     S
C850   C851    1.374   .     A
C851   C97     1.396   1_556 S
C851   H149    1.063   1_556 S
C852   C863    1.409   .     A
C852   C97     1.396   1_556 S
C852   C111    1.406   1_556 S
C853   O914    1.379   .     S
C854   O922    1.413   .     S
C854   C855    1.527   .     S
C855   C856    1.528   .     S
C855   H875    1.109   .     S
C855   H876    1.100   .     S
C856   H877    1.101   .     S
C856   H879    1.106   .     S
C856   H878    1.109   .     S
C857   H880    1.106   .     S
C857   O912    1.405   .     S
C857   C1110   1.514   .     S
C857   H1133   1.110   .     S
C858   H882    1.103   .     S
C858   C859    1.508   .     S
C858   H883    1.110   .     S
C858   C1361   1.514   1_545 S
C859   H886    1.108   .     S
C859   H885    1.101   .     S
C859   H1391   1.103   1_545 S
C860   H889    1.110   .     S
C860   H888    1.103   .     S
C860   O913    1.402   .     S
C860   C861    1.528   .     S
C861   C862    1.522   .     S
C861   H890    1.107   .     S
C861   H891    1.107   .     S
C862   H894    1.110   .     S
C862   H893    1.110   .     S
C862   H892    1.108   .     S
C863   C870    1.412   .     A
C864   H897    1.110   .     S
C864   C865    1.518   .     S
C864   H896    1.113   .     S
C864   O914    1.420   .     S
C865   C866    1.528   .     S
C865   H898    1.092   .     S
C865   H899    1.105   .     S
C866   H901    1.106   .     S
C866   H902    1.104   .     S
C866   H900    1.108   .     S
C867   C871    1.402   .     A
C868   C869    1.391   .     A
C868   C92     1.394   1_556 S
C868   C111    1.402   1_556 S
C869   C870    1.394   .     A
C869   H884    1.080   .     S
C870   H906    1.070   .     S
C871   H903    1.064   .     S
C872   O1006   1.372   .     S
H873   N909    1.023   .     S
H874   C938    1.112   .     S
H881   C1361   1.110   1_545 S
H887   C1111   1.103   .     S
H895   C92     1.073   1_556 S
H908   C938    1.110   .     S
N909   Zn924   2.097   .     S
N909   N910    1.289   .     D
N910   O913    1.349   .     S
N910   Zn923   2.097   .     S
O911   Zn923   2.027   .     S
O911   C925    1.315   .     S
O912   C1097   1.378   .     S
O915   Zn924   2.023   .     S
O916   Zn923   2.003   .     S
O916   C928    1.333   .     S
O917   Zn924   2.065   .     S
O918   Zn923   2.023   .     S
O919   Zn924   2.027   .     S
O920   Zn923   2.065   .     S
O921   Zn924   2.003   .     S
C925   C927    1.439   .     S
C925   O999    1.328   .     A
C926   C928    1.437   .     S
C926   C947    1.427   .     A
C926   C934    1.390   .     A
C927   H991    1.082   .     S
C927   C1097   1.336   .     S
C928   O1001   1.310   .     A
C929   C930    1.438   .     S
C929   C1263   1.336   1_645 S
C929   O1500   1.378   1_545 S
C930   O1002   1.327   .     A
C930   O835    1.314   1_655 S
C931   C933    1.452   .     S
C931   O1004   1.326   .     A
C931   O837    1.322   1_655 S
C932   C956    1.404   .     A
C933   C956    1.388   .     A
C933   C955    1.375   .     A
C934   H988    1.084   .     S
C934   C935    1.374   .     A
C935   C181    1.396   1_556 S
C935   H233    1.063   1_556 S
C936   C947    1.409   .     A
C936   C181    1.396   1_556 S
C936   C195    1.406   1_556 S
C937   O998    1.379   .     S
C938   O1006   1.413   .     S
C938   C939    1.527   .     S
C939   C940    1.528   .     S
C939   H959    1.109   .     S
C939   H960    1.100   .     S
C940   H961    1.101   .     S
C940   H963    1.106   .     S
C940   H962    1.109   .     S
C941   H964    1.106   .     S
C941   O996    1.405   .     S
C941   C1194   1.514   .     S
C941   H1217   1.110   .     S
C942   H966    1.103   .     S
C942   C943    1.508   .     S
C942   H967    1.110   .     S
C942   C1445   1.514   1_545 S
C943   H970    1.108   .     S
C943   H969    1.101   .     S
C943   H1475   1.103   1_545 S
C944   H973    1.110   .     S
C944   H972    1.103   .     S
C944   O997    1.402   .     S
C944   C945    1.528   .     S
C945   C946    1.522   .     S
C945   H974    1.107   .     S
C945   H975    1.107   .     S
C946   H978    1.110   .     S
C946   H977    1.110   .     S
C946   H976    1.108   .     S
C947   C954    1.412   .     A
C948   H981    1.110   .     S
C948   C949    1.518   .     S
C948   H980    1.113   .     S
C948   O998    1.420   .     S
C949   C950    1.528   .     S
C949   H982    1.092   .     S
C949   H983    1.105   .     S
C950   H985    1.106   .     S
C950   H986    1.104   .     S
C950   H984    1.108   .     S
C951   C955    1.402   .     A
C952   C953    1.391   .     A
C952   C176    1.394   1_556 S
C952   C195    1.402   1_556 S
C953   C954    1.394   .     A
C953   H968    1.080   .     S
C954   H990    1.070   .     S
C955   H987    1.064   .     S
C956   O838    1.372   1_655 S
H957   N993    1.023   .     S
H958   C770    1.112   1_655 S
H965   C1445   1.110   1_545 S
H971   C1195   1.103   .     S
H979   C176    1.073   1_556 S
H992   C770    1.110   1_655 S
N993   Zn1008  2.097   .     S
N993   N994    1.289   .     D
N994   O997    1.349   .     S
N994   Zn1007  2.097   .     S
O995   Zn1007  2.027   .     S
O995   C757    1.315   1_655 S
O996   C1181   1.378   .     S
O999   Zn1008  2.023   .     S
O1000  Zn1007  2.003   .     S
O1000  C760    1.333   1_655 S
O1001  Zn1008  2.065   .     S
O1002  Zn1007  2.023   .     S
O1003  Zn1008  2.027   .     S
O1004  Zn1007  2.065   .     S
O1005  Zn1008  2.003   .     S
C1009  C1011   1.439   .     S
C1009  O1083   1.328   .     A
C1009  O1247   1.315   1_455 S
C1010  C1012   1.437   .     S
C1010  C1031   1.427   .     A
C1010  C1018   1.390   .     A
C1011  H1075   1.082   .     S
C1011  C1433   1.336   1_455 S
C1012  O1085   1.310   .     A
C1012  O1252   1.333   1_455 S
C1013  C1014   1.438   .     S
C1014  O1086   1.327   .     A
C1014  O1171   1.314   .     S
C1015  C1017   1.452   .     S
C1015  O1088   1.326   .     A
C1015  O1173   1.322   .     S
C1016  C1040   1.404   .     A
C1017  C1040   1.388   .     A
C1017  C1039   1.375   .     A
C1018  H1072   1.084   .     S
C1018  C1019   1.374   .     A
C1019  C265    1.396   1_556 S
C1019  H317    1.063   1_556 S
C1020  C1031   1.409   .     A
C1020  C265    1.396   1_556 S
C1020  C279    1.406   1_556 S
C1021  O1082   1.379   .     S
C1022  O1090   1.413   .     S
C1022  C1023   1.527   .     S
C1022  H1210   1.112   1_455 S
C1022  H1244   1.110   1_455 S
C1023  C1024   1.528   .     S
C1023  H1043   1.109   .     S
C1023  H1044   1.100   .     S
C1024  H1045   1.101   .     S
C1024  H1047   1.106   .     S
C1024  H1046   1.109   .     S
C1025  H1048   1.106   .     S
C1025  O1080   1.405   .     S
C1025  C1278   1.514   .     S
C1025  H1301   1.110   .     S
C1026  H1050   1.103   .     S
C1026  C1027   1.508   .     S
C1026  H1051   1.110   .     S
C1027  H1054   1.108   .     S
C1027  H1053   1.101   .     S
C1028  H1057   1.110   .     S
C1028  H1056   1.103   .     S
C1028  O1081   1.402   .     S
C1028  C1029   1.528   .     S
C1029  C1030   1.522   .     S
C1029  H1058   1.107   .     S
C1029  H1059   1.107   .     S
C1030  H1062   1.110   .     S
C1030  H1061   1.110   .     S
C1030  H1060   1.108   .     S
C1031  C1038   1.412   .     A
C1032  H1065   1.110   .     S
C1032  C1033   1.518   .     S
C1032  H1064   1.113   .     S
C1032  O1082   1.420   .     S
C1033  C1034   1.528   .     S
C1033  H1066   1.092   .     S
C1033  H1067   1.105   .     S
C1034  H1069   1.106   .     S
C1034  H1070   1.104   .     S
C1034  H1068   1.108   .     S
C1035  C1039   1.402   .     A
C1036  C1037   1.391   .     A
C1036  C260    1.394   1_556 S
C1036  C279    1.402   1_556 S
C1037  C1038   1.394   .     A
C1037  H1052   1.080   .     S
C1038  H1074   1.070   .     S
C1039  H1071   1.064   .     S
C1040  O1174   1.372   .     S
H1041  N1077   1.023   .     S
H1042  C1106   1.112   .     S
H1055  C1279   1.103   .     S
H1063  C260    1.073   1_556 S
H1076  C1106   1.110   .     S
N1077  Zn1092  2.097   .     S
N1077  N1078   1.289   .     D
N1078  O1081   1.349   .     S
N1078  Zn1091  2.097   .     S
O1079  Zn1091  2.027   .     S
O1079  C1093   1.315   .     S
O1080  C1265   1.378   .     S
O1083  Zn1092  2.023   .     S
O1084  Zn1091  2.003   .     S
O1084  C1096   1.333   .     S
O1085  Zn1092  2.065   .     S
O1086  Zn1091  2.023   .     S
O1087  Zn1092  2.027   .     S
O1087  C1182   1.314   1_455 S
O1088  Zn1091  2.065   .     S
O1089  Zn1092  2.003   .     S
O1089  C1183   1.322   1_455 S
O1090  C1208   1.372   1_455 S
C1093  C1095   1.439   .     S
C1093  O1167   1.328   .     A
C1094  C1096   1.437   .     S
C1094  C1115   1.427   .     A
C1094  C1102   1.390   .     A
C1095  H1159   1.082   .     S
C1095  C1265   1.336   .     S
C1096  O1169   1.310   .     A
C1097  C1098   1.438   .     S
C1098  O1170   1.327   .     A
C1098  O1255   1.314   .     S
C1099  C1101   1.452   .     S
C1099  O1172   1.326   .     A
C1099  O1257   1.322   .     S
C1100  C1124   1.404   .     A
C1101  C1124   1.388   .     A
C1101  C1123   1.375   .     A
C1102  H1156   1.084   .     S
C1102  C1103   1.374   .     A
C1103  C349    1.396   1_556 S
C1103  H401    1.063   1_556 S
C1104  C1115   1.409   .     A
C1104  C349    1.396   1_556 S
C1104  C363    1.406   1_556 S
C1105  O1166   1.379   .     S
C1106  O1174   1.413   .     S
C1106  C1107   1.527   .     S
C1107  C1108   1.528   .     S
C1107  H1127   1.109   .     S
C1107  H1128   1.100   .     S
C1108  H1129   1.101   .     S
C1108  H1131   1.106   .     S
C1108  H1130   1.109   .     S
C1109  H1132   1.106   .     S
C1109  O1164   1.405   .     S
C1109  C1362   1.514   .     S
C1109  H1385   1.110   .     S
C1110  H1134   1.103   .     S
C1110  C1111   1.508   .     S
C1110  H1135   1.110   .     S
C1111  H1138   1.108   .     S
C1111  H1137   1.101   .     S
C1112  H1141   1.110   .     S
C1112  H1140   1.103   .     S
C1112  O1165   1.402   .     S
C1112  C1113   1.528   .     S
C1113  C1114   1.522   .     S
C1113  H1142   1.107   .     S
C1113  H1143   1.107   .     S
C1114  H1146   1.110   .     S
C1114  H1145   1.110   .     S
C1114  H1144   1.108   .     S
C1115  C1122   1.412   .     A
C1116  H1149   1.110   .     S
C1116  C1117   1.518   .     S
C1116  H1148   1.113   .     S
C1116  O1166   1.420   .     S
C1117  C1118   1.528   .     S
C1117  H1150   1.092   .     S
C1117  H1151   1.105   .     S
C1118  H1153   1.106   .     S
C1118  H1154   1.104   .     S
C1118  H1152   1.108   .     S
C1119  C1123   1.402   .     A
C1120  C1121   1.391   .     A
C1120  C344    1.394   1_556 S
C1120  C363    1.402   1_556 S
C1121  C1122   1.394   .     A
C1121  H1136   1.080   .     S
C1122  H1158   1.070   .     S
C1123  H1155   1.064   .     S
C1124  O1258   1.372   .     S
H1125  N1161   1.023   .     S
H1126  C1190   1.112   .     S
H1139  C1363   1.103   .     S
H1147  C344    1.073   1_556 S
H1160  C1190   1.110   .     S
N1161  Zn1176  2.097   .     S
N1161  N1162   1.289   .     D
N1162  O1165   1.349   .     S
N1162  Zn1175  2.097   .     S
O1163  Zn1175  2.027   .     S
O1163  C1177   1.315   .     S
O1164  C1349   1.378   .     S
O1167  Zn1176  2.023   .     S
O1168  Zn1175  2.003   .     S
O1168  C1180   1.333   .     S
O1169  Zn1176  2.065   .     S
O1170  Zn1175  2.023   .     S
O1171  Zn1176  2.027   .     S
O1172  Zn1175  2.065   .     S
O1173  Zn1176  2.003   .     S
C1177  C1179   1.439   .     S
C1177  O1251   1.328   .     A
C1178  C1180   1.437   .     S
C1178  C1199   1.427   .     A
C1178  C1186   1.390   .     A
C1179  H1243   1.082   .     S
C1179  C1349   1.336   .     S
C1180  O1253   1.310   .     A
C1181  C1182   1.438   .     S
C1181  C759    1.336   1_655 S
C1182  O1254   1.327   .     A
C1182  O1087   1.314   1_655 S
C1183  C1185   1.452   .     S
C1183  O1256   1.326   .     A
C1183  O1089   1.322   1_655 S
C1184  C1208   1.404   .     A
C1185  C1208   1.388   .     A
C1185  C1207   1.375   .     A
C1186  H1240   1.084   .     S
C1186  C1187   1.374   .     A
C1187  C433    1.396   1_556 S
C1187  H485    1.063   1_556 S
C1188  C1199   1.409   .     A
C1188  C433    1.396   1_556 S
C1188  C447    1.406   1_556 S
C1189  O1250   1.379   .     S
C1190  O1258   1.413   .     S
C1190  C1191   1.527   .     S
C1191  C1192   1.528   .     S
C1191  H1211   1.109   .     S
C1191  H1212   1.100   .     S
C1192  H1213   1.101   .     S
C1192  H1215   1.106   .     S
C1192  H1214   1.109   .     S
C1193  H1216   1.106   .     S
C1193  O1248   1.405   .     S
C1193  C1446   1.514   .     S
C1193  H1469   1.110   .     S
C1194  H1218   1.103   .     S
C1194  C1195   1.508   .     S
C1194  H1219   1.110   .     S
C1195  H1222   1.108   .     S
C1195  H1221   1.101   .     S
C1196  H1225   1.110   .     S
C1196  H1224   1.103   .     S
C1196  O1249   1.402   .     S
C1196  C1197   1.528   .     S
C1197  C1198   1.522   .     S
C1197  H1226   1.107   .     S
C1197  H1227   1.107   .     S
C1198  H1230   1.110   .     S
C1198  H1229   1.110   .     S
C1198  H1228   1.108   .     S
C1199  C1206   1.412   .     A
C1200  H1233   1.110   .     S
C1200  C1201   1.518   .     S
C1200  H1232   1.113   .     S
C1200  O1250   1.420   .     S
C1201  C1202   1.528   .     S
C1201  H1234   1.092   .     S
C1201  H1235   1.105   .     S
C1202  H1237   1.106   .     S
C1202  H1238   1.104   .     S
C1202  H1236   1.108   .     S
C1203  C1207   1.402   .     A
C1204  C1205   1.391   .     A
C1204  C428    1.394   1_556 S
C1204  C447    1.402   1_556 S
C1205  C1206   1.394   .     A
C1205  H1220   1.080   .     S
C1206  H1242   1.070   .     S
C1207  H1239   1.064   .     S
C1208  O1090   1.372   1_655 S
H1209  N1245   1.023   .     S
H1210  C1022   1.112   1_655 S
H1223  C1447   1.103   .     S
H1231  C428    1.073   1_556 S
H1244  C1022   1.110   1_655 S
N1245  Zn1260  2.097   .     S
N1245  N1246   1.289   .     D
N1246  O1249   1.349   .     S
N1246  Zn1259  2.097   .     S
O1247  Zn1259  2.027   .     S
O1247  C1009   1.315   1_655 S
O1248  C1433   1.378   .     S
O1251  Zn1260  2.023   .     S
O1252  Zn1259  2.003   .     S
O1252  C1012   1.333   1_655 S
O1253  Zn1260  2.065   .     S
O1254  Zn1259  2.023   .     S
O1255  Zn1260  2.027   .     S
O1256  Zn1259  2.065   .     S
O1257  Zn1260  2.003   .     S
C1261  C1263   1.439   .     S
C1261  O1335   1.328   .     A
C1261  O1499   1.315   1_455 S
C1262  C1264   1.437   .     S
C1262  C1283   1.427   .     A
C1262  C1270   1.390   .     A
C1263  H1327   1.082   .     S
C1263  C929    1.336   1_465 S
C1264  O1337   1.310   .     A
C1264  O1504   1.333   1_455 S
C1265  C1266   1.438   .     S
C1266  O1338   1.327   .     A
C1266  O1423   1.314   .     S
C1267  C1269   1.452   .     S
C1267  O1340   1.326   .     A
C1267  O1425   1.322   .     S
C1268  C1292   1.404   .     A
C1269  C1292   1.388   .     A
C1269  C1291   1.375   .     A
C1270  H1324   1.084   .     S
C1270  C1271   1.374   .     A
C1271  C517    1.396   1_556 S
C1271  H569    1.063   1_556 S
C1272  C1283   1.409   .     A
C1272  C517    1.396   1_556 S
C1272  C531    1.406   1_556 S
C1273  O1334   1.379   .     S
C1274  O1342   1.413   .     S
C1274  C1275   1.527   .     S
C1274  H1462   1.112   1_455 S
C1274  H1496   1.110   1_455 S
C1275  C1276   1.528   .     S
C1275  H1295   1.109   .     S
C1275  H1296   1.100   .     S
C1276  H1297   1.101   .     S
C1276  H1299   1.106   .     S
C1276  H1298   1.109   .     S
C1277  H1300   1.106   .     S
C1277  O1332   1.405   .     S
C1277  C774    1.514   1_565 S
C1277  H797    1.110   1_565 S
C1278  H1302   1.103   .     S
C1278  C1279   1.508   .     S
C1278  H1303   1.110   .     S
C1279  H1306   1.108   .     S
C1279  H1305   1.101   .     S
C1280  H1309   1.110   .     S
C1280  H1308   1.103   .     S
C1280  O1333   1.402   .     S
C1280  C1281   1.528   .     S
C1281  C1282   1.522   .     S
C1281  H1310   1.107   .     S
C1281  H1311   1.107   .     S
C1282  H1314   1.110   .     S
C1282  H1313   1.110   .     S
C1282  H1312   1.108   .     S
C1283  C1290   1.412   .     A
C1284  H1317   1.110   .     S
C1284  C1285   1.518   .     S
C1284  H1316   1.113   .     S
C1284  O1334   1.420   .     S
C1285  C1286   1.528   .     S
C1285  H1318   1.092   .     S
C1285  H1319   1.105   .     S
C1286  H1321   1.106   .     S
C1286  H1322   1.104   .     S
C1286  H1320   1.108   .     S
C1287  C1291   1.402   .     A
C1288  C1289   1.391   .     A
C1288  C512    1.394   1_556 S
C1288  C531    1.402   1_556 S
C1289  C1290   1.394   .     A
C1289  H1304   1.080   .     S
C1290  H1326   1.070   .     S
C1291  H1323   1.064   .     S
C1292  O1426   1.372   .     S
H1293  N1329   1.023   .     S
H1294  C1358   1.112   .     S
H1307  C775    1.103   1_565 S
H1315  C512    1.073   1_556 S
H1328  C1358   1.110   .     S
N1329  Zn1344  2.097   .     S
N1329  N1330   1.289   .     D
N1330  O1333   1.349   .     S
N1330  Zn1343  2.097   .     S
O1331  Zn1343  2.027   .     S
O1331  C1345   1.315   .     S
O1332  C761    1.378   1_565 S
O1335  Zn1344  2.023   .     S
O1336  Zn1343  2.003   .     S
O1336  C1348   1.333   .     S
O1337  Zn1344  2.065   .     S
O1338  Zn1343  2.023   .     S
O1339  Zn1344  2.027   .     S
O1339  C1434   1.314   1_455 S
O1340  Zn1343  2.065   .     S
O1341  Zn1344  2.003   .     S
O1341  C1435   1.322   1_455 S
O1342  C1460   1.372   1_455 S
C1345  C1347   1.439   .     S
C1345  O1419   1.328   .     A
C1346  C1348   1.437   .     S
C1346  C1367   1.427   .     A
C1346  C1354   1.390   .     A
C1347  H1411   1.082   .     S
C1347  C761    1.336   1_565 S
C1348  O1421   1.310   .     A
C1349  C1350   1.438   .     S
C1350  O1422   1.327   .     A
C1350  O1507   1.314   .     S
C1351  C1353   1.452   .     S
C1351  O1424   1.326   .     A
C1351  O1509   1.322   .     S
C1352  C1376   1.404   .     A
C1353  C1376   1.388   .     A
C1353  C1375   1.375   .     A
C1354  H1408   1.084   .     S
C1354  C1355   1.374   .     A
C1355  C601    1.396   1_556 S
C1355  H653    1.063   1_556 S
C1356  C1367   1.409   .     A
C1356  C601    1.396   1_556 S
C1356  C615    1.406   1_556 S
C1357  O1418   1.379   .     S
C1358  O1426   1.413   .     S
C1358  C1359   1.527   .     S
C1359  C1360   1.528   .     S
C1359  H1379   1.109   .     S
C1359  H1380   1.100   .     S
C1360  H1381   1.101   .     S
C1360  H1383   1.106   .     S
C1360  H1382   1.109   .     S
C1361  H1384   1.106   .     S
C1361  O1416   1.405   .     S
C1361  C858    1.514   1_565 S
C1361  H881    1.110   1_565 S
C1362  H1386   1.103   .     S
C1362  C1363   1.508   .     S
C1362  H1387   1.110   .     S
C1363  H1390   1.108   .     S
C1363  H1389   1.101   .     S
C1364  H1393   1.110   .     S
C1364  H1392   1.103   .     S
C1364  O1417   1.402   .     S
C1364  C1365   1.528   .     S
C1365  C1366   1.522   .     S
C1365  H1394   1.107   .     S
C1365  H1395   1.107   .     S
C1366  H1398   1.110   .     S
C1366  H1397   1.110   .     S
C1366  H1396   1.108   .     S
C1367  C1374   1.412   .     A
C1368  H1401   1.110   .     S
C1368  C1369   1.518   .     S
C1368  H1400   1.113   .     S
C1368  O1418   1.420   .     S
C1369  C1370   1.528   .     S
C1369  H1402   1.092   .     S
C1369  H1403   1.105   .     S
C1370  H1405   1.106   .     S
C1370  H1406   1.104   .     S
C1370  H1404   1.108   .     S
C1371  C1375   1.402   .     A
C1372  C1373   1.391   .     A
C1372  C596    1.394   1_556 S
C1372  C615    1.402   1_556 S
C1373  C1374   1.394   .     A
C1373  H1388   1.080   .     S
C1374  H1410   1.070   .     S
C1375  H1407   1.064   .     S
C1376  O1510   1.372   .     S
H1377  N1413   1.023   .     S
H1378  C1442   1.112   .     S
H1391  C859    1.103   1_565 S
H1399  C596    1.073   1_556 S
H1412  C1442   1.110   .     S
N1413  Zn1428  2.097   .     S
N1413  N1414   1.289   .     D
N1414  O1417   1.349   .     S
N1414  Zn1427  2.097   .     S
O1415  Zn1427  2.027   .     S
O1415  C1429   1.315   .     S
O1416  C845    1.378   1_565 S
O1419  Zn1428  2.023   .     S
O1420  Zn1427  2.003   .     S
O1420  C1432   1.333   .     S
O1421  Zn1428  2.065   .     S
O1422  Zn1427  2.023   .     S
O1423  Zn1428  2.027   .     S
O1424  Zn1427  2.065   .     S
O1425  Zn1428  2.003   .     S
C1429  C1431   1.439   .     S
C1429  O1503   1.328   .     A
C1430  C1432   1.437   .     S
C1430  C1451   1.427   .     A
C1430  C1438   1.390   .     A
C1431  H1495   1.082   .     S
C1431  C845    1.336   1_565 S
C1432  O1505   1.310   .     A
C1433  C1434   1.438   .     S
C1433  C1011   1.336   1_655 S
C1434  O1506   1.327   .     A
C1434  O1339   1.314   1_655 S
C1435  C1437   1.452   .     S
C1435  O1508   1.326   .     A
C1435  O1341   1.322   1_655 S
C1436  C1460   1.404   .     A
C1437  C1460   1.388   .     A
C1437  C1459   1.375   .     A
C1438  H1492   1.084   .     S
C1438  C1439   1.374   .     A
C1439  C685    1.396   1_556 S
C1439  H737    1.063   1_556 S
C1440  C1451   1.409   .     A
C1440  C685    1.396   1_556 S
C1440  C699    1.406   1_556 S
C1441  O1502   1.379   .     S
C1442  O1510   1.413   .     S
C1442  C1443   1.527   .     S
C1443  C1444   1.528   .     S
C1443  H1463   1.109   .     S
C1443  H1464   1.100   .     S
C1444  H1465   1.101   .     S
C1444  H1467   1.106   .     S
C1444  H1466   1.109   .     S
C1445  H1468   1.106   .     S
C1445  O1500   1.405   .     S
C1445  C942    1.514   1_565 S
C1445  H965    1.110   1_565 S
C1446  H1470   1.103   .     S
C1446  C1447   1.508   .     S
C1446  H1471   1.110   .     S
C1447  H1474   1.108   .     S
C1447  H1473   1.101   .     S
C1448  H1477   1.110   .     S
C1448  H1476   1.103   .     S
C1448  O1501   1.402   .     S
C1448  C1449   1.528   .     S
C1449  C1450   1.522   .     S
C1449  H1478   1.107   .     S
C1449  H1479   1.107   .     S
C1450  H1482   1.110   .     S
C1450  H1481   1.110   .     S
C1450  H1480   1.108   .     S
C1451  C1458   1.412   .     A
C1452  H1485   1.110   .     S
C1452  C1453   1.518   .     S
C1452  H1484   1.113   .     S
C1452  O1502   1.420   .     S
C1453  C1454   1.528   .     S
C1453  H1486   1.092   .     S
C1453  H1487   1.105   .     S
C1454  H1489   1.106   .     S
C1454  H1490   1.104   .     S
C1454  H1488   1.108   .     S
C1455  C1459   1.402   .     A
C1456  C1457   1.391   .     A
C1456  C680    1.394   1_556 S
C1456  C699    1.402   1_556 S
C1457  C1458   1.394   .     A
C1457  H1472   1.080   .     S
C1458  H1494   1.070   .     S
C1459  H1491   1.064   .     S
C1460  O1342   1.372   1_655 S
H1461  N1497   1.023   .     S
H1462  C1274   1.112   1_655 S
H1475  C943    1.103   1_565 S
H1483  C680    1.073   1_556 S
H1496  C1274   1.110   1_655 S
N1497  Zn1512  2.097   .     S
N1497  N1498   1.289   .     D
N1498  O1501   1.349   .     S
N1498  Zn1511  2.097   .     S
O1499  Zn1511  2.027   .     S
O1499  C1261   1.315   1_655 S
O1500  C929    1.378   1_565 S
O1503  Zn1512  2.023   .     S
O1504  Zn1511  2.003   .     S
O1504  C1264   1.333   1_655 S
O1505  Zn1512  2.065   .     S
O1506  Zn1511  2.023   .     S
O1507  Zn1512  2.027   .     S
O1508  Zn1511  2.065   .     S
O1509  Zn1512  2.003   .     S
