data_str_m1_o10_o16_pcu_sym.64
_audit_creation_date              2020-01-03
_audit_creation_method            'Materials Studio'
_symmetry_space_group_name_H-M    'P1'
_symmetry_Int_Tables_number       1
_symmetry_cell_setting            triclinic
loop_
_symmetry_equiv_pos_as_xyz
  x,y,z
_cell_length_a                    32.6799
_cell_length_b                    32.6981
_cell_length_c                    31.0085
_cell_angle_alpha                 96.5895
_cell_angle_beta                  74.8424
_cell_angle_gamma                 98.6927
loop_
_atom_site_label
_atom_site_type_symbol
_atom_site_fract_x
_atom_site_fract_y
_atom_site_fract_z
_atom_site_U_iso_or_equiv
_atom_site_adp_type
_atom_site_occupancy
C1     C     0.05331   0.15984   0.25912   0.00000  Uiso   1.00
C2     C     0.16979   0.16471   0.06094   0.00000  Uiso   1.00
C3     C     0.21610   0.11129   0.05714   0.00000  Uiso   1.00
C4     C     0.28068   0.17371   0.24035   0.00000  Uiso   1.00
C5     C     0.13867   0.19242   0.42089   0.00000  Uiso   1.00
C6     C     0.32615   0.17842   0.23960   0.00000  Uiso   1.00
C7     C     0.00815   0.15439   0.26347   0.00000  Uiso   1.00
C8     C     0.17737   0.32238   0.23409   0.00000  Uiso   1.00
C9     C     0.15124   0.01268   0.26585   0.00000  Uiso   1.00
C10    C     0.15583   0.05631   0.26064   0.00000  Uiso   1.00
C11    C     0.17600   0.27790   0.23955   0.00000  Uiso   1.00
C12    C     0.08369   0.20215   0.49112   0.00000  Uiso   1.00
C13    C     0.18542   0.14793   0.12959   0.00000  Uiso   1.00
C14    C     0.14862   0.18507   0.37107   0.00000  Uiso   1.00
C15    C     0.22260   0.10583   0.01018   0.00000  Uiso   1.00
C16    C     0.19116   0.14165   0.08156   0.00000  Uiso   1.00
C17    C     0.09851   0.20557   0.44448   0.00000  Uiso   1.00
C18    C     0.27625   0.10619   0.08740   0.00000  Uiso   1.00
C19    C     0.31552   0.11747   0.28877   0.00000  Uiso   1.00
C20    C     0.00782   0.09112   0.30734   0.00000  Uiso   1.00
C21    C     0.20765   0.00985   0.19308   0.00000  Uiso   1.00
C22    C     0.23381   0.31598   0.15573   0.00000  Uiso   1.00
C23    C     0.10856   0.18550   0.01332   0.00000  Uiso   1.00
C24    C     0.11975   0.33075   0.30881   0.00000  Uiso   1.00
C25    C     0.09646   0.03083   0.34053   0.00000  Uiso   1.00
C26    C     0.22860   0.08300   0.38312   0.00000  Uiso   1.00
C27    C     0.22253   0.03476   0.47863   0.00000  Uiso   1.00
C28    C     0.11527   0.19445   0.12322   0.00000  Uiso   1.00
C29    C     0.07507   0.26315   0.41857   0.00000  Uiso   1.00
C30    C     0.04046   0.21359   0.01827   0.00000  Uiso   1.00
C31    C     0.04552   0.25206   0.05028   0.00000  Uiso   1.00
C32    C     0.23859   0.19639   0.39035   0.00000  Uiso   1.00
C33    C     0.27537   0.21926   0.40915   0.00000  Uiso   1.00
C34    C     0.14978   0.17576   0.49167   0.00000  Uiso   1.00
C35    C     0.02405   0.25007   0.23486   0.00000  Uiso   1.00
C36    C     0.16560   0.18056   0.44537   0.00000  Uiso   1.00
C37    C     0.17444   0.15779   0.01425   0.00000  Uiso   1.00
C38    C     0.20529   0.13241   0.48835   0.00000  Uiso   1.00
C39    C     0.22052   0.13789   0.44199   0.00000  Uiso   1.00
C40    C     0.20699   0.16999   0.42474   0.00000  Uiso   1.00
H41    H     0.09389   0.17787   0.04724   0.00000  Uiso   1.00
H42    H     0.29886   0.09632   0.26626   0.00000  Uiso   1.00
H43    H     0.25837   0.30359   0.16764   0.00000  Uiso   1.00
H44    H     0.21263   0.29049   0.14260   0.00000  Uiso   1.00
H45    H     0.25095   0.00185   0.12756   0.00000  Uiso   1.00
H46    H     0.18821   0.02516   0.17670   0.00000  Uiso   1.00
H47    H     0.23046   0.03446   0.20508   0.00000  Uiso   1.00
H48    H     0.11954   0.05428   0.35356   0.00000  Uiso   1.00
H49    H     0.07809   0.04629   0.32308   0.00000  Uiso   1.00
H50    H     0.07368   0.01619   0.36953   0.00000  Uiso   1.00
H51    H     0.09449   0.30732   0.29947   0.00000  Uiso   1.00
H52    H     0.23544   0.05643   0.06854   0.00000  Uiso   1.00
H53    H     0.13727   0.31666   0.32842   0.00000  Uiso   1.00
H54    H     0.27769   0.12689   0.39680   0.00000  Uiso   1.00
H55    H     0.24902   0.05829   0.36832   0.00000  Uiso   1.00
H56    H     0.22365   0.09943   0.35586   0.00000  Uiso   1.00
H57    H     0.19707   0.06797   0.40153   0.00000  Uiso   1.00
H58    H     0.27459   0.07225   0.49464   0.00000  Uiso   1.00
H59    H     0.24262   0.01469   0.45295   0.00000  Uiso   1.00
H60    H     0.19398   0.03839   0.46707   0.00000  Uiso   1.00
H61    H     0.21176   0.01917   0.01036   0.00000  Uiso   1.00
H62    H     0.17366   0.22557   0.08924   0.00000  Uiso   1.00
H63    H     0.30042   0.10946   0.05491   0.00000  Uiso   1.00
H64    H     0.12576   0.20157   0.15487   0.00000  Uiso   1.00
H65    H     0.09854   0.16226   0.12205   0.00000  Uiso   1.00
H66    H     0.09228   0.21617   0.12343   0.00000  Uiso   1.00
H67    H     0.04109   0.20355   0.42589   0.00000  Uiso   1.00
H68    H     0.06169   0.27824   0.45219   0.00000  Uiso   1.00
H69    H     0.10899   0.27642   0.40613   0.00000  Uiso   1.00
H70    H     0.05683   0.26982   0.39513   0.00000  Uiso   1.00
H71    H     0.06304   0.24632   0.07469   0.00000  Uiso   1.00
H72    H     0.06321   0.27881   0.03131   0.00000  Uiso   1.00
H73    H     0.01349   0.26008   0.06911   0.00000  Uiso   1.00
H74    H     0.28732   0.08645   0.10782   0.00000  Uiso   1.00
H75    H     0.01985   0.21984   0.49723   0.00000  Uiso   1.00
H76    H     0.02277   0.18718   0.03791   0.00000  Uiso   1.00
H77    H     0.29391   0.19720   0.41809   0.00000  Uiso   1.00
H78    H     0.29736   0.23882   0.38358   0.00000  Uiso   1.00
H79    H     0.26274   0.23964   0.43947   0.00000  Uiso   1.00
H80    H     0.25151   0.17696   0.35961   0.00000  Uiso   1.00
H81    H     0.22309   0.22066   0.38070   0.00000  Uiso   1.00
H82    H     0.01589   0.20856   0.18138   0.00000  Uiso   1.00
H83    H     0.04903   0.27081   0.21306   0.00000  Uiso   1.00
H84    H     0.03291   0.24994   0.26706   0.00000  Uiso   1.00
H85    H     0.27361   0.13726   0.10571   0.00000  Uiso   1.00
H86    H     0.32631   0.26250   0.24141   0.00000  Uiso   1.00
H87    H     0.03041   0.07529   0.27968   0.00000  Uiso   1.00
H88    H     0.02549   0.11062   0.33006   0.00000  Uiso   1.00
H89    H     0.31922   0.06663   0.32670   0.00000  Uiso   1.00
H90    H     0.29185   0.12951   0.31790   0.00000  Uiso   1.00
N91    N     0.23534   0.08720   0.08017   0.00000  Uiso   1.00
N92    N     0.24873   0.11172   0.41293   0.00000  Uiso   1.00
N93    N     0.24720   0.07464   0.48506   0.00000  Uiso   1.00
N94    N     0.15151   0.20048   0.08476   0.00000  Uiso   1.00
N95    N     0.07179   0.21874   0.42043   0.00000  Uiso   1.00
N96    N     0.02124   0.20868   0.21274   0.00000  Uiso   1.00
O97    O     0.16667   0.16667   0.25000   0.00000  Uiso   1.00
O98    O     0.15451   0.12637   0.15458   0.00000  Uiso   1.00
O99    O     0.12940   0.20391   0.34968   0.00000  Uiso   1.00
O100   O     0.20824   0.17759   0.14606   0.00000  Uiso   1.00
O101   O     0.17451   0.15880   0.34968   0.00000  Uiso   1.00
O102   O     0.17930   0.08019   0.28213   0.00000  Uiso   1.00
O103   O     0.14632   0.26085   0.27013   0.00000  Uiso   1.00
O104   O     0.07412   0.13291   0.23413   0.00000  Uiso   1.00
O105   O     0.26693   0.19272   0.21360   0.00000  Uiso   1.00
O106   O     0.07071   0.18878   0.28213   0.00000  Uiso   1.00
O107   O     0.25491   0.15226   0.27013   0.00000  Uiso   1.00
O108   O     0.13760   0.06944   0.23413   0.00000  Uiso   1.00
O109   O     0.20345   0.25620   0.21360   0.00000  Uiso   1.00
Zn110  Zn    0.19338   0.13994   0.28734   0.00000  Uiso   1.00
Zn111  Zn    0.13379   0.12458   0.21875   0.00000  Uiso   1.00
Zn112  Zn    0.21056   0.19775   0.20657   0.00000  Uiso   1.00
Zn113  Zn    0.12893   0.20439   0.28733   0.00000  Uiso   1.00
C114   C     0.38665   0.15984   0.25912   0.00000  Uiso   1.00
C115   C     0.50312   0.16471   0.06094   0.00000  Uiso   1.00
C116   C     0.54944   0.11129   0.05714   0.00000  Uiso   1.00
C117   C     0.61401   0.17371   0.24035   0.00000  Uiso   1.00
C118   C     0.47201   0.19242   0.42089   0.00000  Uiso   1.00
C119   C     0.65948   0.17842   0.23960   0.00000  Uiso   1.00
C120   C     0.34149   0.15439   0.26347   0.00000  Uiso   1.00
C121   C     0.51070   0.32238   0.23409   0.00000  Uiso   1.00
C122   C     0.48457   0.01268   0.26585   0.00000  Uiso   1.00
C123   C     0.48917   0.05631   0.26064   0.00000  Uiso   1.00
C124   C     0.50933   0.27790   0.23955   0.00000  Uiso   1.00
C125   C     0.41702   0.20215   0.49112   0.00000  Uiso   1.00
C126   C     0.51876   0.14793   0.12959   0.00000  Uiso   1.00
C127   C     0.48195   0.18507   0.37107   0.00000  Uiso   1.00
C128   C     0.55593   0.10583   0.01018   0.00000  Uiso   1.00
C129   C     0.52449   0.14165   0.08156   0.00000  Uiso   1.00
C130   C     0.43184   0.20557   0.44448   0.00000  Uiso   1.00
C131   C     0.60958   0.10619   0.08740   0.00000  Uiso   1.00
C132   C     0.64885   0.11747   0.28877   0.00000  Uiso   1.00
C133   C     0.34115   0.09112   0.30734   0.00000  Uiso   1.00
C134   C     0.54098   0.00985   0.19308   0.00000  Uiso   1.00
C135   C     0.56714   0.31598   0.15573   0.00000  Uiso   1.00
C136   C     0.44189   0.18550   0.01332   0.00000  Uiso   1.00
C137   C     0.45309   0.33075   0.30881   0.00000  Uiso   1.00
C138   C     0.42979   0.03083   0.34053   0.00000  Uiso   1.00
C139   C     0.56194   0.08300   0.38312   0.00000  Uiso   1.00
C140   C     0.55586   0.03476   0.47863   0.00000  Uiso   1.00
C141   C     0.44861   0.19445   0.12322   0.00000  Uiso   1.00
C142   C     0.40840   0.26315   0.41857   0.00000  Uiso   1.00
C143   C     0.37379   0.21359   0.01827   0.00000  Uiso   1.00
C144   C     0.37885   0.25206   0.05028   0.00000  Uiso   1.00
C145   C     0.57192   0.19639   0.39035   0.00000  Uiso   1.00
C146   C     0.60870   0.21926   0.40915   0.00000  Uiso   1.00
C147   C     0.48311   0.17576   0.49167   0.00000  Uiso   1.00
C148   C     0.35738   0.25007   0.23486   0.00000  Uiso   1.00
C149   C     0.49893   0.18056   0.44537   0.00000  Uiso   1.00
C150   C     0.50777   0.15779   0.01425   0.00000  Uiso   1.00
C151   C     0.53862   0.13241   0.48835   0.00000  Uiso   1.00
C152   C     0.55385   0.13789   0.44199   0.00000  Uiso   1.00
C153   C     0.54032   0.16999   0.42474   0.00000  Uiso   1.00
H154   H     0.42723   0.17787   0.04724   0.00000  Uiso   1.00
H155   H     0.63220   0.09632   0.26626   0.00000  Uiso   1.00
H156   H     0.59170   0.30359   0.16764   0.00000  Uiso   1.00
H157   H     0.54597   0.29049   0.14260   0.00000  Uiso   1.00
H158   H     0.58428   0.00185   0.12756   0.00000  Uiso   1.00
H159   H     0.52154   0.02516   0.17670   0.00000  Uiso   1.00
H160   H     0.56380   0.03446   0.20508   0.00000  Uiso   1.00
H161   H     0.45288   0.05428   0.35356   0.00000  Uiso   1.00
H162   H     0.41142   0.04629   0.32308   0.00000  Uiso   1.00
H163   H     0.40701   0.01619   0.36953   0.00000  Uiso   1.00
H164   H     0.42782   0.30732   0.29947   0.00000  Uiso   1.00
H165   H     0.56878   0.05643   0.06854   0.00000  Uiso   1.00
H166   H     0.47060   0.31666   0.32842   0.00000  Uiso   1.00
H167   H     0.61103   0.12689   0.39680   0.00000  Uiso   1.00
H168   H     0.58236   0.05829   0.36832   0.00000  Uiso   1.00
H169   H     0.55698   0.09943   0.35586   0.00000  Uiso   1.00
H170   H     0.53040   0.06797   0.40153   0.00000  Uiso   1.00
H171   H     0.60793   0.07225   0.49464   0.00000  Uiso   1.00
H172   H     0.57595   0.01469   0.45295   0.00000  Uiso   1.00
H173   H     0.52731   0.03839   0.46707   0.00000  Uiso   1.00
H174   H     0.54509   0.01917   0.01036   0.00000  Uiso   1.00
H175   H     0.50700   0.22557   0.08924   0.00000  Uiso   1.00
H176   H     0.63376   0.10946   0.05491   0.00000  Uiso   1.00
H177   H     0.45909   0.20157   0.15487   0.00000  Uiso   1.00
H178   H     0.43187   0.16226   0.12205   0.00000  Uiso   1.00
H179   H     0.42561   0.21617   0.12343   0.00000  Uiso   1.00
H180   H     0.37442   0.20355   0.42589   0.00000  Uiso   1.00
H181   H     0.39502   0.27824   0.45219   0.00000  Uiso   1.00
H182   H     0.44232   0.27642   0.40613   0.00000  Uiso   1.00
H183   H     0.39017   0.26982   0.39513   0.00000  Uiso   1.00
H184   H     0.39637   0.24632   0.07469   0.00000  Uiso   1.00
H185   H     0.39655   0.27881   0.03131   0.00000  Uiso   1.00
H186   H     0.34682   0.26008   0.06911   0.00000  Uiso   1.00
H187   H     0.62066   0.08645   0.10782   0.00000  Uiso   1.00
H188   H     0.35318   0.21984   0.49723   0.00000  Uiso   1.00
H189   H     0.35610   0.18718   0.03791   0.00000  Uiso   1.00
H190   H     0.62724   0.19720   0.41809   0.00000  Uiso   1.00
H191   H     0.63069   0.23882   0.38358   0.00000  Uiso   1.00
H192   H     0.59608   0.23964   0.43947   0.00000  Uiso   1.00
H193   H     0.58484   0.17696   0.35961   0.00000  Uiso   1.00
H194   H     0.55642   0.22066   0.38070   0.00000  Uiso   1.00
H195   H     0.34923   0.20856   0.18138   0.00000  Uiso   1.00
H196   H     0.38237   0.27081   0.21306   0.00000  Uiso   1.00
H197   H     0.36625   0.24994   0.26706   0.00000  Uiso   1.00
H198   H     0.60694   0.13726   0.10571   0.00000  Uiso   1.00
H199   H     0.65964   0.26250   0.24141   0.00000  Uiso   1.00
H200   H     0.36374   0.07529   0.27968   0.00000  Uiso   1.00
H201   H     0.35882   0.11062   0.33006   0.00000  Uiso   1.00
H202   H     0.65255   0.06663   0.32670   0.00000  Uiso   1.00
H203   H     0.62518   0.12951   0.31790   0.00000  Uiso   1.00
N204   N     0.56868   0.08720   0.08017   0.00000  Uiso   1.00
N205   N     0.58206   0.11172   0.41293   0.00000  Uiso   1.00
N206   N     0.58053   0.07464   0.48506   0.00000  Uiso   1.00
N207   N     0.48484   0.20048   0.08476   0.00000  Uiso   1.00
N208   N     0.40512   0.21874   0.42043   0.00000  Uiso   1.00
N209   N     0.35457   0.20868   0.21274   0.00000  Uiso   1.00
O210   O     0.50000   0.16667   0.25000   0.00000  Uiso   1.00
O211   O     0.48784   0.12637   0.15458   0.00000  Uiso   1.00
O212   O     0.46274   0.20391   0.34968   0.00000  Uiso   1.00
O213   O     0.54157   0.17759   0.14606   0.00000  Uiso   1.00
O214   O     0.50785   0.15880   0.34968   0.00000  Uiso   1.00
O215   O     0.51264   0.08019   0.28213   0.00000  Uiso   1.00
O216   O     0.47965   0.26085   0.27013   0.00000  Uiso   1.00
O217   O     0.40745   0.13291   0.23413   0.00000  Uiso   1.00
O218   O     0.60026   0.19272   0.21360   0.00000  Uiso   1.00
O219   O     0.40405   0.18878   0.28213   0.00000  Uiso   1.00
O220   O     0.58824   0.15226   0.27013   0.00000  Uiso   1.00
O221   O     0.47093   0.06944   0.23413   0.00000  Uiso   1.00
O222   O     0.53678   0.25620   0.21360   0.00000  Uiso   1.00
Zn223  Zn    0.52672   0.13994   0.28734   0.00000  Uiso   1.00
Zn224  Zn    0.46713   0.12458   0.21875   0.00000  Uiso   1.00
Zn225  Zn    0.54389   0.19775   0.20657   0.00000  Uiso   1.00
Zn226  Zn    0.46226   0.20439   0.28733   0.00000  Uiso   1.00
C227   C     0.71998   0.15984   0.25912   0.00000  Uiso   1.00
C228   C     0.83646   0.16471   0.06094   0.00000  Uiso   1.00
C229   C     0.88277   0.11129   0.05714   0.00000  Uiso   1.00
C230   C     0.94734   0.17371   0.24035   0.00000  Uiso   1.00
C231   C     0.80534   0.19242   0.42089   0.00000  Uiso   1.00
C232   C     0.99282   0.17842   0.23960   0.00000  Uiso   1.00
C233   C     0.67482   0.15439   0.26347   0.00000  Uiso   1.00
C234   C     0.84403   0.32238   0.23409   0.00000  Uiso   1.00
C235   C     0.81791   0.01268   0.26585   0.00000  Uiso   1.00
C236   C     0.82250   0.05631   0.26064   0.00000  Uiso   1.00
C237   C     0.84266   0.27790   0.23955   0.00000  Uiso   1.00
C238   C     0.75035   0.20215   0.49112   0.00000  Uiso   1.00
C239   C     0.85209   0.14793   0.12959   0.00000  Uiso   1.00
C240   C     0.81529   0.18507   0.37107   0.00000  Uiso   1.00
C241   C     0.88926   0.10583   0.01018   0.00000  Uiso   1.00
C242   C     0.85783   0.14165   0.08156   0.00000  Uiso   1.00
C243   C     0.76517   0.20557   0.44448   0.00000  Uiso   1.00
C244   C     0.94292   0.10619   0.08740   0.00000  Uiso   1.00
C245   C     0.98219   0.11747   0.28877   0.00000  Uiso   1.00
C246   C     0.67449   0.09112   0.30734   0.00000  Uiso   1.00
C247   C     0.87432   0.00985   0.19308   0.00000  Uiso   1.00
C248   C     0.90047   0.31598   0.15573   0.00000  Uiso   1.00
C249   C     0.77523   0.18550   0.01332   0.00000  Uiso   1.00
C250   C     0.78642   0.33075   0.30881   0.00000  Uiso   1.00
C251   C     0.76313   0.03083   0.34053   0.00000  Uiso   1.00
C252   C     0.89527   0.08300   0.38312   0.00000  Uiso   1.00
C253   C     0.88920   0.03476   0.47863   0.00000  Uiso   1.00
C254   C     0.78194   0.19445   0.12322   0.00000  Uiso   1.00
C255   C     0.74174   0.26315   0.41857   0.00000  Uiso   1.00
C256   C     0.70712   0.21359   0.01827   0.00000  Uiso   1.00
C257   C     0.71218   0.25206   0.05028   0.00000  Uiso   1.00
C258   C     0.90526   0.19639   0.39035   0.00000  Uiso   1.00
C259   C     0.94203   0.21926   0.40915   0.00000  Uiso   1.00
C260   C     0.81645   0.17576   0.49167   0.00000  Uiso   1.00
C261   C     0.69071   0.25007   0.23486   0.00000  Uiso   1.00
C262   C     0.83227   0.18056   0.44537   0.00000  Uiso   1.00
C263   C     0.84111   0.15779   0.01425   0.00000  Uiso   1.00
C264   C     0.87196   0.13241   0.48835   0.00000  Uiso   1.00
C265   C     0.88718   0.13789   0.44199   0.00000  Uiso   1.00
C266   C     0.87366   0.16999   0.42474   0.00000  Uiso   1.00
H267   H     0.76056   0.17787   0.04724   0.00000  Uiso   1.00
H268   H     0.96553   0.09632   0.26626   0.00000  Uiso   1.00
H269   H     0.92504   0.30359   0.16764   0.00000  Uiso   1.00
H270   H     0.87930   0.29049   0.14260   0.00000  Uiso   1.00
H271   H     0.91761   0.00185   0.12756   0.00000  Uiso   1.00
H272   H     0.85488   0.02516   0.17670   0.00000  Uiso   1.00
H273   H     0.89713   0.03446   0.20508   0.00000  Uiso   1.00
H274   H     0.78621   0.05428   0.35356   0.00000  Uiso   1.00
H275   H     0.74476   0.04629   0.32308   0.00000  Uiso   1.00
H276   H     0.74035   0.01619   0.36953   0.00000  Uiso   1.00
H277   H     0.76116   0.30732   0.29947   0.00000  Uiso   1.00
H278   H     0.90211   0.05643   0.06854   0.00000  Uiso   1.00
H279   H     0.80393   0.31666   0.32842   0.00000  Uiso   1.00
H280   H     0.94436   0.12689   0.39680   0.00000  Uiso   1.00
H281   H     0.91569   0.05829   0.36832   0.00000  Uiso   1.00
H282   H     0.89032   0.09943   0.35586   0.00000  Uiso   1.00
H283   H     0.86374   0.06797   0.40153   0.00000  Uiso   1.00
H284   H     0.94126   0.07225   0.49464   0.00000  Uiso   1.00
H285   H     0.90928   0.01469   0.45295   0.00000  Uiso   1.00
H286   H     0.86064   0.03839   0.46707   0.00000  Uiso   1.00
H287   H     0.87842   0.01917   0.01036   0.00000  Uiso   1.00
H288   H     0.84033   0.22557   0.08924   0.00000  Uiso   1.00
H289   H     0.96709   0.10946   0.05491   0.00000  Uiso   1.00
H290   H     0.79242   0.20157   0.15487   0.00000  Uiso   1.00
H291   H     0.76520   0.16226   0.12205   0.00000  Uiso   1.00
H292   H     0.75894   0.21617   0.12343   0.00000  Uiso   1.00
H293   H     0.70776   0.20355   0.42589   0.00000  Uiso   1.00
H294   H     0.72835   0.27824   0.45219   0.00000  Uiso   1.00
H295   H     0.77566   0.27642   0.40613   0.00000  Uiso   1.00
H296   H     0.72350   0.26982   0.39513   0.00000  Uiso   1.00
H297   H     0.72970   0.24632   0.07469   0.00000  Uiso   1.00
H298   H     0.72988   0.27881   0.03131   0.00000  Uiso   1.00
H299   H     0.68016   0.26008   0.06911   0.00000  Uiso   1.00
H300   H     0.95399   0.08645   0.10782   0.00000  Uiso   1.00
H301   H     0.68652   0.21984   0.49723   0.00000  Uiso   1.00
H302   H     0.68943   0.18718   0.03791   0.00000  Uiso   1.00
H303   H     0.96058   0.19720   0.41809   0.00000  Uiso   1.00
H304   H     0.96403   0.23882   0.38358   0.00000  Uiso   1.00
H305   H     0.92941   0.23964   0.43947   0.00000  Uiso   1.00
H306   H     0.91818   0.17696   0.35961   0.00000  Uiso   1.00
H307   H     0.88975   0.22066   0.38070   0.00000  Uiso   1.00
H308   H     0.68256   0.20856   0.18138   0.00000  Uiso   1.00
H309   H     0.71570   0.27081   0.21306   0.00000  Uiso   1.00
H310   H     0.69958   0.24994   0.26706   0.00000  Uiso   1.00
H311   H     0.94028   0.13726   0.10571   0.00000  Uiso   1.00
H312   H     0.99297   0.26250   0.24141   0.00000  Uiso   1.00
H313   H     0.69708   0.07529   0.27968   0.00000  Uiso   1.00
H314   H     0.69215   0.11062   0.33006   0.00000  Uiso   1.00
H315   H     0.98588   0.06663   0.32670   0.00000  Uiso   1.00
H316   H     0.95851   0.12951   0.31790   0.00000  Uiso   1.00
N317   N     0.90201   0.08720   0.08017   0.00000  Uiso   1.00
N318   N     0.91540   0.11172   0.41293   0.00000  Uiso   1.00
N319   N     0.91387   0.07464   0.48506   0.00000  Uiso   1.00
N320   N     0.81818   0.20048   0.08476   0.00000  Uiso   1.00
N321   N     0.73845   0.21874   0.42043   0.00000  Uiso   1.00
N322   N     0.68790   0.20868   0.21274   0.00000  Uiso   1.00
O323   O     0.83333   0.16667   0.25000   0.00000  Uiso   1.00
O324   O     0.82118   0.12637   0.15458   0.00000  Uiso   1.00
O325   O     0.79607   0.20391   0.34968   0.00000  Uiso   1.00
O326   O     0.87491   0.17759   0.14606   0.00000  Uiso   1.00
O327   O     0.84118   0.15880   0.34968   0.00000  Uiso   1.00
O328   O     0.84597   0.08019   0.28213   0.00000  Uiso   1.00
O329   O     0.81298   0.26085   0.27013   0.00000  Uiso   1.00
O330   O     0.74078   0.13291   0.23413   0.00000  Uiso   1.00
O331   O     0.93360   0.19272   0.21360   0.00000  Uiso   1.00
O332   O     0.73738   0.18878   0.28213   0.00000  Uiso   1.00
O333   O     0.92158   0.15226   0.27013   0.00000  Uiso   1.00
O334   O     0.80426   0.06944   0.23413   0.00000  Uiso   1.00
O335   O     0.87012   0.25620   0.21360   0.00000  Uiso   1.00
Zn336  Zn    0.86005   0.13994   0.28734   0.00000  Uiso   1.00
Zn337  Zn    0.80046   0.12458   0.21875   0.00000  Uiso   1.00
Zn338  Zn    0.87723   0.19775   0.20657   0.00000  Uiso   1.00
Zn339  Zn    0.79560   0.20439   0.28733   0.00000  Uiso   1.00
C340   C     0.05331   0.49318   0.25912   0.00000  Uiso   1.00
C341   C     0.16979   0.49805   0.06094   0.00000  Uiso   1.00
C342   C     0.21610   0.44462   0.05714   0.00000  Uiso   1.00
C343   C     0.28068   0.50704   0.24035   0.00000  Uiso   1.00
C344   C     0.13867   0.52575   0.42089   0.00000  Uiso   1.00
C345   C     0.32615   0.51175   0.23960   0.00000  Uiso   1.00
C346   C     0.00815   0.48772   0.26347   0.00000  Uiso   1.00
C347   C     0.17737   0.65571   0.23409   0.00000  Uiso   1.00
C348   C     0.15124   0.34601   0.26585   0.00000  Uiso   1.00
C349   C     0.15583   0.38964   0.26064   0.00000  Uiso   1.00
C350   C     0.17600   0.61123   0.23955   0.00000  Uiso   1.00
C351   C     0.08369   0.53548   0.49112   0.00000  Uiso   1.00
C352   C     0.18542   0.48126   0.12959   0.00000  Uiso   1.00
C353   C     0.14862   0.51841   0.37107   0.00000  Uiso   1.00
C354   C     0.22260   0.43916   0.01018   0.00000  Uiso   1.00
C355   C     0.19116   0.47498   0.08156   0.00000  Uiso   1.00
C356   C     0.09851   0.53891   0.44448   0.00000  Uiso   1.00
C357   C     0.27625   0.43952   0.08740   0.00000  Uiso   1.00
C358   C     0.31552   0.45080   0.28877   0.00000  Uiso   1.00
C359   C     0.00782   0.42445   0.30734   0.00000  Uiso   1.00
C360   C     0.20765   0.34319   0.19308   0.00000  Uiso   1.00
C361   C     0.23381   0.64932   0.15573   0.00000  Uiso   1.00
C362   C     0.10856   0.51884   0.01332   0.00000  Uiso   1.00
C363   C     0.11975   0.66408   0.30881   0.00000  Uiso   1.00
C364   C     0.09646   0.36416   0.34053   0.00000  Uiso   1.00
C365   C     0.22860   0.41634   0.38312   0.00000  Uiso   1.00
C366   C     0.22253   0.36809   0.47863   0.00000  Uiso   1.00
C367   C     0.11527   0.52779   0.12322   0.00000  Uiso   1.00
C368   C     0.07507   0.59648   0.41857   0.00000  Uiso   1.00
C369   C     0.04046   0.54692   0.01827   0.00000  Uiso   1.00
C370   C     0.04552   0.58540   0.05028   0.00000  Uiso   1.00
C371   C     0.23859   0.52972   0.39035   0.00000  Uiso   1.00
C372   C     0.27537   0.55259   0.40915   0.00000  Uiso   1.00
C373   C     0.14978   0.50910   0.49167   0.00000  Uiso   1.00
C374   C     0.02405   0.58340   0.23486   0.00000  Uiso   1.00
C375   C     0.16560   0.51389   0.44537   0.00000  Uiso   1.00
C376   C     0.17444   0.49112   0.01425   0.00000  Uiso   1.00
C377   C     0.20529   0.46575   0.48835   0.00000  Uiso   1.00
C378   C     0.22052   0.47122   0.44199   0.00000  Uiso   1.00
C379   C     0.20699   0.50333   0.42474   0.00000  Uiso   1.00
H380   H     0.09389   0.51120   0.04724   0.00000  Uiso   1.00
H381   H     0.29886   0.42965   0.26626   0.00000  Uiso   1.00
H382   H     0.25837   0.63692   0.16764   0.00000  Uiso   1.00
H383   H     0.21263   0.62383   0.14260   0.00000  Uiso   1.00
H384   H     0.25095   0.33518   0.12756   0.00000  Uiso   1.00
H385   H     0.18821   0.35850   0.17670   0.00000  Uiso   1.00
H386   H     0.23046   0.36779   0.20508   0.00000  Uiso   1.00
H387   H     0.11954   0.38761   0.35356   0.00000  Uiso   1.00
H388   H     0.07809   0.37962   0.32308   0.00000  Uiso   1.00
H389   H     0.07368   0.34952   0.36953   0.00000  Uiso   1.00
H390   H     0.09449   0.64065   0.29947   0.00000  Uiso   1.00
H391   H     0.23544   0.38976   0.06854   0.00000  Uiso   1.00
H392   H     0.13727   0.64999   0.32842   0.00000  Uiso   1.00
H393   H     0.27769   0.46022   0.39680   0.00000  Uiso   1.00
H394   H     0.24902   0.39162   0.36832   0.00000  Uiso   1.00
H395   H     0.22365   0.43276   0.35586   0.00000  Uiso   1.00
H396   H     0.19707   0.40130   0.40153   0.00000  Uiso   1.00
H397   H     0.27459   0.40559   0.49464   0.00000  Uiso   1.00
H398   H     0.24262   0.34803   0.45295   0.00000  Uiso   1.00
H399   H     0.19398   0.37172   0.46707   0.00000  Uiso   1.00
H400   H     0.21176   0.35250   0.01036   0.00000  Uiso   1.00
H401   H     0.17366   0.55890   0.08924   0.00000  Uiso   1.00
H402   H     0.30042   0.44279   0.05491   0.00000  Uiso   1.00
H403   H     0.12576   0.53490   0.15487   0.00000  Uiso   1.00
H404   H     0.09854   0.49559   0.12205   0.00000  Uiso   1.00
H405   H     0.09228   0.54950   0.12343   0.00000  Uiso   1.00
H406   H     0.04109   0.53688   0.42589   0.00000  Uiso   1.00
H407   H     0.06169   0.61157   0.45219   0.00000  Uiso   1.00
H408   H     0.10899   0.60975   0.40613   0.00000  Uiso   1.00
H409   H     0.05683   0.60315   0.39513   0.00000  Uiso   1.00
H410   H     0.06304   0.57966   0.07469   0.00000  Uiso   1.00
H411   H     0.06321   0.61215   0.03131   0.00000  Uiso   1.00
H412   H     0.01349   0.59342   0.06911   0.00000  Uiso   1.00
H413   H     0.28732   0.41978   0.10782   0.00000  Uiso   1.00
H414   H     0.01985   0.55318   0.49723   0.00000  Uiso   1.00
H415   H     0.02277   0.52051   0.03791   0.00000  Uiso   1.00
H416   H     0.29391   0.53053   0.41809   0.00000  Uiso   1.00
H417   H     0.29736   0.57215   0.38358   0.00000  Uiso   1.00
H418   H     0.26274   0.57297   0.43947   0.00000  Uiso   1.00
H419   H     0.25151   0.51030   0.35961   0.00000  Uiso   1.00
H420   H     0.22309   0.55400   0.38070   0.00000  Uiso   1.00
H421   H     0.01589   0.54189   0.18138   0.00000  Uiso   1.00
H422   H     0.04903   0.60414   0.21306   0.00000  Uiso   1.00
H423   H     0.03291   0.58328   0.26706   0.00000  Uiso   1.00
H424   H     0.27361   0.47059   0.10571   0.00000  Uiso   1.00
H425   H     0.32631   0.59583   0.24141   0.00000  Uiso   1.00
H426   H     0.03041   0.40862   0.27968   0.00000  Uiso   1.00
H427   H     0.02549   0.44395   0.33006   0.00000  Uiso   1.00
H428   H     0.31922   0.39996   0.32670   0.00000  Uiso   1.00
H429   H     0.29185   0.46284   0.31790   0.00000  Uiso   1.00
N430   N     0.23534   0.42054   0.08017   0.00000  Uiso   1.00
N431   N     0.24873   0.44506   0.41293   0.00000  Uiso   1.00
N432   N     0.24720   0.40797   0.48506   0.00000  Uiso   1.00
N433   N     0.15151   0.53381   0.08476   0.00000  Uiso   1.00
N434   N     0.07179   0.55208   0.42043   0.00000  Uiso   1.00
N435   N     0.02124   0.54201   0.21274   0.00000  Uiso   1.00
O436   O     0.16667   0.50000   0.25000   0.00000  Uiso   1.00
O437   O     0.15451   0.45970   0.15458   0.00000  Uiso   1.00
O438   O     0.12940   0.53724   0.34968   0.00000  Uiso   1.00
O439   O     0.20824   0.51092   0.14606   0.00000  Uiso   1.00
O440   O     0.17451   0.49213   0.34968   0.00000  Uiso   1.00
O441   O     0.17930   0.41352   0.28213   0.00000  Uiso   1.00
O442   O     0.14632   0.59418   0.27013   0.00000  Uiso   1.00
O443   O     0.07412   0.46625   0.23413   0.00000  Uiso   1.00
O444   O     0.26693   0.52605   0.21360   0.00000  Uiso   1.00
O445   O     0.07071   0.52211   0.28213   0.00000  Uiso   1.00
O446   O     0.25491   0.48559   0.27013   0.00000  Uiso   1.00
O447   O     0.13760   0.40277   0.23413   0.00000  Uiso   1.00
O448   O     0.20345   0.58953   0.21360   0.00000  Uiso   1.00
Zn449  Zn    0.19338   0.47327   0.28734   0.00000  Uiso   1.00
Zn450  Zn    0.13379   0.45791   0.21875   0.00000  Uiso   1.00
Zn451  Zn    0.21056   0.53109   0.20657   0.00000  Uiso   1.00
Zn452  Zn    0.12893   0.53773   0.28733   0.00000  Uiso   1.00
C453   C     0.38665   0.49318   0.25912   0.00000  Uiso   1.00
C454   C     0.50312   0.49805   0.06094   0.00000  Uiso   1.00
C455   C     0.54944   0.44462   0.05714   0.00000  Uiso   1.00
C456   C     0.61401   0.50704   0.24035   0.00000  Uiso   1.00
C457   C     0.47201   0.52575   0.42089   0.00000  Uiso   1.00
C458   C     0.65948   0.51175   0.23960   0.00000  Uiso   1.00
C459   C     0.34149   0.48772   0.26347   0.00000  Uiso   1.00
C460   C     0.51070   0.65571   0.23409   0.00000  Uiso   1.00
C461   C     0.48457   0.34601   0.26585   0.00000  Uiso   1.00
C462   C     0.48917   0.38964   0.26064   0.00000  Uiso   1.00
C463   C     0.50933   0.61123   0.23955   0.00000  Uiso   1.00
C464   C     0.41702   0.53548   0.49112   0.00000  Uiso   1.00
C465   C     0.51876   0.48126   0.12959   0.00000  Uiso   1.00
C466   C     0.48195   0.51841   0.37107   0.00000  Uiso   1.00
C467   C     0.55593   0.43916   0.01018   0.00000  Uiso   1.00
C468   C     0.52449   0.47498   0.08156   0.00000  Uiso   1.00
C469   C     0.43184   0.53891   0.44448   0.00000  Uiso   1.00
C470   C     0.60958   0.43952   0.08740   0.00000  Uiso   1.00
C471   C     0.64885   0.45080   0.28877   0.00000  Uiso   1.00
C472   C     0.34115   0.42445   0.30734   0.00000  Uiso   1.00
C473   C     0.54098   0.34319   0.19308   0.00000  Uiso   1.00
C474   C     0.56714   0.64932   0.15573   0.00000  Uiso   1.00
C475   C     0.44189   0.51884   0.01332   0.00000  Uiso   1.00
C476   C     0.45309   0.66408   0.30881   0.00000  Uiso   1.00
C477   C     0.42979   0.36416   0.34053   0.00000  Uiso   1.00
C478   C     0.56194   0.41634   0.38312   0.00000  Uiso   1.00
C479   C     0.55586   0.36809   0.47863   0.00000  Uiso   1.00
C480   C     0.44861   0.52779   0.12322   0.00000  Uiso   1.00
C481   C     0.40840   0.59648   0.41857   0.00000  Uiso   1.00
C482   C     0.37379   0.54692   0.01827   0.00000  Uiso   1.00
C483   C     0.37885   0.58540   0.05028   0.00000  Uiso   1.00
C484   C     0.57192   0.52972   0.39035   0.00000  Uiso   1.00
C485   C     0.60870   0.55259   0.40915   0.00000  Uiso   1.00
C486   C     0.48311   0.50910   0.49167   0.00000  Uiso   1.00
C487   C     0.35738   0.58340   0.23486   0.00000  Uiso   1.00
C488   C     0.49893   0.51389   0.44537   0.00000  Uiso   1.00
C489   C     0.50777   0.49112   0.01425   0.00000  Uiso   1.00
C490   C     0.53862   0.46575   0.48835   0.00000  Uiso   1.00
C491   C     0.55385   0.47122   0.44199   0.00000  Uiso   1.00
C492   C     0.54032   0.50333   0.42474   0.00000  Uiso   1.00
H493   H     0.42723   0.51120   0.04724   0.00000  Uiso   1.00
H494   H     0.63220   0.42965   0.26626   0.00000  Uiso   1.00
H495   H     0.59170   0.63692   0.16764   0.00000  Uiso   1.00
H496   H     0.54597   0.62383   0.14260   0.00000  Uiso   1.00
H497   H     0.58428   0.33518   0.12756   0.00000  Uiso   1.00
H498   H     0.52154   0.35850   0.17670   0.00000  Uiso   1.00
H499   H     0.56380   0.36779   0.20508   0.00000  Uiso   1.00
H500   H     0.45288   0.38761   0.35356   0.00000  Uiso   1.00
H501   H     0.41142   0.37962   0.32308   0.00000  Uiso   1.00
H502   H     0.40701   0.34952   0.36953   0.00000  Uiso   1.00
H503   H     0.42782   0.64065   0.29947   0.00000  Uiso   1.00
H504   H     0.56878   0.38976   0.06854   0.00000  Uiso   1.00
H505   H     0.47060   0.64999   0.32842   0.00000  Uiso   1.00
H506   H     0.61103   0.46022   0.39680   0.00000  Uiso   1.00
H507   H     0.58236   0.39162   0.36832   0.00000  Uiso   1.00
H508   H     0.55698   0.43276   0.35586   0.00000  Uiso   1.00
H509   H     0.53040   0.40130   0.40153   0.00000  Uiso   1.00
H510   H     0.60793   0.40559   0.49464   0.00000  Uiso   1.00
H511   H     0.57595   0.34803   0.45295   0.00000  Uiso   1.00
H512   H     0.52731   0.37172   0.46707   0.00000  Uiso   1.00
H513   H     0.54509   0.35250   0.01036   0.00000  Uiso   1.00
H514   H     0.50700   0.55890   0.08924   0.00000  Uiso   1.00
H515   H     0.63376   0.44279   0.05491   0.00000  Uiso   1.00
H516   H     0.45909   0.53490   0.15487   0.00000  Uiso   1.00
H517   H     0.43187   0.49559   0.12205   0.00000  Uiso   1.00
H518   H     0.42561   0.54950   0.12343   0.00000  Uiso   1.00
H519   H     0.37442   0.53688   0.42589   0.00000  Uiso   1.00
H520   H     0.39502   0.61157   0.45219   0.00000  Uiso   1.00
H521   H     0.44232   0.60975   0.40613   0.00000  Uiso   1.00
H522   H     0.39017   0.60315   0.39513   0.00000  Uiso   1.00
H523   H     0.39637   0.57966   0.07469   0.00000  Uiso   1.00
H524   H     0.39655   0.61215   0.03131   0.00000  Uiso   1.00
H525   H     0.34682   0.59342   0.06911   0.00000  Uiso   1.00
H526   H     0.62066   0.41978   0.10782   0.00000  Uiso   1.00
H527   H     0.35318   0.55318   0.49723   0.00000  Uiso   1.00
H528   H     0.35610   0.52051   0.03791   0.00000  Uiso   1.00
H529   H     0.62724   0.53053   0.41809   0.00000  Uiso   1.00
H530   H     0.63069   0.57215   0.38358   0.00000  Uiso   1.00
H531   H     0.59608   0.57297   0.43947   0.00000  Uiso   1.00
H532   H     0.58484   0.51030   0.35961   0.00000  Uiso   1.00
H533   H     0.55642   0.55400   0.38070   0.00000  Uiso   1.00
H534   H     0.34923   0.54189   0.18138   0.00000  Uiso   1.00
H535   H     0.38237   0.60414   0.21306   0.00000  Uiso   1.00
H536   H     0.36625   0.58328   0.26706   0.00000  Uiso   1.00
H537   H     0.60694   0.47059   0.10571   0.00000  Uiso   1.00
H538   H     0.65964   0.59583   0.24141   0.00000  Uiso   1.00
H539   H     0.36374   0.40862   0.27968   0.00000  Uiso   1.00
H540   H     0.35882   0.44395   0.33006   0.00000  Uiso   1.00
H541   H     0.65255   0.39996   0.32670   0.00000  Uiso   1.00
H542   H     0.62518   0.46284   0.31790   0.00000  Uiso   1.00
N543   N     0.56868   0.42054   0.08017   0.00000  Uiso   1.00
N544   N     0.58206   0.44506   0.41293   0.00000  Uiso   1.00
N545   N     0.58053   0.40797   0.48506   0.00000  Uiso   1.00
N546   N     0.48484   0.53381   0.08476   0.00000  Uiso   1.00
N547   N     0.40512   0.55208   0.42043   0.00000  Uiso   1.00
N548   N     0.35457   0.54201   0.21274   0.00000  Uiso   1.00
O549   O     0.50000   0.50000   0.25000   0.00000  Uiso   1.00
O550   O     0.48784   0.45970   0.15458   0.00000  Uiso   1.00
O551   O     0.46274   0.53724   0.34968   0.00000  Uiso   1.00
O552   O     0.54157   0.51092   0.14606   0.00000  Uiso   1.00
O553   O     0.50785   0.49213   0.34968   0.00000  Uiso   1.00
O554   O     0.51264   0.41352   0.28213   0.00000  Uiso   1.00
O555   O     0.47965   0.59418   0.27013   0.00000  Uiso   1.00
O556   O     0.40745   0.46625   0.23413   0.00000  Uiso   1.00
O557   O     0.60026   0.52605   0.21360   0.00000  Uiso   1.00
O558   O     0.40405   0.52211   0.28213   0.00000  Uiso   1.00
O559   O     0.58824   0.48559   0.27013   0.00000  Uiso   1.00
O560   O     0.47093   0.40277   0.23413   0.00000  Uiso   1.00
O561   O     0.53678   0.58953   0.21360   0.00000  Uiso   1.00
Zn562  Zn    0.52672   0.47327   0.28734   0.00000  Uiso   1.00
Zn563  Zn    0.46713   0.45791   0.21875   0.00000  Uiso   1.00
Zn564  Zn    0.54389   0.53109   0.20657   0.00000  Uiso   1.00
Zn565  Zn    0.46226   0.53773   0.28733   0.00000  Uiso   1.00
C566   C     0.71998   0.49318   0.25912   0.00000  Uiso   1.00
C567   C     0.83646   0.49805   0.06094   0.00000  Uiso   1.00
C568   C     0.88277   0.44462   0.05714   0.00000  Uiso   1.00
C569   C     0.94734   0.50704   0.24035   0.00000  Uiso   1.00
C570   C     0.80534   0.52575   0.42089   0.00000  Uiso   1.00
C571   C     0.99282   0.51175   0.23960   0.00000  Uiso   1.00
C572   C     0.67482   0.48772   0.26347   0.00000  Uiso   1.00
C573   C     0.84403   0.65571   0.23409   0.00000  Uiso   1.00
C574   C     0.81791   0.34601   0.26585   0.00000  Uiso   1.00
C575   C     0.82250   0.38964   0.26064   0.00000  Uiso   1.00
C576   C     0.84266   0.61123   0.23955   0.00000  Uiso   1.00
C577   C     0.75035   0.53548   0.49112   0.00000  Uiso   1.00
C578   C     0.85209   0.48126   0.12959   0.00000  Uiso   1.00
C579   C     0.81529   0.51841   0.37107   0.00000  Uiso   1.00
C580   C     0.88926   0.43916   0.01018   0.00000  Uiso   1.00
C581   C     0.85783   0.47498   0.08156   0.00000  Uiso   1.00
C582   C     0.76517   0.53891   0.44448   0.00000  Uiso   1.00
C583   C     0.94292   0.43952   0.08740   0.00000  Uiso   1.00
C584   C     0.98219   0.45080   0.28877   0.00000  Uiso   1.00
C585   C     0.67449   0.42445   0.30734   0.00000  Uiso   1.00
C586   C     0.87432   0.34319   0.19308   0.00000  Uiso   1.00
C587   C     0.90047   0.64932   0.15573   0.00000  Uiso   1.00
C588   C     0.77523   0.51884   0.01332   0.00000  Uiso   1.00
C589   C     0.78642   0.66408   0.30881   0.00000  Uiso   1.00
C590   C     0.76313   0.36416   0.34053   0.00000  Uiso   1.00
C591   C     0.89527   0.41634   0.38312   0.00000  Uiso   1.00
C592   C     0.88920   0.36809   0.47863   0.00000  Uiso   1.00
C593   C     0.78194   0.52779   0.12322   0.00000  Uiso   1.00
C594   C     0.74174   0.59648   0.41857   0.00000  Uiso   1.00
C595   C     0.70712   0.54692   0.01827   0.00000  Uiso   1.00
C596   C     0.71218   0.58540   0.05028   0.00000  Uiso   1.00
C597   C     0.90526   0.52972   0.39035   0.00000  Uiso   1.00
C598   C     0.94203   0.55259   0.40915   0.00000  Uiso   1.00
C599   C     0.81645   0.50910   0.49167   0.00000  Uiso   1.00
C600   C     0.69071   0.58340   0.23486   0.00000  Uiso   1.00
C601   C     0.83227   0.51389   0.44537   0.00000  Uiso   1.00
C602   C     0.84111   0.49112   0.01425   0.00000  Uiso   1.00
C603   C     0.87196   0.46575   0.48835   0.00000  Uiso   1.00
C604   C     0.88718   0.47122   0.44199   0.00000  Uiso   1.00
C605   C     0.87366   0.50333   0.42474   0.00000  Uiso   1.00
H606   H     0.76056   0.51120   0.04724   0.00000  Uiso   1.00
H607   H     0.96553   0.42965   0.26626   0.00000  Uiso   1.00
H608   H     0.92504   0.63692   0.16764   0.00000  Uiso   1.00
H609   H     0.87930   0.62383   0.14260   0.00000  Uiso   1.00
H610   H     0.91761   0.33518   0.12756   0.00000  Uiso   1.00
H611   H     0.85488   0.35850   0.17670   0.00000  Uiso   1.00
H612   H     0.89713   0.36779   0.20508   0.00000  Uiso   1.00
H613   H     0.78621   0.38761   0.35356   0.00000  Uiso   1.00
H614   H     0.74476   0.37962   0.32308   0.00000  Uiso   1.00
H615   H     0.74035   0.34952   0.36953   0.00000  Uiso   1.00
H616   H     0.76116   0.64065   0.29947   0.00000  Uiso   1.00
H617   H     0.90211   0.38976   0.06854   0.00000  Uiso   1.00
H618   H     0.80393   0.64999   0.32842   0.00000  Uiso   1.00
H619   H     0.94436   0.46022   0.39680   0.00000  Uiso   1.00
H620   H     0.91569   0.39162   0.36832   0.00000  Uiso   1.00
H621   H     0.89032   0.43276   0.35586   0.00000  Uiso   1.00
H622   H     0.86374   0.40130   0.40153   0.00000  Uiso   1.00
H623   H     0.94126   0.40559   0.49464   0.00000  Uiso   1.00
H624   H     0.90928   0.34803   0.45295   0.00000  Uiso   1.00
H625   H     0.86064   0.37172   0.46707   0.00000  Uiso   1.00
H626   H     0.87842   0.35250   0.01036   0.00000  Uiso   1.00
H627   H     0.84033   0.55890   0.08924   0.00000  Uiso   1.00
H628   H     0.96709   0.44279   0.05491   0.00000  Uiso   1.00
H629   H     0.79242   0.53490   0.15487   0.00000  Uiso   1.00
H630   H     0.76520   0.49559   0.12205   0.00000  Uiso   1.00
H631   H     0.75894   0.54950   0.12343   0.00000  Uiso   1.00
H632   H     0.70776   0.53688   0.42589   0.00000  Uiso   1.00
H633   H     0.72835   0.61157   0.45219   0.00000  Uiso   1.00
H634   H     0.77566   0.60975   0.40613   0.00000  Uiso   1.00
H635   H     0.72350   0.60315   0.39513   0.00000  Uiso   1.00
H636   H     0.72970   0.57966   0.07469   0.00000  Uiso   1.00
H637   H     0.72988   0.61215   0.03131   0.00000  Uiso   1.00
H638   H     0.68016   0.59342   0.06911   0.00000  Uiso   1.00
H639   H     0.95399   0.41978   0.10782   0.00000  Uiso   1.00
H640   H     0.68652   0.55318   0.49723   0.00000  Uiso   1.00
H641   H     0.68943   0.52051   0.03791   0.00000  Uiso   1.00
H642   H     0.96058   0.53053   0.41809   0.00000  Uiso   1.00
H643   H     0.96403   0.57215   0.38358   0.00000  Uiso   1.00
H644   H     0.92941   0.57297   0.43947   0.00000  Uiso   1.00
H645   H     0.91818   0.51030   0.35961   0.00000  Uiso   1.00
H646   H     0.88975   0.55400   0.38070   0.00000  Uiso   1.00
H647   H     0.68256   0.54189   0.18138   0.00000  Uiso   1.00
H648   H     0.71570   0.60414   0.21306   0.00000  Uiso   1.00
H649   H     0.69958   0.58328   0.26706   0.00000  Uiso   1.00
H650   H     0.94028   0.47059   0.10571   0.00000  Uiso   1.00
H651   H     0.99297   0.59583   0.24141   0.00000  Uiso   1.00
H652   H     0.69708   0.40862   0.27968   0.00000  Uiso   1.00
H653   H     0.69215   0.44395   0.33006   0.00000  Uiso   1.00
H654   H     0.98588   0.39996   0.32670   0.00000  Uiso   1.00
H655   H     0.95851   0.46284   0.31790   0.00000  Uiso   1.00
N656   N     0.90201   0.42054   0.08017   0.00000  Uiso   1.00
N657   N     0.91540   0.44506   0.41293   0.00000  Uiso   1.00
N658   N     0.91387   0.40797   0.48506   0.00000  Uiso   1.00
N659   N     0.81818   0.53381   0.08476   0.00000  Uiso   1.00
N660   N     0.73845   0.55208   0.42043   0.00000  Uiso   1.00
N661   N     0.68790   0.54201   0.21274   0.00000  Uiso   1.00
O662   O     0.83333   0.50000   0.25000   0.00000  Uiso   1.00
O663   O     0.82118   0.45970   0.15458   0.00000  Uiso   1.00
O664   O     0.79607   0.53724   0.34968   0.00000  Uiso   1.00
O665   O     0.87491   0.51092   0.14606   0.00000  Uiso   1.00
O666   O     0.84118   0.49213   0.34968   0.00000  Uiso   1.00
O667   O     0.84597   0.41352   0.28213   0.00000  Uiso   1.00
O668   O     0.81298   0.59418   0.27013   0.00000  Uiso   1.00
O669   O     0.74078   0.46625   0.23413   0.00000  Uiso   1.00
O670   O     0.93360   0.52605   0.21360   0.00000  Uiso   1.00
O671   O     0.73738   0.52211   0.28213   0.00000  Uiso   1.00
O672   O     0.92158   0.48559   0.27013   0.00000  Uiso   1.00
O673   O     0.80426   0.40277   0.23413   0.00000  Uiso   1.00
O674   O     0.87012   0.58953   0.21360   0.00000  Uiso   1.00
Zn675  Zn    0.86005   0.47327   0.28734   0.00000  Uiso   1.00
Zn676  Zn    0.80046   0.45791   0.21875   0.00000  Uiso   1.00
Zn677  Zn    0.87723   0.53109   0.20657   0.00000  Uiso   1.00
Zn678  Zn    0.79560   0.53773   0.28733   0.00000  Uiso   1.00
C679   C     0.05331   0.82651   0.25912   0.00000  Uiso   1.00
C680   C     0.16979   0.83138   0.06094   0.00000  Uiso   1.00
C681   C     0.21610   0.77796   0.05714   0.00000  Uiso   1.00
C682   C     0.28068   0.84038   0.24035   0.00000  Uiso   1.00
C683   C     0.13867   0.85909   0.42089   0.00000  Uiso   1.00
C684   C     0.32615   0.84508   0.23960   0.00000  Uiso   1.00
C685   C     0.00815   0.82106   0.26347   0.00000  Uiso   1.00
C686   C     0.17737   0.98905   0.23409   0.00000  Uiso   1.00
C687   C     0.15124   0.67935   0.26585   0.00000  Uiso   1.00
C688   C     0.15583   0.72298   0.26064   0.00000  Uiso   1.00
C689   C     0.17600   0.94457   0.23955   0.00000  Uiso   1.00
C690   C     0.08369   0.86881   0.49112   0.00000  Uiso   1.00
C691   C     0.18542   0.81459   0.12959   0.00000  Uiso   1.00
C692   C     0.14862   0.85174   0.37107   0.00000  Uiso   1.00
C693   C     0.22260   0.77249   0.01018   0.00000  Uiso   1.00
C694   C     0.19116   0.80831   0.08156   0.00000  Uiso   1.00
C695   C     0.09851   0.87224   0.44448   0.00000  Uiso   1.00
C696   C     0.27625   0.77286   0.08740   0.00000  Uiso   1.00
C697   C     0.31552   0.78413   0.28877   0.00000  Uiso   1.00
C698   C     0.00782   0.75779   0.30734   0.00000  Uiso   1.00
C699   C     0.20765   0.67652   0.19308   0.00000  Uiso   1.00
C700   C     0.23381   0.98265   0.15573   0.00000  Uiso   1.00
C701   C     0.10856   0.85217   0.01332   0.00000  Uiso   1.00
C702   C     0.11975   0.99742   0.30881   0.00000  Uiso   1.00
C703   C     0.09646   0.69750   0.34053   0.00000  Uiso   1.00
C704   C     0.22860   0.74967   0.38312   0.00000  Uiso   1.00
C705   C     0.22253   0.70142   0.47863   0.00000  Uiso   1.00
C706   C     0.11527   0.86112   0.12322   0.00000  Uiso   1.00
C707   C     0.07507   0.92982   0.41857   0.00000  Uiso   1.00
C708   C     0.04046   0.88025   0.01827   0.00000  Uiso   1.00
C709   C     0.04552   0.91873   0.05028   0.00000  Uiso   1.00
C710   C     0.23859   0.86305   0.39035   0.00000  Uiso   1.00
C711   C     0.27537   0.88593   0.40915   0.00000  Uiso   1.00
C712   C     0.14978   0.84243   0.49167   0.00000  Uiso   1.00
C713   C     0.02405   0.91673   0.23486   0.00000  Uiso   1.00
C714   C     0.16560   0.84723   0.44537   0.00000  Uiso   1.00
C715   C     0.17444   0.82445   0.01425   0.00000  Uiso   1.00
C716   C     0.20529   0.79908   0.48835   0.00000  Uiso   1.00
C717   C     0.22052   0.80455   0.44199   0.00000  Uiso   1.00
C718   C     0.20699   0.83666   0.42474   0.00000  Uiso   1.00
H719   H     0.09389   0.84453   0.04724   0.00000  Uiso   1.00
H720   H     0.29886   0.76299   0.26626   0.00000  Uiso   1.00
H721   H     0.25837   0.97025   0.16764   0.00000  Uiso   1.00
H722   H     0.21263   0.95716   0.14260   0.00000  Uiso   1.00
H723   H     0.25095   0.66851   0.12756   0.00000  Uiso   1.00
H724   H     0.18821   0.69183   0.17670   0.00000  Uiso   1.00
H725   H     0.23046   0.70112   0.20508   0.00000  Uiso   1.00
H726   H     0.11954   0.72095   0.35356   0.00000  Uiso   1.00
H727   H     0.07809   0.71295   0.32308   0.00000  Uiso   1.00
H728   H     0.07368   0.68285   0.36953   0.00000  Uiso   1.00
H729   H     0.09449   0.97398   0.29947   0.00000  Uiso   1.00
H730   H     0.23544   0.72310   0.06854   0.00000  Uiso   1.00
H731   H     0.13727   0.98332   0.32842   0.00000  Uiso   1.00
H732   H     0.27769   0.79355   0.39680   0.00000  Uiso   1.00
H733   H     0.24902   0.72495   0.36832   0.00000  Uiso   1.00
H734   H     0.22365   0.76609   0.35586   0.00000  Uiso   1.00
H735   H     0.19707   0.73463   0.40153   0.00000  Uiso   1.00
H736   H     0.27459   0.73892   0.49464   0.00000  Uiso   1.00
H737   H     0.24262   0.68136   0.45295   0.00000  Uiso   1.00
H738   H     0.19398   0.70506   0.46707   0.00000  Uiso   1.00
H739   H     0.21176   0.68584   0.01036   0.00000  Uiso   1.00
H740   H     0.17366   0.89223   0.08924   0.00000  Uiso   1.00
H741   H     0.30042   0.77612   0.05491   0.00000  Uiso   1.00
H742   H     0.12576   0.86823   0.15487   0.00000  Uiso   1.00
H743   H     0.09854   0.82893   0.12205   0.00000  Uiso   1.00
H744   H     0.09228   0.88284   0.12343   0.00000  Uiso   1.00
H745   H     0.04109   0.87022   0.42589   0.00000  Uiso   1.00
H746   H     0.06169   0.94490   0.45219   0.00000  Uiso   1.00
H747   H     0.10899   0.94308   0.40613   0.00000  Uiso   1.00
H748   H     0.05683   0.93649   0.39513   0.00000  Uiso   1.00
H749   H     0.06304   0.91299   0.07469   0.00000  Uiso   1.00
H750   H     0.06321   0.94548   0.03131   0.00000  Uiso   1.00
H751   H     0.01349   0.92675   0.06911   0.00000  Uiso   1.00
H752   H     0.28732   0.75311   0.10782   0.00000  Uiso   1.00
H753   H     0.01985   0.88651   0.49723   0.00000  Uiso   1.00
H754   H     0.02277   0.85384   0.03791   0.00000  Uiso   1.00
H755   H     0.29391   0.86386   0.41809   0.00000  Uiso   1.00
H756   H     0.29736   0.90548   0.38358   0.00000  Uiso   1.00
H757   H     0.26274   0.90630   0.43947   0.00000  Uiso   1.00
H758   H     0.25151   0.84363   0.35961   0.00000  Uiso   1.00
H759   H     0.22309   0.88733   0.38070   0.00000  Uiso   1.00
H760   H     0.01589   0.87522   0.18138   0.00000  Uiso   1.00
H761   H     0.04903   0.93748   0.21306   0.00000  Uiso   1.00
H762   H     0.03291   0.91661   0.26706   0.00000  Uiso   1.00
H763   H     0.27361   0.80393   0.10571   0.00000  Uiso   1.00
H764   H     0.32631   0.92916   0.24141   0.00000  Uiso   1.00
H765   H     0.03041   0.74195   0.27968   0.00000  Uiso   1.00
H766   H     0.02549   0.77729   0.33006   0.00000  Uiso   1.00
H767   H     0.31922   0.73330   0.32670   0.00000  Uiso   1.00
H768   H     0.29185   0.79618   0.31790   0.00000  Uiso   1.00
N769   N     0.23534   0.75387   0.08017   0.00000  Uiso   1.00
N770   N     0.24873   0.77839   0.41293   0.00000  Uiso   1.00
N771   N     0.24720   0.74131   0.48506   0.00000  Uiso   1.00
N772   N     0.15151   0.86715   0.08476   0.00000  Uiso   1.00
N773   N     0.07179   0.88541   0.42043   0.00000  Uiso   1.00
N774   N     0.02124   0.87534   0.21274   0.00000  Uiso   1.00
O775   O     0.16667   0.83333   0.25000   0.00000  Uiso   1.00
O776   O     0.15451   0.79304   0.15458   0.00000  Uiso   1.00
O777   O     0.12940   0.87058   0.34968   0.00000  Uiso   1.00
O778   O     0.20824   0.84425   0.14606   0.00000  Uiso   1.00
O779   O     0.17451   0.82546   0.34968   0.00000  Uiso   1.00
O780   O     0.17930   0.74686   0.28213   0.00000  Uiso   1.00
O781   O     0.14632   0.92751   0.27013   0.00000  Uiso   1.00
O782   O     0.07412   0.79958   0.23413   0.00000  Uiso   1.00
O783   O     0.26693   0.85939   0.21360   0.00000  Uiso   1.00
O784   O     0.07071   0.85544   0.28213   0.00000  Uiso   1.00
O785   O     0.25491   0.81892   0.27013   0.00000  Uiso   1.00
O786   O     0.13760   0.73610   0.23413   0.00000  Uiso   1.00
O787   O     0.20345   0.92286   0.21360   0.00000  Uiso   1.00
Zn788  Zn    0.19338   0.80661   0.28734   0.00000  Uiso   1.00
Zn789  Zn    0.13379   0.79124   0.21875   0.00000  Uiso   1.00
Zn790  Zn    0.21056   0.86442   0.20657   0.00000  Uiso   1.00
Zn791  Zn    0.12893   0.87106   0.28733   0.00000  Uiso   1.00
C792   C     0.38665   0.82651   0.25912   0.00000  Uiso   1.00
C793   C     0.50312   0.83138   0.06094   0.00000  Uiso   1.00
C794   C     0.54944   0.77796   0.05714   0.00000  Uiso   1.00
C795   C     0.61401   0.84038   0.24035   0.00000  Uiso   1.00
C796   C     0.47201   0.85909   0.42089   0.00000  Uiso   1.00
C797   C     0.65948   0.84508   0.23960   0.00000  Uiso   1.00
C798   C     0.34149   0.82106   0.26347   0.00000  Uiso   1.00
C799   C     0.51070   0.98905   0.23409   0.00000  Uiso   1.00
C800   C     0.48457   0.67935   0.26585   0.00000  Uiso   1.00
C801   C     0.48917   0.72298   0.26064   0.00000  Uiso   1.00
C802   C     0.50933   0.94457   0.23955   0.00000  Uiso   1.00
C803   C     0.41702   0.86881   0.49112   0.00000  Uiso   1.00
C804   C     0.51876   0.81459   0.12959   0.00000  Uiso   1.00
C805   C     0.48195   0.85174   0.37107   0.00000  Uiso   1.00
C806   C     0.55593   0.77249   0.01018   0.00000  Uiso   1.00
C807   C     0.52449   0.80831   0.08156   0.00000  Uiso   1.00
C808   C     0.43184   0.87224   0.44448   0.00000  Uiso   1.00
C809   C     0.60958   0.77286   0.08740   0.00000  Uiso   1.00
C810   C     0.64885   0.78413   0.28877   0.00000  Uiso   1.00
C811   C     0.34115   0.75779   0.30734   0.00000  Uiso   1.00
C812   C     0.54098   0.67652   0.19308   0.00000  Uiso   1.00
C813   C     0.56714   0.98265   0.15573   0.00000  Uiso   1.00
C814   C     0.44189   0.85217   0.01332   0.00000  Uiso   1.00
C815   C     0.45309   0.99742   0.30881   0.00000  Uiso   1.00
C816   C     0.42979   0.69750   0.34053   0.00000  Uiso   1.00
C817   C     0.56194   0.74967   0.38312   0.00000  Uiso   1.00
C818   C     0.55586   0.70142   0.47863   0.00000  Uiso   1.00
C819   C     0.44861   0.86112   0.12322   0.00000  Uiso   1.00
C820   C     0.40840   0.92982   0.41857   0.00000  Uiso   1.00
C821   C     0.37379   0.88025   0.01827   0.00000  Uiso   1.00
C822   C     0.37885   0.91873   0.05028   0.00000  Uiso   1.00
C823   C     0.57192   0.86305   0.39035   0.00000  Uiso   1.00
C824   C     0.60870   0.88593   0.40915   0.00000  Uiso   1.00
C825   C     0.48311   0.84243   0.49167   0.00000  Uiso   1.00
C826   C     0.35738   0.91673   0.23486   0.00000  Uiso   1.00
C827   C     0.49893   0.84723   0.44537   0.00000  Uiso   1.00
C828   C     0.50777   0.82445   0.01425   0.00000  Uiso   1.00
C829   C     0.53862   0.79908   0.48835   0.00000  Uiso   1.00
C830   C     0.55385   0.80455   0.44199   0.00000  Uiso   1.00
C831   C     0.54032   0.83666   0.42474   0.00000  Uiso   1.00
H832   H     0.42723   0.84453   0.04724   0.00000  Uiso   1.00
H833   H     0.63220   0.76299   0.26626   0.00000  Uiso   1.00
H834   H     0.59170   0.97025   0.16764   0.00000  Uiso   1.00
H835   H     0.54597   0.95716   0.14260   0.00000  Uiso   1.00
H836   H     0.58428   0.66851   0.12756   0.00000  Uiso   1.00
H837   H     0.52154   0.69183   0.17670   0.00000  Uiso   1.00
H838   H     0.56380   0.70112   0.20508   0.00000  Uiso   1.00
H839   H     0.45288   0.72095   0.35356   0.00000  Uiso   1.00
H840   H     0.41142   0.71295   0.32308   0.00000  Uiso   1.00
H841   H     0.40701   0.68285   0.36953   0.00000  Uiso   1.00
H842   H     0.42782   0.97398   0.29947   0.00000  Uiso   1.00
H843   H     0.56878   0.72310   0.06854   0.00000  Uiso   1.00
H844   H     0.47060   0.98332   0.32842   0.00000  Uiso   1.00
H845   H     0.61103   0.79355   0.39680   0.00000  Uiso   1.00
H846   H     0.58236   0.72495   0.36832   0.00000  Uiso   1.00
H847   H     0.55698   0.76609   0.35586   0.00000  Uiso   1.00
H848   H     0.53040   0.73463   0.40153   0.00000  Uiso   1.00
H849   H     0.60793   0.73892   0.49464   0.00000  Uiso   1.00
H850   H     0.57595   0.68136   0.45295   0.00000  Uiso   1.00
H851   H     0.52731   0.70506   0.46707   0.00000  Uiso   1.00
H852   H     0.54509   0.68584   0.01036   0.00000  Uiso   1.00
H853   H     0.50700   0.89223   0.08924   0.00000  Uiso   1.00
H854   H     0.63376   0.77612   0.05491   0.00000  Uiso   1.00
H855   H     0.45909   0.86823   0.15487   0.00000  Uiso   1.00
H856   H     0.43187   0.82893   0.12205   0.00000  Uiso   1.00
H857   H     0.42561   0.88284   0.12343   0.00000  Uiso   1.00
H858   H     0.37442   0.87022   0.42589   0.00000  Uiso   1.00
H859   H     0.39502   0.94490   0.45219   0.00000  Uiso   1.00
H860   H     0.44232   0.94308   0.40613   0.00000  Uiso   1.00
H861   H     0.39017   0.93649   0.39513   0.00000  Uiso   1.00
H862   H     0.39637   0.91299   0.07469   0.00000  Uiso   1.00
H863   H     0.39655   0.94548   0.03131   0.00000  Uiso   1.00
H864   H     0.34682   0.92675   0.06911   0.00000  Uiso   1.00
H865   H     0.62066   0.75311   0.10782   0.00000  Uiso   1.00
H866   H     0.35318   0.88651   0.49723   0.00000  Uiso   1.00
H867   H     0.35610   0.85384   0.03791   0.00000  Uiso   1.00
H868   H     0.62724   0.86386   0.41809   0.00000  Uiso   1.00
H869   H     0.63069   0.90548   0.38358   0.00000  Uiso   1.00
H870   H     0.59608   0.90630   0.43947   0.00000  Uiso   1.00
H871   H     0.58484   0.84363   0.35961   0.00000  Uiso   1.00
H872   H     0.55642   0.88733   0.38070   0.00000  Uiso   1.00
H873   H     0.34923   0.87522   0.18138   0.00000  Uiso   1.00
H874   H     0.38237   0.93748   0.21306   0.00000  Uiso   1.00
H875   H     0.36625   0.91661   0.26706   0.00000  Uiso   1.00
H876   H     0.60694   0.80393   0.10571   0.00000  Uiso   1.00
H877   H     0.65964   0.92916   0.24141   0.00000  Uiso   1.00
H878   H     0.36374   0.74195   0.27968   0.00000  Uiso   1.00
H879   H     0.35882   0.77729   0.33006   0.00000  Uiso   1.00
H880   H     0.65255   0.73330   0.32670   0.00000  Uiso   1.00
H881   H     0.62518   0.79618   0.31790   0.00000  Uiso   1.00
N882   N     0.56868   0.75387   0.08017   0.00000  Uiso   1.00
N883   N     0.58206   0.77839   0.41293   0.00000  Uiso   1.00
N884   N     0.58053   0.74131   0.48506   0.00000  Uiso   1.00
N885   N     0.48484   0.86715   0.08476   0.00000  Uiso   1.00
N886   N     0.40512   0.88541   0.42043   0.00000  Uiso   1.00
N887   N     0.35457   0.87534   0.21274   0.00000  Uiso   1.00
O888   O     0.50000   0.83333   0.25000   0.00000  Uiso   1.00
O889   O     0.48784   0.79304   0.15458   0.00000  Uiso   1.00
O890   O     0.46274   0.87058   0.34968   0.00000  Uiso   1.00
O891   O     0.54157   0.84425   0.14606   0.00000  Uiso   1.00
O892   O     0.50785   0.82546   0.34968   0.00000  Uiso   1.00
O893   O     0.51264   0.74686   0.28213   0.00000  Uiso   1.00
O894   O     0.47965   0.92751   0.27013   0.00000  Uiso   1.00
O895   O     0.40745   0.79958   0.23413   0.00000  Uiso   1.00
O896   O     0.60026   0.85939   0.21360   0.00000  Uiso   1.00
O897   O     0.40405   0.85544   0.28213   0.00000  Uiso   1.00
O898   O     0.58824   0.81892   0.27013   0.00000  Uiso   1.00
O899   O     0.47093   0.73610   0.23413   0.00000  Uiso   1.00
O900   O     0.53678   0.92286   0.21360   0.00000  Uiso   1.00
Zn901  Zn    0.52672   0.80661   0.28734   0.00000  Uiso   1.00
Zn902  Zn    0.46713   0.79124   0.21875   0.00000  Uiso   1.00
Zn903  Zn    0.54389   0.86442   0.20657   0.00000  Uiso   1.00
Zn904  Zn    0.46226   0.87106   0.28733   0.00000  Uiso   1.00
C905   C     0.71998   0.82651   0.25912   0.00000  Uiso   1.00
C906   C     0.83646   0.83138   0.06094   0.00000  Uiso   1.00
C907   C     0.88277   0.77796   0.05714   0.00000  Uiso   1.00
C908   C     0.94734   0.84038   0.24035   0.00000  Uiso   1.00
C909   C     0.80534   0.85909   0.42089   0.00000  Uiso   1.00
C910   C     0.99282   0.84508   0.23960   0.00000  Uiso   1.00
C911   C     0.67482   0.82106   0.26347   0.00000  Uiso   1.00
C912   C     0.84403   0.98905   0.23409   0.00000  Uiso   1.00
C913   C     0.81791   0.67935   0.26585   0.00000  Uiso   1.00
C914   C     0.82250   0.72298   0.26064   0.00000  Uiso   1.00
C915   C     0.84266   0.94457   0.23955   0.00000  Uiso   1.00
C916   C     0.75035   0.86881   0.49112   0.00000  Uiso   1.00
C917   C     0.85209   0.81459   0.12959   0.00000  Uiso   1.00
C918   C     0.81529   0.85174   0.37107   0.00000  Uiso   1.00
C919   C     0.88926   0.77249   0.01018   0.00000  Uiso   1.00
C920   C     0.85783   0.80831   0.08156   0.00000  Uiso   1.00
C921   C     0.76517   0.87224   0.44448   0.00000  Uiso   1.00
C922   C     0.94292   0.77286   0.08740   0.00000  Uiso   1.00
C923   C     0.98219   0.78413   0.28877   0.00000  Uiso   1.00
C924   C     0.67449   0.75779   0.30734   0.00000  Uiso   1.00
C925   C     0.87432   0.67652   0.19308   0.00000  Uiso   1.00
C926   C     0.90047   0.98265   0.15573   0.00000  Uiso   1.00
C927   C     0.77523   0.85217   0.01332   0.00000  Uiso   1.00
C928   C     0.78642   0.99742   0.30881   0.00000  Uiso   1.00
C929   C     0.76313   0.69750   0.34053   0.00000  Uiso   1.00
C930   C     0.89527   0.74967   0.38312   0.00000  Uiso   1.00
C931   C     0.88920   0.70142   0.47863   0.00000  Uiso   1.00
C932   C     0.78194   0.86112   0.12322   0.00000  Uiso   1.00
C933   C     0.74174   0.92982   0.41857   0.00000  Uiso   1.00
C934   C     0.70712   0.88025   0.01827   0.00000  Uiso   1.00
C935   C     0.71218   0.91873   0.05028   0.00000  Uiso   1.00
C936   C     0.90526   0.86305   0.39035   0.00000  Uiso   1.00
C937   C     0.94203   0.88593   0.40915   0.00000  Uiso   1.00
C938   C     0.81645   0.84243   0.49167   0.00000  Uiso   1.00
C939   C     0.69071   0.91673   0.23486   0.00000  Uiso   1.00
C940   C     0.83227   0.84723   0.44537   0.00000  Uiso   1.00
C941   C     0.84111   0.82445   0.01425   0.00000  Uiso   1.00
C942   C     0.87196   0.79908   0.48835   0.00000  Uiso   1.00
C943   C     0.88718   0.80455   0.44199   0.00000  Uiso   1.00
C944   C     0.87366   0.83666   0.42474   0.00000  Uiso   1.00
H945   H     0.76056   0.84453   0.04724   0.00000  Uiso   1.00
H946   H     0.96553   0.76299   0.26626   0.00000  Uiso   1.00
H947   H     0.92504   0.97025   0.16764   0.00000  Uiso   1.00
H948   H     0.87930   0.95716   0.14260   0.00000  Uiso   1.00
H949   H     0.91761   0.66851   0.12756   0.00000  Uiso   1.00
H950   H     0.85488   0.69183   0.17670   0.00000  Uiso   1.00
H951   H     0.89713   0.70112   0.20508   0.00000  Uiso   1.00
H952   H     0.78621   0.72095   0.35356   0.00000  Uiso   1.00
H953   H     0.74476   0.71295   0.32308   0.00000  Uiso   1.00
H954   H     0.74035   0.68285   0.36953   0.00000  Uiso   1.00
H955   H     0.76116   0.97398   0.29947   0.00000  Uiso   1.00
H956   H     0.90211   0.72310   0.06854   0.00000  Uiso   1.00
H957   H     0.80393   0.98332   0.32842   0.00000  Uiso   1.00
H958   H     0.94436   0.79355   0.39680   0.00000  Uiso   1.00
H959   H     0.91569   0.72495   0.36832   0.00000  Uiso   1.00
H960   H     0.89032   0.76609   0.35586   0.00000  Uiso   1.00
H961   H     0.86374   0.73463   0.40153   0.00000  Uiso   1.00
H962   H     0.94126   0.73892   0.49464   0.00000  Uiso   1.00
H963   H     0.90928   0.68136   0.45295   0.00000  Uiso   1.00
H964   H     0.86064   0.70506   0.46707   0.00000  Uiso   1.00
H965   H     0.87842   0.68584   0.01036   0.00000  Uiso   1.00
H966   H     0.84033   0.89223   0.08924   0.00000  Uiso   1.00
H967   H     0.96709   0.77612   0.05491   0.00000  Uiso   1.00
H968   H     0.79242   0.86823   0.15487   0.00000  Uiso   1.00
H969   H     0.76520   0.82893   0.12205   0.00000  Uiso   1.00
H970   H     0.75894   0.88284   0.12343   0.00000  Uiso   1.00
H971   H     0.70776   0.87022   0.42589   0.00000  Uiso   1.00
H972   H     0.72835   0.94490   0.45219   0.00000  Uiso   1.00
H973   H     0.77566   0.94308   0.40613   0.00000  Uiso   1.00
H974   H     0.72350   0.93649   0.39513   0.00000  Uiso   1.00
H975   H     0.72970   0.91299   0.07469   0.00000  Uiso   1.00
H976   H     0.72988   0.94548   0.03131   0.00000  Uiso   1.00
H977   H     0.68016   0.92675   0.06911   0.00000  Uiso   1.00
H978   H     0.95399   0.75311   0.10782   0.00000  Uiso   1.00
H979   H     0.68652   0.88651   0.49723   0.00000  Uiso   1.00
H980   H     0.68943   0.85384   0.03791   0.00000  Uiso   1.00
H981   H     0.96058   0.86386   0.41809   0.00000  Uiso   1.00
H982   H     0.96403   0.90548   0.38358   0.00000  Uiso   1.00
H983   H     0.92941   0.90630   0.43947   0.00000  Uiso   1.00
H984   H     0.91818   0.84363   0.35961   0.00000  Uiso   1.00
H985   H     0.88975   0.88733   0.38070   0.00000  Uiso   1.00
H986   H     0.68256   0.87522   0.18138   0.00000  Uiso   1.00
H987   H     0.71570   0.93748   0.21306   0.00000  Uiso   1.00
H988   H     0.69958   0.91661   0.26706   0.00000  Uiso   1.00
H989   H     0.94028   0.80393   0.10571   0.00000  Uiso   1.00
H990   H     0.99297   0.92916   0.24141   0.00000  Uiso   1.00
H991   H     0.69708   0.74195   0.27968   0.00000  Uiso   1.00
H992   H     0.69215   0.77729   0.33006   0.00000  Uiso   1.00
H993   H     0.98588   0.73330   0.32670   0.00000  Uiso   1.00
H994   H     0.95851   0.79618   0.31790   0.00000  Uiso   1.00
N995   N     0.90201   0.75387   0.08017   0.00000  Uiso   1.00
N996   N     0.91540   0.77839   0.41293   0.00000  Uiso   1.00
N997   N     0.91387   0.74131   0.48506   0.00000  Uiso   1.00
N998   N     0.81818   0.86715   0.08476   0.00000  Uiso   1.00
N999   N     0.73845   0.88541   0.42043   0.00000  Uiso   1.00
N1000  N     0.68790   0.87534   0.21274   0.00000  Uiso   1.00
O1001  O     0.83333   0.83333   0.25000   0.00000  Uiso   1.00
O1002  O     0.82118   0.79304   0.15458   0.00000  Uiso   1.00
O1003  O     0.79607   0.87058   0.34968   0.00000  Uiso   1.00
O1004  O     0.87491   0.84425   0.14606   0.00000  Uiso   1.00
O1005  O     0.84118   0.82546   0.34968   0.00000  Uiso   1.00
O1006  O     0.84597   0.74686   0.28213   0.00000  Uiso   1.00
O1007  O     0.81298   0.92751   0.27013   0.00000  Uiso   1.00
O1008  O     0.74078   0.79958   0.23413   0.00000  Uiso   1.00
O1009  O     0.93360   0.85939   0.21360   0.00000  Uiso   1.00
O1010  O     0.73738   0.85544   0.28213   0.00000  Uiso   1.00
O1011  O     0.92158   0.81892   0.27013   0.00000  Uiso   1.00
O1012  O     0.80426   0.73610   0.23413   0.00000  Uiso   1.00
O1013  O     0.87012   0.92286   0.21360   0.00000  Uiso   1.00
Zn1014 Zn    0.86005   0.80661   0.28734   0.00000  Uiso   1.00
Zn1015 Zn    0.80046   0.79124   0.21875   0.00000  Uiso   1.00
Zn1016 Zn    0.87723   0.86442   0.20657   0.00000  Uiso   1.00
Zn1017 Zn    0.79560   0.87106   0.28733   0.00000  Uiso   1.00
C1018  C     0.05331   0.15984   0.75912   0.00000  Uiso   1.00
C1019  C     0.16979   0.16471   0.56094   0.00000  Uiso   1.00
C1020  C     0.21610   0.11129   0.55714   0.00000  Uiso   1.00
C1021  C     0.28068   0.17371   0.74035   0.00000  Uiso   1.00
C1022  C     0.13867   0.19242   0.92089   0.00000  Uiso   1.00
C1023  C     0.32615   0.17842   0.73960   0.00000  Uiso   1.00
C1024  C     0.00815   0.15439   0.76347   0.00000  Uiso   1.00
C1025  C     0.17737   0.32238   0.73409   0.00000  Uiso   1.00
C1026  C     0.15124   0.01268   0.76585   0.00000  Uiso   1.00
C1027  C     0.15583   0.05631   0.76064   0.00000  Uiso   1.00
C1028  C     0.17600   0.27790   0.73955   0.00000  Uiso   1.00
C1029  C     0.08369   0.20215   0.99112   0.00000  Uiso   1.00
C1030  C     0.18542   0.14793   0.62959   0.00000  Uiso   1.00
C1031  C     0.14862   0.18507   0.87107   0.00000  Uiso   1.00
C1032  C     0.22260   0.10583   0.51018   0.00000  Uiso   1.00
C1033  C     0.19116   0.14165   0.58156   0.00000  Uiso   1.00
C1034  C     0.09851   0.20557   0.94448   0.00000  Uiso   1.00
C1035  C     0.27625   0.10619   0.58740   0.00000  Uiso   1.00
C1036  C     0.31552   0.11747   0.78877   0.00000  Uiso   1.00
C1037  C     0.00782   0.09112   0.80734   0.00000  Uiso   1.00
C1038  C     0.20765   0.00985   0.69308   0.00000  Uiso   1.00
C1039  C     0.23381   0.31598   0.65573   0.00000  Uiso   1.00
C1040  C     0.10856   0.18550   0.51332   0.00000  Uiso   1.00
C1041  C     0.11975   0.33075   0.80881   0.00000  Uiso   1.00
C1042  C     0.09646   0.03083   0.84053   0.00000  Uiso   1.00
C1043  C     0.22860   0.08300   0.88312   0.00000  Uiso   1.00
C1044  C     0.22253   0.03476   0.97863   0.00000  Uiso   1.00
C1045  C     0.11527   0.19445   0.62322   0.00000  Uiso   1.00
C1046  C     0.07507   0.26315   0.91857   0.00000  Uiso   1.00
C1047  C     0.04046   0.21359   0.51827   0.00000  Uiso   1.00
C1048  C     0.04552   0.25206   0.55028   0.00000  Uiso   1.00
C1049  C     0.23859   0.19639   0.89035   0.00000  Uiso   1.00
C1050  C     0.27537   0.21926   0.90915   0.00000  Uiso   1.00
C1051  C     0.14978   0.17576   0.99167   0.00000  Uiso   1.00
C1052  C     0.02405   0.25007   0.73486   0.00000  Uiso   1.00
C1053  C     0.16560   0.18056   0.94537   0.00000  Uiso   1.00
C1054  C     0.17444   0.15779   0.51425   0.00000  Uiso   1.00
C1055  C     0.20529   0.13241   0.98835   0.00000  Uiso   1.00
C1056  C     0.22052   0.13789   0.94199   0.00000  Uiso   1.00
C1057  C     0.20699   0.16999   0.92474   0.00000  Uiso   1.00
H1058  H     0.09389   0.17787   0.54724   0.00000  Uiso   1.00
H1059  H     0.29886   0.09632   0.76626   0.00000  Uiso   1.00
H1060  H     0.25837   0.30359   0.66764   0.00000  Uiso   1.00
H1061  H     0.21263   0.29049   0.64260   0.00000  Uiso   1.00
H1062  H     0.25095   0.00185   0.62756   0.00000  Uiso   1.00
H1063  H     0.18821   0.02516   0.67670   0.00000  Uiso   1.00
H1064  H     0.23046   0.03446   0.70508   0.00000  Uiso   1.00
H1065  H     0.11954   0.05428   0.85356   0.00000  Uiso   1.00
H1066  H     0.07809   0.04629   0.82308   0.00000  Uiso   1.00
H1067  H     0.07368   0.01619   0.86953   0.00000  Uiso   1.00
H1068  H     0.09449   0.30732   0.79947   0.00000  Uiso   1.00
H1069  H     0.23544   0.05643   0.56854   0.00000  Uiso   1.00
H1070  H     0.13727   0.31666   0.82842   0.00000  Uiso   1.00
H1071  H     0.27769   0.12689   0.89680   0.00000  Uiso   1.00
H1072  H     0.24902   0.05829   0.86832   0.00000  Uiso   1.00
H1073  H     0.22365   0.09943   0.85586   0.00000  Uiso   1.00
H1074  H     0.19707   0.06797   0.90153   0.00000  Uiso   1.00
H1075  H     0.27459   0.07225   0.99464   0.00000  Uiso   1.00
H1076  H     0.24262   0.01469   0.95295   0.00000  Uiso   1.00
H1077  H     0.19398   0.03839   0.96707   0.00000  Uiso   1.00
H1078  H     0.21176   0.01917   0.51036   0.00000  Uiso   1.00
H1079  H     0.17366   0.22557   0.58924   0.00000  Uiso   1.00
H1080  H     0.30042   0.10946   0.55491   0.00000  Uiso   1.00
H1081  H     0.12576   0.20157   0.65487   0.00000  Uiso   1.00
H1082  H     0.09854   0.16226   0.62205   0.00000  Uiso   1.00
H1083  H     0.09228   0.21617   0.62343   0.00000  Uiso   1.00
H1084  H     0.04109   0.20355   0.92589   0.00000  Uiso   1.00
H1085  H     0.06169   0.27824   0.95219   0.00000  Uiso   1.00
H1086  H     0.10899   0.27642   0.90613   0.00000  Uiso   1.00
H1087  H     0.05683   0.26982   0.89513   0.00000  Uiso   1.00
H1088  H     0.06304   0.24632   0.57469   0.00000  Uiso   1.00
H1089  H     0.06321   0.27881   0.53131   0.00000  Uiso   1.00
H1090  H     0.01349   0.26008   0.56911   0.00000  Uiso   1.00
H1091  H     0.28732   0.08645   0.60782   0.00000  Uiso   1.00
H1092  H     0.01985   0.21984   0.99723   0.00000  Uiso   1.00
H1093  H     0.02277   0.18718   0.53791   0.00000  Uiso   1.00
H1094  H     0.29391   0.19720   0.91809   0.00000  Uiso   1.00
H1095  H     0.29736   0.23882   0.88358   0.00000  Uiso   1.00
H1096  H     0.26274   0.23964   0.93947   0.00000  Uiso   1.00
H1097  H     0.25151   0.17696   0.85961   0.00000  Uiso   1.00
H1098  H     0.22309   0.22066   0.88070   0.00000  Uiso   1.00
H1099  H     0.01589   0.20856   0.68138   0.00000  Uiso   1.00
H1100  H     0.04903   0.27081   0.71306   0.00000  Uiso   1.00
H1101  H     0.03291   0.24994   0.76706   0.00000  Uiso   1.00
H1102  H     0.27361   0.13726   0.60571   0.00000  Uiso   1.00
H1103  H     0.32631   0.26250   0.74141   0.00000  Uiso   1.00
H1104  H     0.03041   0.07529   0.77968   0.00000  Uiso   1.00
H1105  H     0.02549   0.11062   0.83006   0.00000  Uiso   1.00
H1106  H     0.31922   0.06663   0.82670   0.00000  Uiso   1.00
H1107  H     0.29185   0.12951   0.81790   0.00000  Uiso   1.00
N1108  N     0.23534   0.08720   0.58017   0.00000  Uiso   1.00
N1109  N     0.24873   0.11172   0.91293   0.00000  Uiso   1.00
N1110  N     0.24720   0.07464   0.98506   0.00000  Uiso   1.00
N1111  N     0.15151   0.20048   0.58476   0.00000  Uiso   1.00
N1112  N     0.07179   0.21874   0.92043   0.00000  Uiso   1.00
N1113  N     0.02124   0.20868   0.71274   0.00000  Uiso   1.00
O1114  O     0.16667   0.16667   0.75000   0.00000  Uiso   1.00
O1115  O     0.15451   0.12637   0.65458   0.00000  Uiso   1.00
O1116  O     0.12940   0.20391   0.84968   0.00000  Uiso   1.00
O1117  O     0.20824   0.17759   0.64606   0.00000  Uiso   1.00
O1118  O     0.17451   0.15880   0.84968   0.00000  Uiso   1.00
O1119  O     0.17930   0.08019   0.78213   0.00000  Uiso   1.00
O1120  O     0.14632   0.26085   0.77013   0.00000  Uiso   1.00
O1121  O     0.07412   0.13291   0.73413   0.00000  Uiso   1.00
O1122  O     0.26693   0.19272   0.71360   0.00000  Uiso   1.00
O1123  O     0.07071   0.18878   0.78213   0.00000  Uiso   1.00
O1124  O     0.25491   0.15226   0.77013   0.00000  Uiso   1.00
O1125  O     0.13760   0.06944   0.73413   0.00000  Uiso   1.00
O1126  O     0.20345   0.25620   0.71360   0.00000  Uiso   1.00
Zn1127 Zn    0.19338   0.13994   0.78734   0.00000  Uiso   1.00
Zn1128 Zn    0.13379   0.12458   0.71875   0.00000  Uiso   1.00
Zn1129 Zn    0.21056   0.19775   0.70657   0.00000  Uiso   1.00
Zn1130 Zn    0.12893   0.20439   0.78733   0.00000  Uiso   1.00
C1131  C     0.38665   0.15984   0.75912   0.00000  Uiso   1.00
C1132  C     0.50312   0.16471   0.56094   0.00000  Uiso   1.00
C1133  C     0.54944   0.11129   0.55714   0.00000  Uiso   1.00
C1134  C     0.61401   0.17371   0.74035   0.00000  Uiso   1.00
C1135  C     0.47201   0.19242   0.92089   0.00000  Uiso   1.00
C1136  C     0.65948   0.17842   0.73960   0.00000  Uiso   1.00
C1137  C     0.34149   0.15439   0.76347   0.00000  Uiso   1.00
C1138  C     0.51070   0.32238   0.73409   0.00000  Uiso   1.00
C1139  C     0.48457   0.01268   0.76585   0.00000  Uiso   1.00
C1140  C     0.48917   0.05631   0.76064   0.00000  Uiso   1.00
C1141  C     0.50933   0.27790   0.73955   0.00000  Uiso   1.00
C1142  C     0.41702   0.20215   0.99112   0.00000  Uiso   1.00
C1143  C     0.51876   0.14793   0.62959   0.00000  Uiso   1.00
C1144  C     0.48195   0.18507   0.87107   0.00000  Uiso   1.00
C1145  C     0.55593   0.10583   0.51018   0.00000  Uiso   1.00
C1146  C     0.52449   0.14165   0.58156   0.00000  Uiso   1.00
C1147  C     0.43184   0.20557   0.94448   0.00000  Uiso   1.00
C1148  C     0.60958   0.10619   0.58740   0.00000  Uiso   1.00
C1149  C     0.64885   0.11747   0.78877   0.00000  Uiso   1.00
C1150  C     0.34115   0.09112   0.80734   0.00000  Uiso   1.00
C1151  C     0.54098   0.00985   0.69308   0.00000  Uiso   1.00
C1152  C     0.56714   0.31598   0.65573   0.00000  Uiso   1.00
C1153  C     0.44189   0.18550   0.51332   0.00000  Uiso   1.00
C1154  C     0.45309   0.33075   0.80881   0.00000  Uiso   1.00
C1155  C     0.42979   0.03083   0.84053   0.00000  Uiso   1.00
C1156  C     0.56194   0.08300   0.88312   0.00000  Uiso   1.00
C1157  C     0.55586   0.03476   0.97863   0.00000  Uiso   1.00
C1158  C     0.44861   0.19445   0.62322   0.00000  Uiso   1.00
C1159  C     0.40840   0.26315   0.91857   0.00000  Uiso   1.00
C1160  C     0.37379   0.21359   0.51827   0.00000  Uiso   1.00
C1161  C     0.37885   0.25206   0.55028   0.00000  Uiso   1.00
C1162  C     0.57192   0.19639   0.89035   0.00000  Uiso   1.00
C1163  C     0.60870   0.21926   0.90915   0.00000  Uiso   1.00
C1164  C     0.48311   0.17576   0.99167   0.00000  Uiso   1.00
C1165  C     0.35738   0.25007   0.73486   0.00000  Uiso   1.00
C1166  C     0.49893   0.18056   0.94537   0.00000  Uiso   1.00
C1167  C     0.50777   0.15779   0.51425   0.00000  Uiso   1.00
C1168  C     0.53862   0.13241   0.98835   0.00000  Uiso   1.00
C1169  C     0.55385   0.13789   0.94199   0.00000  Uiso   1.00
C1170  C     0.54032   0.16999   0.92474   0.00000  Uiso   1.00
H1171  H     0.42723   0.17787   0.54724   0.00000  Uiso   1.00
H1172  H     0.63220   0.09632   0.76626   0.00000  Uiso   1.00
H1173  H     0.59170   0.30359   0.66764   0.00000  Uiso   1.00
H1174  H     0.54597   0.29049   0.64260   0.00000  Uiso   1.00
H1175  H     0.58428   0.00185   0.62756   0.00000  Uiso   1.00
H1176  H     0.52154   0.02516   0.67670   0.00000  Uiso   1.00
H1177  H     0.56380   0.03446   0.70508   0.00000  Uiso   1.00
H1178  H     0.45288   0.05428   0.85356   0.00000  Uiso   1.00
H1179  H     0.41142   0.04629   0.82308   0.00000  Uiso   1.00
H1180  H     0.40701   0.01619   0.86953   0.00000  Uiso   1.00
H1181  H     0.42782   0.30732   0.79947   0.00000  Uiso   1.00
H1182  H     0.56878   0.05643   0.56854   0.00000  Uiso   1.00
H1183  H     0.47060   0.31666   0.82842   0.00000  Uiso   1.00
H1184  H     0.61103   0.12689   0.89680   0.00000  Uiso   1.00
H1185  H     0.58236   0.05829   0.86832   0.00000  Uiso   1.00
H1186  H     0.55698   0.09943   0.85586   0.00000  Uiso   1.00
H1187  H     0.53040   0.06797   0.90153   0.00000  Uiso   1.00
H1188  H     0.60793   0.07225   0.99464   0.00000  Uiso   1.00
H1189  H     0.57595   0.01469   0.95295   0.00000  Uiso   1.00
H1190  H     0.52731   0.03839   0.96707   0.00000  Uiso   1.00
H1191  H     0.54509   0.01917   0.51036   0.00000  Uiso   1.00
H1192  H     0.50700   0.22557   0.58924   0.00000  Uiso   1.00
H1193  H     0.63376   0.10946   0.55491   0.00000  Uiso   1.00
H1194  H     0.45909   0.20157   0.65487   0.00000  Uiso   1.00
H1195  H     0.43187   0.16226   0.62205   0.00000  Uiso   1.00
H1196  H     0.42561   0.21617   0.62343   0.00000  Uiso   1.00
H1197  H     0.37442   0.20355   0.92589   0.00000  Uiso   1.00
H1198  H     0.39502   0.27824   0.95219   0.00000  Uiso   1.00
H1199  H     0.44232   0.27642   0.90613   0.00000  Uiso   1.00
H1200  H     0.39017   0.26982   0.89513   0.00000  Uiso   1.00
H1201  H     0.39637   0.24632   0.57469   0.00000  Uiso   1.00
H1202  H     0.39655   0.27881   0.53131   0.00000  Uiso   1.00
H1203  H     0.34682   0.26008   0.56911   0.00000  Uiso   1.00
H1204  H     0.62066   0.08645   0.60782   0.00000  Uiso   1.00
H1205  H     0.35318   0.21984   0.99723   0.00000  Uiso   1.00
H1206  H     0.35610   0.18718   0.53791   0.00000  Uiso   1.00
H1207  H     0.62724   0.19720   0.91809   0.00000  Uiso   1.00
H1208  H     0.63069   0.23882   0.88358   0.00000  Uiso   1.00
H1209  H     0.59608   0.23964   0.93947   0.00000  Uiso   1.00
H1210  H     0.58484   0.17696   0.85961   0.00000  Uiso   1.00
H1211  H     0.55642   0.22066   0.88070   0.00000  Uiso   1.00
H1212  H     0.34923   0.20856   0.68138   0.00000  Uiso   1.00
H1213  H     0.38237   0.27081   0.71306   0.00000  Uiso   1.00
H1214  H     0.36625   0.24994   0.76706   0.00000  Uiso   1.00
H1215  H     0.60694   0.13726   0.60571   0.00000  Uiso   1.00
H1216  H     0.65964   0.26250   0.74141   0.00000  Uiso   1.00
H1217  H     0.36374   0.07529   0.77968   0.00000  Uiso   1.00
H1218  H     0.35882   0.11062   0.83006   0.00000  Uiso   1.00
H1219  H     0.65255   0.06663   0.82670   0.00000  Uiso   1.00
H1220  H     0.62518   0.12951   0.81790   0.00000  Uiso   1.00
N1221  N     0.56868   0.08720   0.58017   0.00000  Uiso   1.00
N1222  N     0.58206   0.11172   0.91293   0.00000  Uiso   1.00
N1223  N     0.58053   0.07464   0.98506   0.00000  Uiso   1.00
N1224  N     0.48484   0.20048   0.58476   0.00000  Uiso   1.00
N1225  N     0.40512   0.21874   0.92043   0.00000  Uiso   1.00
N1226  N     0.35457   0.20868   0.71274   0.00000  Uiso   1.00
O1227  O     0.50000   0.16667   0.75000   0.00000  Uiso   1.00
O1228  O     0.48784   0.12637   0.65458   0.00000  Uiso   1.00
O1229  O     0.46274   0.20391   0.84968   0.00000  Uiso   1.00
O1230  O     0.54157   0.17759   0.64606   0.00000  Uiso   1.00
O1231  O     0.50785   0.15880   0.84968   0.00000  Uiso   1.00
O1232  O     0.51264   0.08019   0.78213   0.00000  Uiso   1.00
O1233  O     0.47965   0.26085   0.77013   0.00000  Uiso   1.00
O1234  O     0.40745   0.13291   0.73413   0.00000  Uiso   1.00
O1235  O     0.60026   0.19272   0.71360   0.00000  Uiso   1.00
O1236  O     0.40405   0.18878   0.78213   0.00000  Uiso   1.00
O1237  O     0.58824   0.15226   0.77013   0.00000  Uiso   1.00
O1238  O     0.47093   0.06944   0.73413   0.00000  Uiso   1.00
O1239  O     0.53678   0.25620   0.71360   0.00000  Uiso   1.00
Zn1240 Zn    0.52672   0.13994   0.78734   0.00000  Uiso   1.00
Zn1241 Zn    0.46713   0.12458   0.71875   0.00000  Uiso   1.00
Zn1242 Zn    0.54389   0.19775   0.70657   0.00000  Uiso   1.00
Zn1243 Zn    0.46226   0.20439   0.78733   0.00000  Uiso   1.00
C1244  C     0.71998   0.15984   0.75912   0.00000  Uiso   1.00
C1245  C     0.83646   0.16471   0.56094   0.00000  Uiso   1.00
C1246  C     0.88277   0.11129   0.55714   0.00000  Uiso   1.00
C1247  C     0.94734   0.17371   0.74035   0.00000  Uiso   1.00
C1248  C     0.80534   0.19242   0.92089   0.00000  Uiso   1.00
C1249  C     0.99282   0.17842   0.73960   0.00000  Uiso   1.00
C1250  C     0.67482   0.15439   0.76347   0.00000  Uiso   1.00
C1251  C     0.84403   0.32238   0.73409   0.00000  Uiso   1.00
C1252  C     0.81791   0.01268   0.76585   0.00000  Uiso   1.00
C1253  C     0.82250   0.05631   0.76064   0.00000  Uiso   1.00
C1254  C     0.84266   0.27790   0.73955   0.00000  Uiso   1.00
C1255  C     0.75035   0.20215   0.99112   0.00000  Uiso   1.00
C1256  C     0.85209   0.14793   0.62959   0.00000  Uiso   1.00
C1257  C     0.81529   0.18507   0.87107   0.00000  Uiso   1.00
C1258  C     0.88926   0.10583   0.51018   0.00000  Uiso   1.00
C1259  C     0.85783   0.14165   0.58156   0.00000  Uiso   1.00
C1260  C     0.76517   0.20557   0.94448   0.00000  Uiso   1.00
C1261  C     0.94292   0.10619   0.58740   0.00000  Uiso   1.00
C1262  C     0.98219   0.11747   0.78877   0.00000  Uiso   1.00
C1263  C     0.67449   0.09112   0.80734   0.00000  Uiso   1.00
C1264  C     0.87432   0.00985   0.69308   0.00000  Uiso   1.00
C1265  C     0.90047   0.31598   0.65573   0.00000  Uiso   1.00
C1266  C     0.77523   0.18550   0.51332   0.00000  Uiso   1.00
C1267  C     0.78642   0.33075   0.80881   0.00000  Uiso   1.00
C1268  C     0.76313   0.03083   0.84053   0.00000  Uiso   1.00
C1269  C     0.89527   0.08300   0.88312   0.00000  Uiso   1.00
C1270  C     0.88920   0.03476   0.97863   0.00000  Uiso   1.00
C1271  C     0.78194   0.19445   0.62322   0.00000  Uiso   1.00
C1272  C     0.74174   0.26315   0.91857   0.00000  Uiso   1.00
C1273  C     0.70712   0.21359   0.51827   0.00000  Uiso   1.00
C1274  C     0.71218   0.25206   0.55028   0.00000  Uiso   1.00
C1275  C     0.90526   0.19639   0.89035   0.00000  Uiso   1.00
C1276  C     0.94203   0.21926   0.90915   0.00000  Uiso   1.00
C1277  C     0.81645   0.17576   0.99167   0.00000  Uiso   1.00
C1278  C     0.69071   0.25007   0.73486   0.00000  Uiso   1.00
C1279  C     0.83227   0.18056   0.94537   0.00000  Uiso   1.00
C1280  C     0.84111   0.15779   0.51425   0.00000  Uiso   1.00
C1281  C     0.87196   0.13241   0.98835   0.00000  Uiso   1.00
C1282  C     0.88718   0.13789   0.94199   0.00000  Uiso   1.00
C1283  C     0.87366   0.16999   0.92474   0.00000  Uiso   1.00
H1284  H     0.76056   0.17787   0.54724   0.00000  Uiso   1.00
H1285  H     0.96553   0.09632   0.76626   0.00000  Uiso   1.00
H1286  H     0.92504   0.30359   0.66764   0.00000  Uiso   1.00
H1287  H     0.87930   0.29049   0.64260   0.00000  Uiso   1.00
H1288  H     0.91761   0.00185   0.62756   0.00000  Uiso   1.00
H1289  H     0.85488   0.02516   0.67670   0.00000  Uiso   1.00
H1290  H     0.89713   0.03446   0.70508   0.00000  Uiso   1.00
H1291  H     0.78621   0.05428   0.85356   0.00000  Uiso   1.00
H1292  H     0.74476   0.04629   0.82308   0.00000  Uiso   1.00
H1293  H     0.74035   0.01619   0.86953   0.00000  Uiso   1.00
H1294  H     0.76116   0.30732   0.79947   0.00000  Uiso   1.00
H1295  H     0.90211   0.05643   0.56854   0.00000  Uiso   1.00
H1296  H     0.80393   0.31666   0.82842   0.00000  Uiso   1.00
H1297  H     0.94436   0.12689   0.89680   0.00000  Uiso   1.00
H1298  H     0.91569   0.05829   0.86832   0.00000  Uiso   1.00
H1299  H     0.89032   0.09943   0.85586   0.00000  Uiso   1.00
H1300  H     0.86374   0.06797   0.90153   0.00000  Uiso   1.00
H1301  H     0.94126   0.07225   0.99464   0.00000  Uiso   1.00
H1302  H     0.90928   0.01469   0.95295   0.00000  Uiso   1.00
H1303  H     0.86064   0.03839   0.96707   0.00000  Uiso   1.00
H1304  H     0.87842   0.01917   0.51036   0.00000  Uiso   1.00
H1305  H     0.84033   0.22557   0.58924   0.00000  Uiso   1.00
H1306  H     0.96709   0.10946   0.55491   0.00000  Uiso   1.00
H1307  H     0.79242   0.20157   0.65487   0.00000  Uiso   1.00
H1308  H     0.76520   0.16226   0.62205   0.00000  Uiso   1.00
H1309  H     0.75894   0.21617   0.62343   0.00000  Uiso   1.00
H1310  H     0.70776   0.20355   0.92589   0.00000  Uiso   1.00
H1311  H     0.72835   0.27824   0.95219   0.00000  Uiso   1.00
H1312  H     0.77566   0.27642   0.90613   0.00000  Uiso   1.00
H1313  H     0.72350   0.26982   0.89513   0.00000  Uiso   1.00
H1314  H     0.72970   0.24632   0.57469   0.00000  Uiso   1.00
H1315  H     0.72988   0.27881   0.53131   0.00000  Uiso   1.00
H1316  H     0.68016   0.26008   0.56911   0.00000  Uiso   1.00
H1317  H     0.95399   0.08645   0.60782   0.00000  Uiso   1.00
H1318  H     0.68652   0.21984   0.99723   0.00000  Uiso   1.00
H1319  H     0.68943   0.18718   0.53791   0.00000  Uiso   1.00
H1320  H     0.96058   0.19720   0.91809   0.00000  Uiso   1.00
H1321  H     0.96403   0.23882   0.88358   0.00000  Uiso   1.00
H1322  H     0.92941   0.23964   0.93947   0.00000  Uiso   1.00
H1323  H     0.91818   0.17696   0.85961   0.00000  Uiso   1.00
H1324  H     0.88975   0.22066   0.88070   0.00000  Uiso   1.00
H1325  H     0.68256   0.20856   0.68138   0.00000  Uiso   1.00
H1326  H     0.71570   0.27081   0.71306   0.00000  Uiso   1.00
H1327  H     0.69958   0.24994   0.76706   0.00000  Uiso   1.00
H1328  H     0.94028   0.13726   0.60571   0.00000  Uiso   1.00
H1329  H     0.99297   0.26250   0.74141   0.00000  Uiso   1.00
H1330  H     0.69708   0.07529   0.77968   0.00000  Uiso   1.00
H1331  H     0.69215   0.11062   0.83006   0.00000  Uiso   1.00
H1332  H     0.98588   0.06663   0.82670   0.00000  Uiso   1.00
H1333  H     0.95851   0.12951   0.81790   0.00000  Uiso   1.00
N1334  N     0.90201   0.08720   0.58017   0.00000  Uiso   1.00
N1335  N     0.91540   0.11172   0.91293   0.00000  Uiso   1.00
N1336  N     0.91387   0.07464   0.98506   0.00000  Uiso   1.00
N1337  N     0.81818   0.20048   0.58476   0.00000  Uiso   1.00
N1338  N     0.73845   0.21874   0.92043   0.00000  Uiso   1.00
N1339  N     0.68790   0.20868   0.71274   0.00000  Uiso   1.00
O1340  O     0.83333   0.16667   0.75000   0.00000  Uiso   1.00
O1341  O     0.82118   0.12637   0.65458   0.00000  Uiso   1.00
O1342  O     0.79607   0.20391   0.84968   0.00000  Uiso   1.00
O1343  O     0.87491   0.17759   0.64606   0.00000  Uiso   1.00
O1344  O     0.84118   0.15880   0.84968   0.00000  Uiso   1.00
O1345  O     0.84597   0.08019   0.78213   0.00000  Uiso   1.00
O1346  O     0.81298   0.26085   0.77013   0.00000  Uiso   1.00
O1347  O     0.74078   0.13291   0.73413   0.00000  Uiso   1.00
O1348  O     0.93360   0.19272   0.71360   0.00000  Uiso   1.00
O1349  O     0.73738   0.18878   0.78213   0.00000  Uiso   1.00
O1350  O     0.92158   0.15226   0.77013   0.00000  Uiso   1.00
O1351  O     0.80426   0.06944   0.73413   0.00000  Uiso   1.00
O1352  O     0.87012   0.25620   0.71360   0.00000  Uiso   1.00
Zn1353 Zn    0.86005   0.13994   0.78734   0.00000  Uiso   1.00
Zn1354 Zn    0.80046   0.12458   0.71875   0.00000  Uiso   1.00
Zn1355 Zn    0.87723   0.19775   0.70657   0.00000  Uiso   1.00
Zn1356 Zn    0.79560   0.20439   0.78733   0.00000  Uiso   1.00
C1357  C     0.05331   0.49318   0.75912   0.00000  Uiso   1.00
C1358  C     0.16979   0.49805   0.56094   0.00000  Uiso   1.00
C1359  C     0.21610   0.44462   0.55714   0.00000  Uiso   1.00
C1360  C     0.28068   0.50704   0.74035   0.00000  Uiso   1.00
C1361  C     0.13867   0.52575   0.92089   0.00000  Uiso   1.00
C1362  C     0.32615   0.51175   0.73960   0.00000  Uiso   1.00
C1363  C     0.00815   0.48772   0.76347   0.00000  Uiso   1.00
C1364  C     0.17737   0.65571   0.73409   0.00000  Uiso   1.00
C1365  C     0.15124   0.34601   0.76585   0.00000  Uiso   1.00
C1366  C     0.15583   0.38964   0.76064   0.00000  Uiso   1.00
C1367  C     0.17600   0.61123   0.73955   0.00000  Uiso   1.00
C1368  C     0.08369   0.53548   0.99112   0.00000  Uiso   1.00
C1369  C     0.18542   0.48126   0.62959   0.00000  Uiso   1.00
C1370  C     0.14862   0.51841   0.87107   0.00000  Uiso   1.00
C1371  C     0.22260   0.43916   0.51018   0.00000  Uiso   1.00
C1372  C     0.19116   0.47498   0.58156   0.00000  Uiso   1.00
C1373  C     0.09851   0.53891   0.94448   0.00000  Uiso   1.00
C1374  C     0.27625   0.43952   0.58740   0.00000  Uiso   1.00
C1375  C     0.31552   0.45080   0.78877   0.00000  Uiso   1.00
C1376  C     0.00782   0.42445   0.80734   0.00000  Uiso   1.00
C1377  C     0.20765   0.34319   0.69308   0.00000  Uiso   1.00
C1378  C     0.23381   0.64932   0.65573   0.00000  Uiso   1.00
C1379  C     0.10856   0.51884   0.51332   0.00000  Uiso   1.00
C1380  C     0.11975   0.66408   0.80881   0.00000  Uiso   1.00
C1381  C     0.09646   0.36416   0.84053   0.00000  Uiso   1.00
C1382  C     0.22860   0.41634   0.88312   0.00000  Uiso   1.00
C1383  C     0.22253   0.36809   0.97863   0.00000  Uiso   1.00
C1384  C     0.11527   0.52779   0.62322   0.00000  Uiso   1.00
C1385  C     0.07507   0.59648   0.91857   0.00000  Uiso   1.00
C1386  C     0.04046   0.54692   0.51827   0.00000  Uiso   1.00
C1387  C     0.04552   0.58540   0.55028   0.00000  Uiso   1.00
C1388  C     0.23859   0.52972   0.89035   0.00000  Uiso   1.00
C1389  C     0.27537   0.55259   0.90915   0.00000  Uiso   1.00
C1390  C     0.14978   0.50910   0.99167   0.00000  Uiso   1.00
C1391  C     0.02405   0.58340   0.73486   0.00000  Uiso   1.00
C1392  C     0.16560   0.51389   0.94537   0.00000  Uiso   1.00
C1393  C     0.17444   0.49112   0.51425   0.00000  Uiso   1.00
C1394  C     0.20529   0.46575   0.98835   0.00000  Uiso   1.00
C1395  C     0.22052   0.47122   0.94199   0.00000  Uiso   1.00
C1396  C     0.20699   0.50333   0.92474   0.00000  Uiso   1.00
H1397  H     0.09389   0.51120   0.54724   0.00000  Uiso   1.00
H1398  H     0.29886   0.42965   0.76626   0.00000  Uiso   1.00
H1399  H     0.25837   0.63692   0.66764   0.00000  Uiso   1.00
H1400  H     0.21263   0.62383   0.64260   0.00000  Uiso   1.00
H1401  H     0.25095   0.33518   0.62756   0.00000  Uiso   1.00
H1402  H     0.18821   0.35850   0.67670   0.00000  Uiso   1.00
H1403  H     0.23046   0.36779   0.70508   0.00000  Uiso   1.00
H1404  H     0.11954   0.38761   0.85356   0.00000  Uiso   1.00
H1405  H     0.07809   0.37962   0.82308   0.00000  Uiso   1.00
H1406  H     0.07368   0.34952   0.86953   0.00000  Uiso   1.00
H1407  H     0.09449   0.64065   0.79947   0.00000  Uiso   1.00
H1408  H     0.23544   0.38976   0.56854   0.00000  Uiso   1.00
H1409  H     0.13727   0.64999   0.82842   0.00000  Uiso   1.00
H1410  H     0.27769   0.46022   0.89680   0.00000  Uiso   1.00
H1411  H     0.24902   0.39162   0.86832   0.00000  Uiso   1.00
H1412  H     0.22365   0.43276   0.85586   0.00000  Uiso   1.00
H1413  H     0.19707   0.40130   0.90153   0.00000  Uiso   1.00
H1414  H     0.27459   0.40559   0.99464   0.00000  Uiso   1.00
H1415  H     0.24262   0.34803   0.95295   0.00000  Uiso   1.00
H1416  H     0.19398   0.37172   0.96707   0.00000  Uiso   1.00
H1417  H     0.21176   0.35250   0.51036   0.00000  Uiso   1.00
H1418  H     0.17366   0.55890   0.58924   0.00000  Uiso   1.00
H1419  H     0.30042   0.44279   0.55491   0.00000  Uiso   1.00
H1420  H     0.12576   0.53490   0.65487   0.00000  Uiso   1.00
H1421  H     0.09854   0.49559   0.62205   0.00000  Uiso   1.00
H1422  H     0.09228   0.54950   0.62343   0.00000  Uiso   1.00
H1423  H     0.04109   0.53688   0.92589   0.00000  Uiso   1.00
H1424  H     0.06169   0.61157   0.95219   0.00000  Uiso   1.00
H1425  H     0.10899   0.60975   0.90613   0.00000  Uiso   1.00
H1426  H     0.05683   0.60315   0.89513   0.00000  Uiso   1.00
H1427  H     0.06304   0.57966   0.57469   0.00000  Uiso   1.00
H1428  H     0.06321   0.61215   0.53131   0.00000  Uiso   1.00
H1429  H     0.01349   0.59342   0.56911   0.00000  Uiso   1.00
H1430  H     0.28732   0.41978   0.60782   0.00000  Uiso   1.00
H1431  H     0.01985   0.55318   0.99723   0.00000  Uiso   1.00
H1432  H     0.02277   0.52051   0.53791   0.00000  Uiso   1.00
H1433  H     0.29391   0.53053   0.91809   0.00000  Uiso   1.00
H1434  H     0.29736   0.57215   0.88358   0.00000  Uiso   1.00
H1435  H     0.26274   0.57297   0.93947   0.00000  Uiso   1.00
H1436  H     0.25151   0.51030   0.85961   0.00000  Uiso   1.00
H1437  H     0.22309   0.55400   0.88070   0.00000  Uiso   1.00
H1438  H     0.01589   0.54189   0.68138   0.00000  Uiso   1.00
H1439  H     0.04903   0.60414   0.71306   0.00000  Uiso   1.00
H1440  H     0.03291   0.58328   0.76706   0.00000  Uiso   1.00
H1441  H     0.27361   0.47059   0.60571   0.00000  Uiso   1.00
H1442  H     0.32631   0.59583   0.74141   0.00000  Uiso   1.00
H1443  H     0.03041   0.40862   0.77968   0.00000  Uiso   1.00
H1444  H     0.02549   0.44395   0.83006   0.00000  Uiso   1.00
H1445  H     0.31922   0.39996   0.82670   0.00000  Uiso   1.00
H1446  H     0.29185   0.46284   0.81790   0.00000  Uiso   1.00
N1447  N     0.23534   0.42054   0.58017   0.00000  Uiso   1.00
N1448  N     0.24873   0.44506   0.91293   0.00000  Uiso   1.00
N1449  N     0.24720   0.40797   0.98506   0.00000  Uiso   1.00
N1450  N     0.15151   0.53381   0.58476   0.00000  Uiso   1.00
N1451  N     0.07179   0.55208   0.92043   0.00000  Uiso   1.00
N1452  N     0.02124   0.54201   0.71274   0.00000  Uiso   1.00
O1453  O     0.16667   0.50000   0.75000   0.00000  Uiso   1.00
O1454  O     0.15451   0.45970   0.65458   0.00000  Uiso   1.00
O1455  O     0.12940   0.53724   0.84968   0.00000  Uiso   1.00
O1456  O     0.20824   0.51092   0.64606   0.00000  Uiso   1.00
O1457  O     0.17451   0.49213   0.84968   0.00000  Uiso   1.00
O1458  O     0.17930   0.41352   0.78213   0.00000  Uiso   1.00
O1459  O     0.14632   0.59418   0.77013   0.00000  Uiso   1.00
O1460  O     0.07412   0.46625   0.73413   0.00000  Uiso   1.00
O1461  O     0.26693   0.52605   0.71360   0.00000  Uiso   1.00
O1462  O     0.07071   0.52211   0.78213   0.00000  Uiso   1.00
O1463  O     0.25491   0.48559   0.77013   0.00000  Uiso   1.00
O1464  O     0.13760   0.40277   0.73413   0.00000  Uiso   1.00
O1465  O     0.20345   0.58953   0.71360   0.00000  Uiso   1.00
Zn1466 Zn    0.19338   0.47327   0.78734   0.00000  Uiso   1.00
Zn1467 Zn    0.13379   0.45791   0.71875   0.00000  Uiso   1.00
Zn1468 Zn    0.21056   0.53109   0.70657   0.00000  Uiso   1.00
Zn1469 Zn    0.12893   0.53773   0.78733   0.00000  Uiso   1.00
C1470  C     0.38665   0.49318   0.75912   0.00000  Uiso   1.00
C1471  C     0.50312   0.49805   0.56094   0.00000  Uiso   1.00
C1472  C     0.54944   0.44462   0.55714   0.00000  Uiso   1.00
C1473  C     0.61401   0.50704   0.74035   0.00000  Uiso   1.00
C1474  C     0.47201   0.52575   0.92089   0.00000  Uiso   1.00
C1475  C     0.65948   0.51175   0.73960   0.00000  Uiso   1.00
C1476  C     0.34149   0.48772   0.76347   0.00000  Uiso   1.00
C1477  C     0.51070   0.65571   0.73409   0.00000  Uiso   1.00
C1478  C     0.48457   0.34601   0.76585   0.00000  Uiso   1.00
C1479  C     0.48917   0.38964   0.76064   0.00000  Uiso   1.00
C1480  C     0.50933   0.61123   0.73955   0.00000  Uiso   1.00
C1481  C     0.41702   0.53548   0.99112   0.00000  Uiso   1.00
C1482  C     0.51876   0.48126   0.62959   0.00000  Uiso   1.00
C1483  C     0.48195   0.51841   0.87107   0.00000  Uiso   1.00
C1484  C     0.55593   0.43916   0.51018   0.00000  Uiso   1.00
C1485  C     0.52449   0.47498   0.58156   0.00000  Uiso   1.00
C1486  C     0.43184   0.53891   0.94448   0.00000  Uiso   1.00
C1487  C     0.60958   0.43952   0.58740   0.00000  Uiso   1.00
C1488  C     0.64885   0.45080   0.78877   0.00000  Uiso   1.00
C1489  C     0.34115   0.42445   0.80734   0.00000  Uiso   1.00
C1490  C     0.54098   0.34319   0.69308   0.00000  Uiso   1.00
C1491  C     0.56714   0.64932   0.65573   0.00000  Uiso   1.00
C1492  C     0.44189   0.51884   0.51332   0.00000  Uiso   1.00
C1493  C     0.45309   0.66408   0.80881   0.00000  Uiso   1.00
C1494  C     0.42979   0.36416   0.84053   0.00000  Uiso   1.00
C1495  C     0.56194   0.41634   0.88312   0.00000  Uiso   1.00
C1496  C     0.55586   0.36809   0.97863   0.00000  Uiso   1.00
C1497  C     0.44861   0.52779   0.62322   0.00000  Uiso   1.00
C1498  C     0.40840   0.59648   0.91857   0.00000  Uiso   1.00
C1499  C     0.37379   0.54692   0.51827   0.00000  Uiso   1.00
C1500  C     0.37885   0.58540   0.55028   0.00000  Uiso   1.00
C1501  C     0.57192   0.52972   0.89035   0.00000  Uiso   1.00
C1502  C     0.60870   0.55259   0.90915   0.00000  Uiso   1.00
C1503  C     0.48311   0.50910   0.99167   0.00000  Uiso   1.00
C1504  C     0.35738   0.58340   0.73486   0.00000  Uiso   1.00
C1505  C     0.49893   0.51389   0.94537   0.00000  Uiso   1.00
C1506  C     0.50777   0.49112   0.51425   0.00000  Uiso   1.00
C1507  C     0.53862   0.46575   0.98835   0.00000  Uiso   1.00
C1508  C     0.55385   0.47122   0.94199   0.00000  Uiso   1.00
C1509  C     0.54032   0.50333   0.92474   0.00000  Uiso   1.00
H1510  H     0.42723   0.51120   0.54724   0.00000  Uiso   1.00
H1511  H     0.63220   0.42965   0.76626   0.00000  Uiso   1.00
H1512  H     0.59170   0.63692   0.66764   0.00000  Uiso   1.00
H1513  H     0.54597   0.62383   0.64260   0.00000  Uiso   1.00
H1514  H     0.58428   0.33518   0.62756   0.00000  Uiso   1.00
H1515  H     0.52154   0.35850   0.67670   0.00000  Uiso   1.00
H1516  H     0.56380   0.36779   0.70508   0.00000  Uiso   1.00
H1517  H     0.45288   0.38761   0.85356   0.00000  Uiso   1.00
H1518  H     0.41142   0.37962   0.82308   0.00000  Uiso   1.00
H1519  H     0.40701   0.34952   0.86953   0.00000  Uiso   1.00
H1520  H     0.42782   0.64065   0.79947   0.00000  Uiso   1.00
H1521  H     0.56878   0.38976   0.56854   0.00000  Uiso   1.00
H1522  H     0.47060   0.64999   0.82842   0.00000  Uiso   1.00
H1523  H     0.61103   0.46022   0.89680   0.00000  Uiso   1.00
H1524  H     0.58236   0.39162   0.86832   0.00000  Uiso   1.00
H1525  H     0.55698   0.43276   0.85586   0.00000  Uiso   1.00
H1526  H     0.53040   0.40130   0.90153   0.00000  Uiso   1.00
H1527  H     0.60793   0.40559   0.99464   0.00000  Uiso   1.00
H1528  H     0.57595   0.34803   0.95295   0.00000  Uiso   1.00
H1529  H     0.52731   0.37172   0.96707   0.00000  Uiso   1.00
H1530  H     0.54509   0.35250   0.51036   0.00000  Uiso   1.00
H1531  H     0.50700   0.55890   0.58924   0.00000  Uiso   1.00
H1532  H     0.63376   0.44279   0.55491   0.00000  Uiso   1.00
H1533  H     0.45909   0.53490   0.65487   0.00000  Uiso   1.00
H1534  H     0.43187   0.49559   0.62205   0.00000  Uiso   1.00
H1535  H     0.42561   0.54950   0.62343   0.00000  Uiso   1.00
H1536  H     0.37442   0.53688   0.92589   0.00000  Uiso   1.00
H1537  H     0.39502   0.61157   0.95219   0.00000  Uiso   1.00
H1538  H     0.44232   0.60975   0.90613   0.00000  Uiso   1.00
H1539  H     0.39017   0.60315   0.89513   0.00000  Uiso   1.00
H1540  H     0.39637   0.57966   0.57469   0.00000  Uiso   1.00
H1541  H     0.39655   0.61215   0.53131   0.00000  Uiso   1.00
H1542  H     0.34682   0.59342   0.56911   0.00000  Uiso   1.00
H1543  H     0.62066   0.41978   0.60782   0.00000  Uiso   1.00
H1544  H     0.35318   0.55318   0.99723   0.00000  Uiso   1.00
H1545  H     0.35610   0.52051   0.53791   0.00000  Uiso   1.00
H1546  H     0.62724   0.53053   0.91809   0.00000  Uiso   1.00
H1547  H     0.63069   0.57215   0.88358   0.00000  Uiso   1.00
H1548  H     0.59608   0.57297   0.93947   0.00000  Uiso   1.00
H1549  H     0.58484   0.51030   0.85961   0.00000  Uiso   1.00
H1550  H     0.55642   0.55400   0.88070   0.00000  Uiso   1.00
H1551  H     0.34923   0.54189   0.68138   0.00000  Uiso   1.00
H1552  H     0.38237   0.60414   0.71306   0.00000  Uiso   1.00
H1553  H     0.36625   0.58328   0.76706   0.00000  Uiso   1.00
H1554  H     0.60694   0.47059   0.60571   0.00000  Uiso   1.00
H1555  H     0.65964   0.59583   0.74141   0.00000  Uiso   1.00
H1556  H     0.36374   0.40862   0.77968   0.00000  Uiso   1.00
H1557  H     0.35882   0.44395   0.83006   0.00000  Uiso   1.00
H1558  H     0.65255   0.39996   0.82670   0.00000  Uiso   1.00
H1559  H     0.62518   0.46284   0.81790   0.00000  Uiso   1.00
N1560  N     0.56868   0.42054   0.58017   0.00000  Uiso   1.00
N1561  N     0.58206   0.44506   0.91293   0.00000  Uiso   1.00
N1562  N     0.58053   0.40797   0.98506   0.00000  Uiso   1.00
N1563  N     0.48484   0.53381   0.58476   0.00000  Uiso   1.00
N1564  N     0.40512   0.55208   0.92043   0.00000  Uiso   1.00
N1565  N     0.35457   0.54201   0.71274   0.00000  Uiso   1.00
O1566  O     0.50000   0.50000   0.75000   0.00000  Uiso   1.00
O1567  O     0.48784   0.45970   0.65458   0.00000  Uiso   1.00
O1568  O     0.46274   0.53724   0.84968   0.00000  Uiso   1.00
O1569  O     0.54157   0.51092   0.64606   0.00000  Uiso   1.00
O1570  O     0.50785   0.49213   0.84968   0.00000  Uiso   1.00
O1571  O     0.51264   0.41352   0.78213   0.00000  Uiso   1.00
O1572  O     0.47965   0.59418   0.77013   0.00000  Uiso   1.00
O1573  O     0.40745   0.46625   0.73413   0.00000  Uiso   1.00
O1574  O     0.60026   0.52605   0.71360   0.00000  Uiso   1.00
O1575  O     0.40405   0.52211   0.78213   0.00000  Uiso   1.00
O1576  O     0.58824   0.48559   0.77013   0.00000  Uiso   1.00
O1577  O     0.47093   0.40277   0.73413   0.00000  Uiso   1.00
O1578  O     0.53678   0.58953   0.71360   0.00000  Uiso   1.00
Zn1579 Zn    0.52672   0.47327   0.78734   0.00000  Uiso   1.00
Zn1580 Zn    0.46713   0.45791   0.71875   0.00000  Uiso   1.00
Zn1581 Zn    0.54389   0.53109   0.70657   0.00000  Uiso   1.00
Zn1582 Zn    0.46226   0.53773   0.78733   0.00000  Uiso   1.00
C1583  C     0.71998   0.49318   0.75912   0.00000  Uiso   1.00
C1584  C     0.83646   0.49805   0.56094   0.00000  Uiso   1.00
C1585  C     0.88277   0.44462   0.55714   0.00000  Uiso   1.00
C1586  C     0.94734   0.50704   0.74035   0.00000  Uiso   1.00
C1587  C     0.80534   0.52575   0.92089   0.00000  Uiso   1.00
C1588  C     0.99282   0.51175   0.73960   0.00000  Uiso   1.00
C1589  C     0.67482   0.48772   0.76347   0.00000  Uiso   1.00
C1590  C     0.84403   0.65571   0.73409   0.00000  Uiso   1.00
C1591  C     0.81791   0.34601   0.76585   0.00000  Uiso   1.00
C1592  C     0.82250   0.38964   0.76064   0.00000  Uiso   1.00
C1593  C     0.84266   0.61123   0.73955   0.00000  Uiso   1.00
C1594  C     0.75035   0.53548   0.99112   0.00000  Uiso   1.00
C1595  C     0.85209   0.48126   0.62959   0.00000  Uiso   1.00
C1596  C     0.81529   0.51841   0.87107   0.00000  Uiso   1.00
C1597  C     0.88926   0.43916   0.51018   0.00000  Uiso   1.00
C1598  C     0.85783   0.47498   0.58156   0.00000  Uiso   1.00
C1599  C     0.76517   0.53891   0.94448   0.00000  Uiso   1.00
C1600  C     0.94292   0.43952   0.58740   0.00000  Uiso   1.00
C1601  C     0.98219   0.45080   0.78877   0.00000  Uiso   1.00
C1602  C     0.67449   0.42445   0.80734   0.00000  Uiso   1.00
C1603  C     0.87432   0.34319   0.69308   0.00000  Uiso   1.00
C1604  C     0.90047   0.64932   0.65573   0.00000  Uiso   1.00
C1605  C     0.77523   0.51884   0.51332   0.00000  Uiso   1.00
C1606  C     0.78642   0.66408   0.80881   0.00000  Uiso   1.00
C1607  C     0.76313   0.36416   0.84053   0.00000  Uiso   1.00
C1608  C     0.89527   0.41634   0.88312   0.00000  Uiso   1.00
C1609  C     0.88920   0.36809   0.97863   0.00000  Uiso   1.00
C1610  C     0.78194   0.52779   0.62322   0.00000  Uiso   1.00
C1611  C     0.74174   0.59648   0.91857   0.00000  Uiso   1.00
C1612  C     0.70712   0.54692   0.51827   0.00000  Uiso   1.00
C1613  C     0.71218   0.58540   0.55028   0.00000  Uiso   1.00
C1614  C     0.90526   0.52972   0.89035   0.00000  Uiso   1.00
C1615  C     0.94203   0.55259   0.90915   0.00000  Uiso   1.00
C1616  C     0.81645   0.50910   0.99167   0.00000  Uiso   1.00
C1617  C     0.69071   0.58340   0.73486   0.00000  Uiso   1.00
C1618  C     0.83227   0.51389   0.94537   0.00000  Uiso   1.00
C1619  C     0.84111   0.49112   0.51425   0.00000  Uiso   1.00
C1620  C     0.87196   0.46575   0.98835   0.00000  Uiso   1.00
C1621  C     0.88718   0.47122   0.94199   0.00000  Uiso   1.00
C1622  C     0.87366   0.50333   0.92474   0.00000  Uiso   1.00
H1623  H     0.76056   0.51120   0.54724   0.00000  Uiso   1.00
H1624  H     0.96553   0.42965   0.76626   0.00000  Uiso   1.00
H1625  H     0.92504   0.63692   0.66764   0.00000  Uiso   1.00
H1626  H     0.87930   0.62383   0.64260   0.00000  Uiso   1.00
H1627  H     0.91761   0.33518   0.62756   0.00000  Uiso   1.00
H1628  H     0.85488   0.35850   0.67670   0.00000  Uiso   1.00
H1629  H     0.89713   0.36779   0.70508   0.00000  Uiso   1.00
H1630  H     0.78621   0.38761   0.85356   0.00000  Uiso   1.00
H1631  H     0.74476   0.37962   0.82308   0.00000  Uiso   1.00
H1632  H     0.74035   0.34952   0.86953   0.00000  Uiso   1.00
H1633  H     0.76116   0.64065   0.79947   0.00000  Uiso   1.00
H1634  H     0.90211   0.38976   0.56854   0.00000  Uiso   1.00
H1635  H     0.80393   0.64999   0.82842   0.00000  Uiso   1.00
H1636  H     0.94436   0.46022   0.89680   0.00000  Uiso   1.00
H1637  H     0.91569   0.39162   0.86832   0.00000  Uiso   1.00
H1638  H     0.89032   0.43276   0.85586   0.00000  Uiso   1.00
H1639  H     0.86374   0.40130   0.90153   0.00000  Uiso   1.00
H1640  H     0.94126   0.40559   0.99464   0.00000  Uiso   1.00
H1641  H     0.90928   0.34803   0.95295   0.00000  Uiso   1.00
H1642  H     0.86064   0.37172   0.96707   0.00000  Uiso   1.00
H1643  H     0.87842   0.35250   0.51036   0.00000  Uiso   1.00
H1644  H     0.84033   0.55890   0.58924   0.00000  Uiso   1.00
H1645  H     0.96709   0.44279   0.55491   0.00000  Uiso   1.00
H1646  H     0.79242   0.53490   0.65487   0.00000  Uiso   1.00
H1647  H     0.76520   0.49559   0.62205   0.00000  Uiso   1.00
H1648  H     0.75894   0.54950   0.62343   0.00000  Uiso   1.00
H1649  H     0.70776   0.53688   0.92589   0.00000  Uiso   1.00
H1650  H     0.72835   0.61157   0.95219   0.00000  Uiso   1.00
H1651  H     0.77566   0.60975   0.90613   0.00000  Uiso   1.00
H1652  H     0.72350   0.60315   0.89513   0.00000  Uiso   1.00
H1653  H     0.72970   0.57966   0.57469   0.00000  Uiso   1.00
H1654  H     0.72988   0.61215   0.53131   0.00000  Uiso   1.00
H1655  H     0.68016   0.59342   0.56911   0.00000  Uiso   1.00
H1656  H     0.95399   0.41978   0.60782   0.00000  Uiso   1.00
H1657  H     0.68652   0.55318   0.99723   0.00000  Uiso   1.00
H1658  H     0.68943   0.52051   0.53791   0.00000  Uiso   1.00
H1659  H     0.96058   0.53053   0.91809   0.00000  Uiso   1.00
H1660  H     0.96403   0.57215   0.88358   0.00000  Uiso   1.00
H1661  H     0.92941   0.57297   0.93947   0.00000  Uiso   1.00
H1662  H     0.91818   0.51030   0.85961   0.00000  Uiso   1.00
H1663  H     0.88975   0.55400   0.88070   0.00000  Uiso   1.00
H1664  H     0.68256   0.54189   0.68138   0.00000  Uiso   1.00
H1665  H     0.71570   0.60414   0.71306   0.00000  Uiso   1.00
H1666  H     0.69958   0.58328   0.76706   0.00000  Uiso   1.00
H1667  H     0.94028   0.47059   0.60571   0.00000  Uiso   1.00
H1668  H     0.99297   0.59583   0.74141   0.00000  Uiso   1.00
H1669  H     0.69708   0.40862   0.77968   0.00000  Uiso   1.00
H1670  H     0.69215   0.44395   0.83006   0.00000  Uiso   1.00
H1671  H     0.98588   0.39996   0.82670   0.00000  Uiso   1.00
H1672  H     0.95851   0.46284   0.81790   0.00000  Uiso   1.00
N1673  N     0.90201   0.42054   0.58017   0.00000  Uiso   1.00
N1674  N     0.91540   0.44506   0.91293   0.00000  Uiso   1.00
N1675  N     0.91387   0.40797   0.98506   0.00000  Uiso   1.00
N1676  N     0.81818   0.53381   0.58476   0.00000  Uiso   1.00
N1677  N     0.73845   0.55208   0.92043   0.00000  Uiso   1.00
N1678  N     0.68790   0.54201   0.71274   0.00000  Uiso   1.00
O1679  O     0.83333   0.50000   0.75000   0.00000  Uiso   1.00
O1680  O     0.82118   0.45970   0.65458   0.00000  Uiso   1.00
O1681  O     0.79607   0.53724   0.84968   0.00000  Uiso   1.00
O1682  O     0.87491   0.51092   0.64606   0.00000  Uiso   1.00
O1683  O     0.84118   0.49213   0.84968   0.00000  Uiso   1.00
O1684  O     0.84597   0.41352   0.78213   0.00000  Uiso   1.00
O1685  O     0.81298   0.59418   0.77013   0.00000  Uiso   1.00
O1686  O     0.74078   0.46625   0.73413   0.00000  Uiso   1.00
O1687  O     0.93360   0.52605   0.71360   0.00000  Uiso   1.00
O1688  O     0.73738   0.52211   0.78213   0.00000  Uiso   1.00
O1689  O     0.92158   0.48559   0.77013   0.00000  Uiso   1.00
O1690  O     0.80426   0.40277   0.73413   0.00000  Uiso   1.00
O1691  O     0.87012   0.58953   0.71360   0.00000  Uiso   1.00
Zn1692 Zn    0.86005   0.47327   0.78734   0.00000  Uiso   1.00
Zn1693 Zn    0.80046   0.45791   0.71875   0.00000  Uiso   1.00
Zn1694 Zn    0.87723   0.53109   0.70657   0.00000  Uiso   1.00
Zn1695 Zn    0.79560   0.53773   0.78733   0.00000  Uiso   1.00
C1696  C     0.05331   0.82651   0.75912   0.00000  Uiso   1.00
C1697  C     0.16979   0.83138   0.56094   0.00000  Uiso   1.00
C1698  C     0.21610   0.77796   0.55714   0.00000  Uiso   1.00
C1699  C     0.28068   0.84038   0.74035   0.00000  Uiso   1.00
C1700  C     0.13867   0.85909   0.92089   0.00000  Uiso   1.00
C1701  C     0.32615   0.84508   0.73960   0.00000  Uiso   1.00
C1702  C     0.00815   0.82106   0.76347   0.00000  Uiso   1.00
C1703  C     0.17737   0.98905   0.73409   0.00000  Uiso   1.00
C1704  C     0.15124   0.67935   0.76585   0.00000  Uiso   1.00
C1705  C     0.15583   0.72298   0.76064   0.00000  Uiso   1.00
C1706  C     0.17600   0.94457   0.73955   0.00000  Uiso   1.00
C1707  C     0.08369   0.86881   0.99112   0.00000  Uiso   1.00
C1708  C     0.18542   0.81459   0.62959   0.00000  Uiso   1.00
C1709  C     0.14862   0.85174   0.87107   0.00000  Uiso   1.00
C1710  C     0.22260   0.77249   0.51018   0.00000  Uiso   1.00
C1711  C     0.19116   0.80831   0.58156   0.00000  Uiso   1.00
C1712  C     0.09851   0.87224   0.94448   0.00000  Uiso   1.00
C1713  C     0.27625   0.77286   0.58740   0.00000  Uiso   1.00
C1714  C     0.31552   0.78413   0.78877   0.00000  Uiso   1.00
C1715  C     0.00782   0.75779   0.80734   0.00000  Uiso   1.00
C1716  C     0.20765   0.67652   0.69308   0.00000  Uiso   1.00
C1717  C     0.23381   0.98265   0.65573   0.00000  Uiso   1.00
C1718  C     0.10856   0.85217   0.51332   0.00000  Uiso   1.00
C1719  C     0.11975   0.99742   0.80881   0.00000  Uiso   1.00
C1720  C     0.09646   0.69750   0.84053   0.00000  Uiso   1.00
C1721  C     0.22860   0.74967   0.88312   0.00000  Uiso   1.00
C1722  C     0.22253   0.70142   0.97863   0.00000  Uiso   1.00
C1723  C     0.11527   0.86112   0.62322   0.00000  Uiso   1.00
C1724  C     0.07507   0.92982   0.91857   0.00000  Uiso   1.00
C1725  C     0.04046   0.88025   0.51827   0.00000  Uiso   1.00
C1726  C     0.04552   0.91873   0.55028   0.00000  Uiso   1.00
C1727  C     0.23859   0.86305   0.89035   0.00000  Uiso   1.00
C1728  C     0.27537   0.88593   0.90915   0.00000  Uiso   1.00
C1729  C     0.14978   0.84243   0.99167   0.00000  Uiso   1.00
C1730  C     0.02405   0.91673   0.73486   0.00000  Uiso   1.00
C1731  C     0.16560   0.84723   0.94537   0.00000  Uiso   1.00
C1732  C     0.17444   0.82445   0.51425   0.00000  Uiso   1.00
C1733  C     0.20529   0.79908   0.98835   0.00000  Uiso   1.00
C1734  C     0.22052   0.80455   0.94199   0.00000  Uiso   1.00
C1735  C     0.20699   0.83666   0.92474   0.00000  Uiso   1.00
H1736  H     0.09389   0.84453   0.54724   0.00000  Uiso   1.00
H1737  H     0.29886   0.76299   0.76626   0.00000  Uiso   1.00
H1738  H     0.25837   0.97025   0.66764   0.00000  Uiso   1.00
H1739  H     0.21263   0.95716   0.64260   0.00000  Uiso   1.00
H1740  H     0.25095   0.66851   0.62756   0.00000  Uiso   1.00
H1741  H     0.18821   0.69183   0.67670   0.00000  Uiso   1.00
H1742  H     0.23046   0.70112   0.70508   0.00000  Uiso   1.00
H1743  H     0.11954   0.72095   0.85356   0.00000  Uiso   1.00
H1744  H     0.07809   0.71295   0.82308   0.00000  Uiso   1.00
H1745  H     0.07368   0.68285   0.86953   0.00000  Uiso   1.00
H1746  H     0.09449   0.97398   0.79947   0.00000  Uiso   1.00
H1747  H     0.23544   0.72310   0.56854   0.00000  Uiso   1.00
H1748  H     0.13727   0.98332   0.82842   0.00000  Uiso   1.00
H1749  H     0.27769   0.79355   0.89680   0.00000  Uiso   1.00
H1750  H     0.24902   0.72495   0.86832   0.00000  Uiso   1.00
H1751  H     0.22365   0.76609   0.85586   0.00000  Uiso   1.00
H1752  H     0.19707   0.73463   0.90153   0.00000  Uiso   1.00
H1753  H     0.27459   0.73892   0.99464   0.00000  Uiso   1.00
H1754  H     0.24262   0.68136   0.95295   0.00000  Uiso   1.00
H1755  H     0.19398   0.70506   0.96707   0.00000  Uiso   1.00
H1756  H     0.21176   0.68584   0.51036   0.00000  Uiso   1.00
H1757  H     0.17366   0.89223   0.58924   0.00000  Uiso   1.00
H1758  H     0.30042   0.77612   0.55491   0.00000  Uiso   1.00
H1759  H     0.12576   0.86823   0.65487   0.00000  Uiso   1.00
H1760  H     0.09854   0.82893   0.62205   0.00000  Uiso   1.00
H1761  H     0.09228   0.88284   0.62343   0.00000  Uiso   1.00
H1762  H     0.04109   0.87022   0.92589   0.00000  Uiso   1.00
H1763  H     0.06169   0.94490   0.95219   0.00000  Uiso   1.00
H1764  H     0.10899   0.94308   0.90613   0.00000  Uiso   1.00
H1765  H     0.05683   0.93649   0.89513   0.00000  Uiso   1.00
H1766  H     0.06304   0.91299   0.57469   0.00000  Uiso   1.00
H1767  H     0.06321   0.94548   0.53131   0.00000  Uiso   1.00
H1768  H     0.01349   0.92675   0.56911   0.00000  Uiso   1.00
H1769  H     0.28732   0.75311   0.60782   0.00000  Uiso   1.00
H1770  H     0.01985   0.88651   0.99723   0.00000  Uiso   1.00
H1771  H     0.02277   0.85384   0.53791   0.00000  Uiso   1.00
H1772  H     0.29391   0.86386   0.91809   0.00000  Uiso   1.00
H1773  H     0.29736   0.90548   0.88358   0.00000  Uiso   1.00
H1774  H     0.26274   0.90630   0.93947   0.00000  Uiso   1.00
H1775  H     0.25151   0.84363   0.85961   0.00000  Uiso   1.00
H1776  H     0.22309   0.88733   0.88070   0.00000  Uiso   1.00
H1777  H     0.01589   0.87522   0.68138   0.00000  Uiso   1.00
H1778  H     0.04903   0.93748   0.71306   0.00000  Uiso   1.00
H1779  H     0.03291   0.91661   0.76706   0.00000  Uiso   1.00
H1780  H     0.27361   0.80393   0.60571   0.00000  Uiso   1.00
H1781  H     0.32631   0.92916   0.74141   0.00000  Uiso   1.00
H1782  H     0.03041   0.74195   0.77968   0.00000  Uiso   1.00
H1783  H     0.02549   0.77729   0.83006   0.00000  Uiso   1.00
H1784  H     0.31922   0.73330   0.82670   0.00000  Uiso   1.00
H1785  H     0.29185   0.79618   0.81790   0.00000  Uiso   1.00
N1786  N     0.23534   0.75387   0.58017   0.00000  Uiso   1.00
N1787  N     0.24873   0.77839   0.91293   0.00000  Uiso   1.00
N1788  N     0.24720   0.74131   0.98506   0.00000  Uiso   1.00
N1789  N     0.15151   0.86715   0.58476   0.00000  Uiso   1.00
N1790  N     0.07179   0.88541   0.92043   0.00000  Uiso   1.00
N1791  N     0.02124   0.87534   0.71274   0.00000  Uiso   1.00
O1792  O     0.16667   0.83333   0.75000   0.00000  Uiso   1.00
O1793  O     0.15451   0.79304   0.65458   0.00000  Uiso   1.00
O1794  O     0.12940   0.87058   0.84968   0.00000  Uiso   1.00
O1795  O     0.20824   0.84425   0.64606   0.00000  Uiso   1.00
O1796  O     0.17451   0.82546   0.84968   0.00000  Uiso   1.00
O1797  O     0.17930   0.74686   0.78213   0.00000  Uiso   1.00
O1798  O     0.14632   0.92751   0.77013   0.00000  Uiso   1.00
O1799  O     0.07412   0.79958   0.73413   0.00000  Uiso   1.00
O1800  O     0.26693   0.85939   0.71360   0.00000  Uiso   1.00
O1801  O     0.07071   0.85544   0.78213   0.00000  Uiso   1.00
O1802  O     0.25491   0.81892   0.77013   0.00000  Uiso   1.00
O1803  O     0.13760   0.73610   0.73413   0.00000  Uiso   1.00
O1804  O     0.20345   0.92286   0.71360   0.00000  Uiso   1.00
Zn1805 Zn    0.19338   0.80661   0.78734   0.00000  Uiso   1.00
Zn1806 Zn    0.13379   0.79124   0.71875   0.00000  Uiso   1.00
Zn1807 Zn    0.21056   0.86442   0.70657   0.00000  Uiso   1.00
Zn1808 Zn    0.12893   0.87106   0.78733   0.00000  Uiso   1.00
C1809  C     0.38665   0.82651   0.75912   0.00000  Uiso   1.00
C1810  C     0.50312   0.83138   0.56094   0.00000  Uiso   1.00
C1811  C     0.54944   0.77796   0.55714   0.00000  Uiso   1.00
C1812  C     0.61401   0.84038   0.74035   0.00000  Uiso   1.00
C1813  C     0.47201   0.85909   0.92089   0.00000  Uiso   1.00
C1814  C     0.65948   0.84508   0.73960   0.00000  Uiso   1.00
C1815  C     0.34149   0.82106   0.76347   0.00000  Uiso   1.00
C1816  C     0.51070   0.98905   0.73409   0.00000  Uiso   1.00
C1817  C     0.48457   0.67935   0.76585   0.00000  Uiso   1.00
C1818  C     0.48917   0.72298   0.76064   0.00000  Uiso   1.00
C1819  C     0.50933   0.94457   0.73955   0.00000  Uiso   1.00
C1820  C     0.41702   0.86881   0.99112   0.00000  Uiso   1.00
C1821  C     0.51876   0.81459   0.62959   0.00000  Uiso   1.00
C1822  C     0.48195   0.85174   0.87107   0.00000  Uiso   1.00
C1823  C     0.55593   0.77249   0.51018   0.00000  Uiso   1.00
C1824  C     0.52449   0.80831   0.58156   0.00000  Uiso   1.00
C1825  C     0.43184   0.87224   0.94448   0.00000  Uiso   1.00
C1826  C     0.60958   0.77286   0.58740   0.00000  Uiso   1.00
C1827  C     0.64885   0.78413   0.78877   0.00000  Uiso   1.00
C1828  C     0.34115   0.75779   0.80734   0.00000  Uiso   1.00
C1829  C     0.54098   0.67652   0.69308   0.00000  Uiso   1.00
C1830  C     0.56714   0.98265   0.65573   0.00000  Uiso   1.00
C1831  C     0.44189   0.85217   0.51332   0.00000  Uiso   1.00
C1832  C     0.45309   0.99742   0.80881   0.00000  Uiso   1.00
C1833  C     0.42979   0.69750   0.84053   0.00000  Uiso   1.00
C1834  C     0.56194   0.74967   0.88312   0.00000  Uiso   1.00
C1835  C     0.55586   0.70142   0.97863   0.00000  Uiso   1.00
C1836  C     0.44861   0.86112   0.62322   0.00000  Uiso   1.00
C1837  C     0.40840   0.92982   0.91857   0.00000  Uiso   1.00
C1838  C     0.37379   0.88025   0.51827   0.00000  Uiso   1.00
C1839  C     0.37885   0.91873   0.55028   0.00000  Uiso   1.00
C1840  C     0.57192   0.86305   0.89035   0.00000  Uiso   1.00
C1841  C     0.60870   0.88593   0.90915   0.00000  Uiso   1.00
C1842  C     0.48311   0.84243   0.99167   0.00000  Uiso   1.00
C1843  C     0.35738   0.91673   0.73486   0.00000  Uiso   1.00
C1844  C     0.49893   0.84723   0.94537   0.00000  Uiso   1.00
C1845  C     0.50777   0.82445   0.51425   0.00000  Uiso   1.00
C1846  C     0.53862   0.79908   0.98835   0.00000  Uiso   1.00
C1847  C     0.55385   0.80455   0.94199   0.00000  Uiso   1.00
C1848  C     0.54032   0.83666   0.92474   0.00000  Uiso   1.00
H1849  H     0.42723   0.84453   0.54724   0.00000  Uiso   1.00
H1850  H     0.63220   0.76299   0.76626   0.00000  Uiso   1.00
H1851  H     0.59170   0.97025   0.66764   0.00000  Uiso   1.00
H1852  H     0.54597   0.95716   0.64260   0.00000  Uiso   1.00
H1853  H     0.58428   0.66851   0.62756   0.00000  Uiso   1.00
H1854  H     0.52154   0.69183   0.67670   0.00000  Uiso   1.00
H1855  H     0.56380   0.70112   0.70508   0.00000  Uiso   1.00
H1856  H     0.45288   0.72095   0.85356   0.00000  Uiso   1.00
H1857  H     0.41142   0.71295   0.82308   0.00000  Uiso   1.00
H1858  H     0.40701   0.68285   0.86953   0.00000  Uiso   1.00
H1859  H     0.42782   0.97398   0.79947   0.00000  Uiso   1.00
H1860  H     0.56878   0.72310   0.56854   0.00000  Uiso   1.00
H1861  H     0.47060   0.98332   0.82842   0.00000  Uiso   1.00
H1862  H     0.61103   0.79355   0.89680   0.00000  Uiso   1.00
H1863  H     0.58236   0.72495   0.86832   0.00000  Uiso   1.00
H1864  H     0.55698   0.76609   0.85586   0.00000  Uiso   1.00
H1865  H     0.53040   0.73463   0.90153   0.00000  Uiso   1.00
H1866  H     0.60793   0.73892   0.99464   0.00000  Uiso   1.00
H1867  H     0.57595   0.68136   0.95295   0.00000  Uiso   1.00
H1868  H     0.52731   0.70506   0.96707   0.00000  Uiso   1.00
H1869  H     0.54509   0.68584   0.51036   0.00000  Uiso   1.00
H1870  H     0.50700   0.89223   0.58924   0.00000  Uiso   1.00
H1871  H     0.63376   0.77612   0.55491   0.00000  Uiso   1.00
H1872  H     0.45909   0.86823   0.65487   0.00000  Uiso   1.00
H1873  H     0.43187   0.82893   0.62205   0.00000  Uiso   1.00
H1874  H     0.42561   0.88284   0.62343   0.00000  Uiso   1.00
H1875  H     0.37442   0.87022   0.92589   0.00000  Uiso   1.00
H1876  H     0.39502   0.94490   0.95219   0.00000  Uiso   1.00
H1877  H     0.44232   0.94308   0.90613   0.00000  Uiso   1.00
H1878  H     0.39017   0.93649   0.89513   0.00000  Uiso   1.00
H1879  H     0.39637   0.91299   0.57469   0.00000  Uiso   1.00
H1880  H     0.39655   0.94548   0.53131   0.00000  Uiso   1.00
H1881  H     0.34682   0.92675   0.56911   0.00000  Uiso   1.00
H1882  H     0.62066   0.75311   0.60782   0.00000  Uiso   1.00
H1883  H     0.35318   0.88651   0.99723   0.00000  Uiso   1.00
H1884  H     0.35610   0.85384   0.53791   0.00000  Uiso   1.00
H1885  H     0.62724   0.86386   0.91809   0.00000  Uiso   1.00
H1886  H     0.63069   0.90548   0.88358   0.00000  Uiso   1.00
H1887  H     0.59608   0.90630   0.93947   0.00000  Uiso   1.00
H1888  H     0.58484   0.84363   0.85961   0.00000  Uiso   1.00
H1889  H     0.55642   0.88733   0.88070   0.00000  Uiso   1.00
H1890  H     0.34923   0.87522   0.68138   0.00000  Uiso   1.00
H1891  H     0.38237   0.93748   0.71306   0.00000  Uiso   1.00
H1892  H     0.36625   0.91661   0.76706   0.00000  Uiso   1.00
H1893  H     0.60694   0.80393   0.60571   0.00000  Uiso   1.00
H1894  H     0.65964   0.92916   0.74141   0.00000  Uiso   1.00
H1895  H     0.36374   0.74195   0.77968   0.00000  Uiso   1.00
H1896  H     0.35882   0.77729   0.83006   0.00000  Uiso   1.00
H1897  H     0.65255   0.73330   0.82670   0.00000  Uiso   1.00
H1898  H     0.62518   0.79618   0.81790   0.00000  Uiso   1.00
N1899  N     0.56868   0.75387   0.58017   0.00000  Uiso   1.00
N1900  N     0.58206   0.77839   0.91293   0.00000  Uiso   1.00
N1901  N     0.58053   0.74131   0.98506   0.00000  Uiso   1.00
N1902  N     0.48484   0.86715   0.58476   0.00000  Uiso   1.00
N1903  N     0.40512   0.88541   0.92043   0.00000  Uiso   1.00
N1904  N     0.35457   0.87534   0.71274   0.00000  Uiso   1.00
O1905  O     0.50000   0.83333   0.75000   0.00000  Uiso   1.00
O1906  O     0.48784   0.79304   0.65458   0.00000  Uiso   1.00
O1907  O     0.46274   0.87058   0.84968   0.00000  Uiso   1.00
O1908  O     0.54157   0.84425   0.64606   0.00000  Uiso   1.00
O1909  O     0.50785   0.82546   0.84968   0.00000  Uiso   1.00
O1910  O     0.51264   0.74686   0.78213   0.00000  Uiso   1.00
O1911  O     0.47965   0.92751   0.77013   0.00000  Uiso   1.00
O1912  O     0.40745   0.79958   0.73413   0.00000  Uiso   1.00
O1913  O     0.60026   0.85939   0.71360   0.00000  Uiso   1.00
O1914  O     0.40405   0.85544   0.78213   0.00000  Uiso   1.00
O1915  O     0.58824   0.81892   0.77013   0.00000  Uiso   1.00
O1916  O     0.47093   0.73610   0.73413   0.00000  Uiso   1.00
O1917  O     0.53678   0.92286   0.71360   0.00000  Uiso   1.00
Zn1918 Zn    0.52672   0.80661   0.78734   0.00000  Uiso   1.00
Zn1919 Zn    0.46713   0.79124   0.71875   0.00000  Uiso   1.00
Zn1920 Zn    0.54389   0.86442   0.70657   0.00000  Uiso   1.00
Zn1921 Zn    0.46226   0.87106   0.78733   0.00000  Uiso   1.00
C1922  C     0.71998   0.82651   0.75912   0.00000  Uiso   1.00
C1923  C     0.83646   0.83138   0.56094   0.00000  Uiso   1.00
C1924  C     0.88277   0.77796   0.55714   0.00000  Uiso   1.00
C1925  C     0.94734   0.84038   0.74035   0.00000  Uiso   1.00
C1926  C     0.80534   0.85909   0.92089   0.00000  Uiso   1.00
C1927  C     0.99282   0.84508   0.73960   0.00000  Uiso   1.00
C1928  C     0.67482   0.82106   0.76347   0.00000  Uiso   1.00
C1929  C     0.84403   0.98905   0.73409   0.00000  Uiso   1.00
C1930  C     0.81791   0.67935   0.76585   0.00000  Uiso   1.00
C1931  C     0.82250   0.72298   0.76064   0.00000  Uiso   1.00
C1932  C     0.84266   0.94457   0.73955   0.00000  Uiso   1.00
C1933  C     0.75035   0.86881   0.99112   0.00000  Uiso   1.00
C1934  C     0.85209   0.81459   0.62959   0.00000  Uiso   1.00
C1935  C     0.81529   0.85174   0.87107   0.00000  Uiso   1.00
C1936  C     0.88926   0.77249   0.51018   0.00000  Uiso   1.00
C1937  C     0.85783   0.80831   0.58156   0.00000  Uiso   1.00
C1938  C     0.76517   0.87224   0.94448   0.00000  Uiso   1.00
C1939  C     0.94292   0.77286   0.58740   0.00000  Uiso   1.00
C1940  C     0.98219   0.78413   0.78877   0.00000  Uiso   1.00
C1941  C     0.67449   0.75779   0.80734   0.00000  Uiso   1.00
C1942  C     0.87432   0.67652   0.69308   0.00000  Uiso   1.00
C1943  C     0.90047   0.98265   0.65573   0.00000  Uiso   1.00
C1944  C     0.77523   0.85217   0.51332   0.00000  Uiso   1.00
C1945  C     0.78642   0.99742   0.80881   0.00000  Uiso   1.00
C1946  C     0.76313   0.69750   0.84053   0.00000  Uiso   1.00
C1947  C     0.89527   0.74967   0.88312   0.00000  Uiso   1.00
C1948  C     0.88920   0.70142   0.97863   0.00000  Uiso   1.00
C1949  C     0.78194   0.86112   0.62322   0.00000  Uiso   1.00
C1950  C     0.74174   0.92982   0.91857   0.00000  Uiso   1.00
C1951  C     0.70712   0.88025   0.51827   0.00000  Uiso   1.00
C1952  C     0.71218   0.91873   0.55028   0.00000  Uiso   1.00
C1953  C     0.90526   0.86305   0.89035   0.00000  Uiso   1.00
C1954  C     0.94203   0.88593   0.90915   0.00000  Uiso   1.00
C1955  C     0.81645   0.84243   0.99167   0.00000  Uiso   1.00
C1956  C     0.69071   0.91673   0.73486   0.00000  Uiso   1.00
C1957  C     0.83227   0.84723   0.94537   0.00000  Uiso   1.00
C1958  C     0.84111   0.82445   0.51425   0.00000  Uiso   1.00
C1959  C     0.87196   0.79908   0.98835   0.00000  Uiso   1.00
C1960  C     0.88718   0.80455   0.94199   0.00000  Uiso   1.00
C1961  C     0.87366   0.83666   0.92474   0.00000  Uiso   1.00
H1962  H     0.76056   0.84453   0.54724   0.00000  Uiso   1.00
H1963  H     0.96553   0.76299   0.76626   0.00000  Uiso   1.00
H1964  H     0.92504   0.97025   0.66764   0.00000  Uiso   1.00
H1965  H     0.87930   0.95716   0.64260   0.00000  Uiso   1.00
H1966  H     0.91761   0.66851   0.62756   0.00000  Uiso   1.00
H1967  H     0.85488   0.69183   0.67670   0.00000  Uiso   1.00
H1968  H     0.89713   0.70112   0.70508   0.00000  Uiso   1.00
H1969  H     0.78621   0.72095   0.85356   0.00000  Uiso   1.00
H1970  H     0.74476   0.71295   0.82308   0.00000  Uiso   1.00
H1971  H     0.74035   0.68285   0.86953   0.00000  Uiso   1.00
H1972  H     0.76116   0.97398   0.79947   0.00000  Uiso   1.00
H1973  H     0.90211   0.72310   0.56854   0.00000  Uiso   1.00
H1974  H     0.80393   0.98332   0.82842   0.00000  Uiso   1.00
H1975  H     0.94436   0.79355   0.89680   0.00000  Uiso   1.00
H1976  H     0.91569   0.72495   0.86832   0.00000  Uiso   1.00
H1977  H     0.89032   0.76609   0.85586   0.00000  Uiso   1.00
H1978  H     0.86374   0.73463   0.90153   0.00000  Uiso   1.00
H1979  H     0.94126   0.73892   0.99464   0.00000  Uiso   1.00
H1980  H     0.90928   0.68136   0.95295   0.00000  Uiso   1.00
H1981  H     0.86064   0.70506   0.96707   0.00000  Uiso   1.00
H1982  H     0.87842   0.68584   0.51036   0.00000  Uiso   1.00
H1983  H     0.84033   0.89223   0.58924   0.00000  Uiso   1.00
H1984  H     0.96709   0.77612   0.55491   0.00000  Uiso   1.00
H1985  H     0.79242   0.86823   0.65487   0.00000  Uiso   1.00
H1986  H     0.76520   0.82893   0.62205   0.00000  Uiso   1.00
H1987  H     0.75894   0.88284   0.62343   0.00000  Uiso   1.00
H1988  H     0.70776   0.87022   0.92589   0.00000  Uiso   1.00
H1989  H     0.72835   0.94490   0.95219   0.00000  Uiso   1.00
H1990  H     0.77566   0.94308   0.90613   0.00000  Uiso   1.00
H1991  H     0.72350   0.93649   0.89513   0.00000  Uiso   1.00
H1992  H     0.72970   0.91299   0.57469   0.00000  Uiso   1.00
H1993  H     0.72988   0.94548   0.53131   0.00000  Uiso   1.00
H1994  H     0.68016   0.92675   0.56911   0.00000  Uiso   1.00
H1995  H     0.95399   0.75311   0.60782   0.00000  Uiso   1.00
H1996  H     0.68652   0.88651   0.99723   0.00000  Uiso   1.00
H1997  H     0.68943   0.85384   0.53791   0.00000  Uiso   1.00
H1998  H     0.96058   0.86386   0.91809   0.00000  Uiso   1.00
H1999  H     0.96403   0.90548   0.88358   0.00000  Uiso   1.00
H2000  H     0.92941   0.90630   0.93947   0.00000  Uiso   1.00
H2001  H     0.91818   0.84363   0.85961   0.00000  Uiso   1.00
H2002  H     0.88975   0.88733   0.88070   0.00000  Uiso   1.00
H2003  H     0.68256   0.87522   0.68138   0.00000  Uiso   1.00
H2004  H     0.71570   0.93748   0.71306   0.00000  Uiso   1.00
H2005  H     0.69958   0.91661   0.76706   0.00000  Uiso   1.00
H2006  H     0.94028   0.80393   0.60571   0.00000  Uiso   1.00
H2007  H     0.99297   0.92916   0.74141   0.00000  Uiso   1.00
H2008  H     0.69708   0.74195   0.77968   0.00000  Uiso   1.00
H2009  H     0.69215   0.77729   0.83006   0.00000  Uiso   1.00
H2010  H     0.98588   0.73330   0.82670   0.00000  Uiso   1.00
H2011  H     0.95851   0.79618   0.81790   0.00000  Uiso   1.00
N2012  N     0.90201   0.75387   0.58017   0.00000  Uiso   1.00
N2013  N     0.91540   0.77839   0.91293   0.00000  Uiso   1.00
N2014  N     0.91387   0.74131   0.98506   0.00000  Uiso   1.00
N2015  N     0.81818   0.86715   0.58476   0.00000  Uiso   1.00
N2016  N     0.73845   0.88541   0.92043   0.00000  Uiso   1.00
N2017  N     0.68790   0.87534   0.71274   0.00000  Uiso   1.00
O2018  O     0.83333   0.83333   0.75000   0.00000  Uiso   1.00
O2019  O     0.82118   0.79304   0.65458   0.00000  Uiso   1.00
O2020  O     0.79607   0.87058   0.84968   0.00000  Uiso   1.00
O2021  O     0.87491   0.84425   0.64606   0.00000  Uiso   1.00
O2022  O     0.84118   0.82546   0.84968   0.00000  Uiso   1.00
O2023  O     0.84597   0.74686   0.78213   0.00000  Uiso   1.00
O2024  O     0.81298   0.92751   0.77013   0.00000  Uiso   1.00
O2025  O     0.74078   0.79958   0.73413   0.00000  Uiso   1.00
O2026  O     0.93360   0.85939   0.71360   0.00000  Uiso   1.00
O2027  O     0.73738   0.85544   0.78213   0.00000  Uiso   1.00
O2028  O     0.92158   0.81892   0.77013   0.00000  Uiso   1.00
O2029  O     0.80426   0.73610   0.73413   0.00000  Uiso   1.00
O2030  O     0.87012   0.92286   0.71360   0.00000  Uiso   1.00
Zn2031 Zn    0.86005   0.80661   0.78734   0.00000  Uiso   1.00
Zn2032 Zn    0.80046   0.79124   0.71875   0.00000  Uiso   1.00
Zn2033 Zn    0.87723   0.86442   0.70657   0.00000  Uiso   1.00
Zn2034 Zn    0.79560   0.87106   0.78733   0.00000  Uiso   1.00
loop_
_geom_bond_atom_site_label_1
_geom_bond_atom_site_label_2
_geom_bond_distance
_geom_bond_site_symmetry_2
_ccdc_geom_bond_type
C1     O106    1.274   .     A
C1     O104    1.260   .     A
C1     C7      1.432   .     S
C2     C16     1.403   .     A
C2     N94     1.433   .     S
C2     C37     1.411   .     A
C3     N91     1.428   .     S
C3     C15     1.410   .     A
C3     C16     1.404   .     A
C4     O107    1.272   .     A
C4     C6      1.465   .     S
C4     O105    1.294   .     A
C5     C36     1.422   .     A
C5     C17     1.428   .     A
C5     C14     1.492   .     S
C6     C120    1.365   .     S
C6     N209    1.429   .     S
C7     C232    1.365   1_455 S
C7     C245    1.534   1_455 S
C8     C11     1.476   .     S
C8     C348    1.371   .     S
C8     C360    1.548   .     S
C9     C10     1.435   .     S
C9     C686    1.371   1_545 S
C9     C702    1.537   1_545 S
C10    O108    1.276   .     A
C10    O102    1.269   .     A
C11    O109    1.281   .     A
C11    O103    1.276   .     A
C12    C17     1.412   .     A
C12    C1040   1.394   .     S
C12    C1047   1.520   .     S
C13    O98     1.272   .     A
C13    O100    1.274   .     A
C13    C16     1.446   .     S
C14    O99     1.281   .     A
C14    O101    1.300   .     A
C15    C1055   1.420   1_554 S
C15    N1110   1.425   1_554 S
C17    N95     1.426   .     S
C18    N91     1.448   .     S
C18    H63     1.111   .     S
C18    H74     1.110   .     S
C18    H85     1.109   .     S
C19    H42     1.112   .     S
C19    H90     1.102   .     S
C19    C120    1.534   .     S
C19    C133    1.536   .     S
C20    H87     1.110   .     S
C20    H88     1.111   .     S
C20    C245    1.536   1_455 S
C20    H315    1.108   1_455 S
C21    H46     1.111   .     S
C21    H47     1.112   .     S
C21    C686    1.548   1_545 S
C21    C700    1.529   1_545 S
C22    H44     1.111   .     S
C22    H43     1.110   .     S
C22    C360    1.529   .     S
C22    H384    1.111   .     S
C23    H41     1.076   .     S
C23    C1029   1.394   1_554 S
C23    C1051   1.405   1_554 S
C24    H51     1.112   .     S
C24    H53     1.112   .     S
C24    C348    1.537   .     S
C24    C364    1.534   .     S
C25    H50     1.111   .     S
C25    H48     1.111   .     S
C25    H49     1.110   .     S
C25    C702    1.534   1_545 S
C26    H55     1.108   .     S
C26    N92     1.449   .     S
C26    H56     1.110   .     S
C26    H57     1.111   .     S
C27    H60     1.110   .     S
C27    N93     1.448   .     S
C27    H59     1.110   .     S
C27    H1078   1.110   .     S
C28    N94     1.452   .     S
C28    H66     1.108   .     S
C28    H64     1.111   .     S
C28    H65     1.112   .     S
C29    H69     1.111   .     S
C29    N95     1.446   .     S
C29    H68     1.109   .     S
C29    H70     1.110   .     S
C30    C31     1.527   .     S
C30    H76     1.112   .     S
C30    C1029   1.520   1_554 S
C30    H1092   1.106   1_554 S
C31    H73     1.111   .     S
C31    H71     1.108   .     S
C31    H72     1.110   .     S
C32    H81     1.110   .     S
C32    H80     1.105   .     S
C32    C33     1.529   .     S
C32    C40     1.521   .     S
C33    H79     1.111   .     S
C33    H77     1.109   .     S
C33    H78     1.111   .     S
C34    C36     1.412   .     A
C34    C1040   1.405   .     S
C34    C1054   1.420   .     S
C35    N96     1.447   .     S
C35    H83     1.110   .     S
C35    H84     1.111   .     S
C35    H312    1.112   1_455 S
C36    C40     1.413   .     A
C37    C1051   1.420   1_554 S
C37    C1055   1.423   1_554 S
C38    C39     1.416   .     A
C38    C1054   1.423   .     S
C38    C1032   1.420   .     S
C39    C40     1.406   .     A
C39    N92     1.421   .     S
H45    C700    1.111   1_545 S
H52    N91     1.029   .     S
H54    N92     1.029   .     S
H58    N93     1.030   .     S
H61    C1044   1.110   1_554 S
H62    N94     1.031   .     S
H67    N95     1.030   .     S
H75    C1047   1.106   .     S
H82    N96     1.032   .     S
H86    C148    1.112   .     S
H89    C133    1.108   .     S
N93    C1032   1.425   .     S
N96    C232    1.429   1_455 S
O97    Zn111   1.944   .     S
O97    Zn112   1.941   .     S
O97    Zn113   1.941   .     S
O97    Zn110   1.964   .     S
O98    Zn111   1.932   .     S
O99    Zn113   1.939   .     S
O100   Zn112   1.933   .     S
O101   Zn110   1.927   .     S
O102   Zn110   1.936   .     S
O103   Zn113   1.940   .     S
O104   Zn111   1.936   .     S
O105   Zn112   1.944   .     S
O106   Zn113   1.938   .     S
O107   Zn110   1.932   .     S
O108   Zn111   1.947   .     S
O109   Zn112   1.940   .     S
C114   O219    1.274   .     A
C114   O217    1.260   .     A
C114   C120    1.432   .     S
C115   C129    1.403   .     A
C115   N207    1.433   .     S
C115   C150    1.411   .     A
C116   N204    1.428   .     S
C116   C128    1.410   .     A
C116   C129    1.404   .     A
C117   O220    1.272   .     A
C117   C119    1.465   .     S
C117   O218    1.294   .     A
C118   C149    1.422   .     A
C118   C130    1.428   .     A
C118   C127    1.492   .     S
C119   C233    1.365   .     S
C119   N322    1.429   .     S
C121   C124    1.476   .     S
C121   C461    1.371   .     S
C121   C473    1.548   .     S
C122   C123    1.435   .     S
C122   C799    1.371   1_545 S
C122   C815    1.537   1_545 S
C123   O221    1.276   .     A
C123   O215    1.269   .     A
C124   O222    1.281   .     A
C124   O216    1.276   .     A
C125   C130    1.412   .     A
C125   C1153   1.394   .     S
C125   C1160   1.520   .     S
C126   O211    1.272   .     A
C126   O213    1.274   .     A
C126   C129    1.446   .     S
C127   O212    1.281   .     A
C127   O214    1.300   .     A
C128   C1168   1.420   1_554 S
C128   N1223   1.425   1_554 S
C130   N208    1.426   .     S
C131   N204    1.448   .     S
C131   H176    1.111   .     S
C131   H187    1.110   .     S
C131   H198    1.109   .     S
C132   H155    1.112   .     S
C132   H203    1.102   .     S
C132   C233    1.534   .     S
C132   C246    1.536   .     S
C133   H200    1.110   .     S
C133   H201    1.111   .     S
C134   H159    1.111   .     S
C134   H160    1.112   .     S
C134   C799    1.548   1_545 S
C134   C813    1.529   1_545 S
C135   H157    1.111   .     S
C135   H156    1.110   .     S
C135   C473    1.529   .     S
C135   H497    1.111   .     S
C136   H154    1.076   .     S
C136   C1142   1.394   1_554 S
C136   C1164   1.405   1_554 S
C137   H164    1.112   .     S
C137   H166    1.112   .     S
C137   C461    1.537   .     S
C137   C477    1.534   .     S
C138   H163    1.111   .     S
C138   H161    1.111   .     S
C138   H162    1.110   .     S
C138   C815    1.534   1_545 S
C139   H168    1.108   .     S
C139   N205    1.449   .     S
C139   H169    1.110   .     S
C139   H170    1.111   .     S
C140   H173    1.110   .     S
C140   N206    1.448   .     S
C140   H172    1.110   .     S
C140   H1191   1.110   .     S
C141   N207    1.452   .     S
C141   H179    1.108   .     S
C141   H177    1.111   .     S
C141   H178    1.112   .     S
C142   H182    1.111   .     S
C142   N208    1.446   .     S
C142   H181    1.109   .     S
C142   H183    1.110   .     S
C143   C144    1.527   .     S
C143   H189    1.112   .     S
C143   C1142   1.520   1_554 S
C143   H1205   1.106   1_554 S
C144   H186    1.111   .     S
C144   H184    1.108   .     S
C144   H185    1.110   .     S
C145   H194    1.110   .     S
C145   H193    1.105   .     S
C145   C146    1.529   .     S
C145   C153    1.521   .     S
C146   H192    1.111   .     S
C146   H190    1.109   .     S
C146   H191    1.111   .     S
C147   C149    1.412   .     A
C147   C1153   1.405   .     S
C147   C1167   1.420   .     S
C148   N209    1.447   .     S
C148   H196    1.110   .     S
C148   H197    1.111   .     S
C149   C153    1.413   .     A
C150   C1164   1.420   1_554 S
C150   C1168   1.423   1_554 S
C151   C152    1.416   .     A
C151   C1167   1.423   .     S
C151   C1145   1.420   .     S
C152   C153    1.406   .     A
C152   N205    1.421   .     S
H158   C813    1.111   1_545 S
H165   N204    1.029   .     S
H167   N205    1.029   .     S
H171   N206    1.030   .     S
H174   C1157   1.110   1_554 S
H175   N207    1.031   .     S
H180   N208    1.030   .     S
H188   C1160   1.106   .     S
H195   N209    1.032   .     S
H199   C261    1.112   .     S
H202   C246    1.108   .     S
N206   C1145   1.425   .     S
O210   Zn224   1.944   .     S
O210   Zn225   1.941   .     S
O210   Zn226   1.941   .     S
O210   Zn223   1.964   .     S
O211   Zn224   1.932   .     S
O212   Zn226   1.939   .     S
O213   Zn225   1.933   .     S
O214   Zn223   1.927   .     S
O215   Zn223   1.936   .     S
O216   Zn226   1.940   .     S
O217   Zn224   1.936   .     S
O218   Zn225   1.944   .     S
O219   Zn226   1.938   .     S
O220   Zn223   1.932   .     S
O221   Zn224   1.947   .     S
O222   Zn225   1.940   .     S
C227   O332    1.274   .     A
C227   O330    1.260   .     A
C227   C233    1.432   .     S
C228   C242    1.403   .     A
C228   N320    1.433   .     S
C228   C263    1.411   .     A
C229   N317    1.428   .     S
C229   C241    1.410   .     A
C229   C242    1.404   .     A
C230   O333    1.272   .     A
C230   C232    1.465   .     S
C230   O331    1.294   .     A
C231   C262    1.422   .     A
C231   C243    1.428   .     A
C231   C240    1.492   .     S
C232   C7      1.365   1_655 S
C232   N96     1.429   1_655 S
C234   C237    1.476   .     S
C234   C574    1.371   .     S
C234   C586    1.548   .     S
C235   C236    1.435   .     S
C235   C912    1.371   1_545 S
C235   C928    1.537   1_545 S
C236   O334    1.276   .     A
C236   O328    1.269   .     A
C237   O335    1.281   .     A
C237   O329    1.276   .     A
C238   C243    1.412   .     A
C238   C1266   1.394   .     S
C238   C1273   1.520   .     S
C239   O324    1.272   .     A
C239   O326    1.274   .     A
C239   C242    1.446   .     S
C240   O325    1.281   .     A
C240   O327    1.300   .     A
C241   C1281   1.420   1_554 S
C241   N1336   1.425   1_554 S
C243   N321    1.426   .     S
C244   N317    1.448   .     S
C244   H289    1.111   .     S
C244   H300    1.110   .     S
C244   H311    1.109   .     S
C245   H268    1.112   .     S
C245   H316    1.102   .     S
C245   C7      1.534   1_655 S
C245   C20     1.536   1_655 S
C246   H313    1.110   .     S
C246   H314    1.111   .     S
C247   H272    1.111   .     S
C247   H273    1.112   .     S
C247   C912    1.548   1_545 S
C247   C926    1.529   1_545 S
C248   H270    1.111   .     S
C248   H269    1.110   .     S
C248   C586    1.529   .     S
C248   H610    1.111   .     S
C249   H267    1.076   .     S
C249   C1255   1.394   1_554 S
C249   C1277   1.405   1_554 S
C250   H277    1.112   .     S
C250   H279    1.112   .     S
C250   C574    1.537   .     S
C250   C590    1.534   .     S
C251   H276    1.111   .     S
C251   H274    1.111   .     S
C251   H275    1.110   .     S
C251   C928    1.534   1_545 S
C252   H281    1.108   .     S
C252   N318    1.449   .     S
C252   H282    1.110   .     S
C252   H283    1.111   .     S
C253   H286    1.110   .     S
C253   N319    1.448   .     S
C253   H285    1.110   .     S
C253   H1304   1.110   .     S
C254   N320    1.452   .     S
C254   H292    1.108   .     S
C254   H290    1.111   .     S
C254   H291    1.112   .     S
C255   H295    1.111   .     S
C255   N321    1.446   .     S
C255   H294    1.109   .     S
C255   H296    1.110   .     S
C256   C257    1.527   .     S
C256   H302    1.112   .     S
C256   C1255   1.520   1_554 S
C256   H1318   1.106   1_554 S
C257   H299    1.111   .     S
C257   H297    1.108   .     S
C257   H298    1.110   .     S
C258   H307    1.110   .     S
C258   H306    1.105   .     S
C258   C259    1.529   .     S
C258   C266    1.521   .     S
C259   H305    1.111   .     S
C259   H303    1.109   .     S
C259   H304    1.111   .     S
C260   C262    1.412   .     A
C260   C1266   1.405   .     S
C260   C1280   1.420   .     S
C261   N322    1.447   .     S
C261   H309    1.110   .     S
C261   H310    1.111   .     S
C262   C266    1.413   .     A
C263   C1277   1.420   1_554 S
C263   C1281   1.423   1_554 S
C264   C265    1.416   .     A
C264   C1280   1.423   .     S
C264   C1258   1.420   .     S
C265   C266    1.406   .     A
C265   N318    1.421   .     S
H271   C926    1.111   1_545 S
H278   N317    1.029   .     S
H280   N318    1.029   .     S
H284   N319    1.030   .     S
H287   C1270   1.110   1_554 S
H288   N320    1.031   .     S
H293   N321    1.030   .     S
H301   C1273   1.106   .     S
H308   N322    1.032   .     S
H312   C35     1.112   1_655 S
H315   C20     1.108   1_655 S
N319   C1258   1.425   .     S
O323   Zn337   1.944   .     S
O323   Zn338   1.941   .     S
O323   Zn339   1.941   .     S
O323   Zn336   1.964   .     S
O324   Zn337   1.932   .     S
O325   Zn339   1.939   .     S
O326   Zn338   1.933   .     S
O327   Zn336   1.927   .     S
O328   Zn336   1.936   .     S
O329   Zn339   1.940   .     S
O330   Zn337   1.936   .     S
O331   Zn338   1.944   .     S
O332   Zn339   1.938   .     S
O333   Zn336   1.932   .     S
O334   Zn337   1.947   .     S
O335   Zn338   1.940   .     S
C340   O445    1.274   .     A
C340   O443    1.260   .     A
C340   C346    1.432   .     S
C341   C355    1.403   .     A
C341   N433    1.433   .     S
C341   C376    1.411   .     A
C342   N430    1.428   .     S
C342   C354    1.410   .     A
C342   C355    1.404   .     A
C343   O446    1.272   .     A
C343   C345    1.465   .     S
C343   O444    1.294   .     A
C344   C375    1.422   .     A
C344   C356    1.428   .     A
C344   C353    1.492   .     S
C345   C459    1.365   .     S
C345   N548    1.429   .     S
C346   C571    1.365   1_455 S
C346   C584    1.534   1_455 S
C347   C350    1.476   .     S
C347   C687    1.371   .     S
C347   C699    1.548   .     S
C348   C349    1.435   .     S
C349   O447    1.276   .     A
C349   O441    1.269   .     A
C350   O448    1.281   .     A
C350   O442    1.276   .     A
C351   C356    1.412   .     A
C351   C1379   1.394   .     S
C351   C1386   1.520   .     S
C352   O437    1.272   .     A
C352   O439    1.274   .     A
C352   C355    1.446   .     S
C353   O438    1.281   .     A
C353   O440    1.300   .     A
C354   C1394   1.420   1_554 S
C354   N1449   1.425   1_554 S
C356   N434    1.426   .     S
C357   N430    1.448   .     S
C357   H402    1.111   .     S
C357   H413    1.110   .     S
C357   H424    1.109   .     S
C358   H381    1.112   .     S
C358   H429    1.102   .     S
C358   C459    1.534   .     S
C358   C472    1.536   .     S
C359   H426    1.110   .     S
C359   H427    1.111   .     S
C359   C584    1.536   1_455 S
C359   H654    1.108   1_455 S
C360   H385    1.111   .     S
C360   H386    1.112   .     S
C361   H383    1.111   .     S
C361   H382    1.110   .     S
C361   C699    1.529   .     S
C361   H723    1.111   .     S
C362   H380    1.076   .     S
C362   C1368   1.394   1_554 S
C362   C1390   1.405   1_554 S
C363   H390    1.112   .     S
C363   H392    1.112   .     S
C363   C687    1.537   .     S
C363   C703    1.534   .     S
C364   H389    1.111   .     S
C364   H387    1.111   .     S
C364   H388    1.110   .     S
C365   H394    1.108   .     S
C365   N431    1.449   .     S
C365   H395    1.110   .     S
C365   H396    1.111   .     S
C366   H399    1.110   .     S
C366   N432    1.448   .     S
C366   H398    1.110   .     S
C366   H1417   1.110   .     S
C367   N433    1.452   .     S
C367   H405    1.108   .     S
C367   H403    1.111   .     S
C367   H404    1.112   .     S
C368   H408    1.111   .     S
C368   N434    1.446   .     S
C368   H407    1.109   .     S
C368   H409    1.110   .     S
C369   C370    1.527   .     S
C369   H415    1.112   .     S
C369   C1368   1.520   1_554 S
C369   H1431   1.106   1_554 S
C370   H412    1.111   .     S
C370   H410    1.108   .     S
C370   H411    1.110   .     S
C371   H420    1.110   .     S
C371   H419    1.105   .     S
C371   C372    1.529   .     S
C371   C379    1.521   .     S
C372   H418    1.111   .     S
C372   H416    1.109   .     S
C372   H417    1.111   .     S
C373   C375    1.412   .     A
C373   C1379   1.405   .     S
C373   C1393   1.420   .     S
C374   N435    1.447   .     S
C374   H422    1.110   .     S
C374   H423    1.111   .     S
C374   H651    1.112   1_455 S
C375   C379    1.413   .     A
C376   C1390   1.420   1_554 S
C376   C1394   1.423   1_554 S
C377   C378    1.416   .     A
C377   C1393   1.423   .     S
C377   C1371   1.420   .     S
C378   C379    1.406   .     A
C378   N431    1.421   .     S
H391   N430    1.029   .     S
H393   N431    1.029   .     S
H397   N432    1.030   .     S
H400   C1383   1.110   1_554 S
H401   N433    1.031   .     S
H406   N434    1.030   .     S
H414   C1386   1.106   .     S
H421   N435    1.032   .     S
H425   C487    1.112   .     S
H428   C472    1.108   .     S
N432   C1371   1.425   .     S
N435   C571    1.429   1_455 S
O436   Zn450   1.944   .     S
O436   Zn451   1.941   .     S
O436   Zn452   1.941   .     S
O436   Zn449   1.964   .     S
O437   Zn450   1.932   .     S
O438   Zn452   1.939   .     S
O439   Zn451   1.933   .     S
O440   Zn449   1.927   .     S
O441   Zn449   1.936   .     S
O442   Zn452   1.940   .     S
O443   Zn450   1.936   .     S
O444   Zn451   1.944   .     S
O445   Zn452   1.938   .     S
O446   Zn449   1.932   .     S
O447   Zn450   1.947   .     S
O448   Zn451   1.940   .     S
C453   O558    1.274   .     A
C453   O556    1.260   .     A
C453   C459    1.432   .     S
C454   C468    1.403   .     A
C454   N546    1.433   .     S
C454   C489    1.411   .     A
C455   N543    1.428   .     S
C455   C467    1.410   .     A
C455   C468    1.404   .     A
C456   O559    1.272   .     A
C456   C458    1.465   .     S
C456   O557    1.294   .     A
C457   C488    1.422   .     A
C457   C469    1.428   .     A
C457   C466    1.492   .     S
C458   C572    1.365   .     S
C458   N661    1.429   .     S
C460   C463    1.476   .     S
C460   C800    1.371   .     S
C460   C812    1.548   .     S
C461   C462    1.435   .     S
C462   O560    1.276   .     A
C462   O554    1.269   .     A
C463   O561    1.281   .     A
C463   O555    1.276   .     A
C464   C469    1.412   .     A
C464   C1492   1.394   .     S
C464   C1499   1.520   .     S
C465   O550    1.272   .     A
C465   O552    1.274   .     A
C465   C468    1.446   .     S
C466   O551    1.281   .     A
C466   O553    1.300   .     A
C467   C1507   1.420   1_554 S
C467   N1562   1.425   1_554 S
C469   N547    1.426   .     S
C470   N543    1.448   .     S
C470   H515    1.111   .     S
C470   H526    1.110   .     S
C470   H537    1.109   .     S
C471   H494    1.112   .     S
C471   H542    1.102   .     S
C471   C572    1.534   .     S
C471   C585    1.536   .     S
C472   H539    1.110   .     S
C472   H540    1.111   .     S
C473   H498    1.111   .     S
C473   H499    1.112   .     S
C474   H496    1.111   .     S
C474   H495    1.110   .     S
C474   C812    1.529   .     S
C474   H836    1.111   .     S
C475   H493    1.076   .     S
C475   C1481   1.394   1_554 S
C475   C1503   1.405   1_554 S
C476   H503    1.112   .     S
C476   H505    1.112   .     S
C476   C800    1.537   .     S
C476   C816    1.534   .     S
C477   H502    1.111   .     S
C477   H500    1.111   .     S
C477   H501    1.110   .     S
C478   H507    1.108   .     S
C478   N544    1.449   .     S
C478   H508    1.110   .     S
C478   H509    1.111   .     S
C479   H512    1.110   .     S
C479   N545    1.448   .     S
C479   H511    1.110   .     S
C479   H1530   1.110   .     S
C480   N546    1.452   .     S
C480   H518    1.108   .     S
C480   H516    1.111   .     S
C480   H517    1.112   .     S
C481   H521    1.111   .     S
C481   N547    1.446   .     S
C481   H520    1.109   .     S
C481   H522    1.110   .     S
C482   C483    1.527   .     S
C482   H528    1.112   .     S
C482   C1481   1.520   1_554 S
C482   H1544   1.106   1_554 S
C483   H525    1.111   .     S
C483   H523    1.108   .     S
C483   H524    1.110   .     S
C484   H533    1.110   .     S
C484   H532    1.105   .     S
C484   C485    1.529   .     S
C484   C492    1.521   .     S
C485   H531    1.111   .     S
C485   H529    1.109   .     S
C485   H530    1.111   .     S
C486   C488    1.412   .     A
C486   C1492   1.405   .     S
C486   C1506   1.420   .     S
C487   N548    1.447   .     S
C487   H535    1.110   .     S
C487   H536    1.111   .     S
C488   C492    1.413   .     A
C489   C1503   1.420   1_554 S
C489   C1507   1.423   1_554 S
C490   C491    1.416   .     A
C490   C1506   1.423   .     S
C490   C1484   1.420   .     S
C491   C492    1.406   .     A
C491   N544    1.421   .     S
H504   N543    1.029   .     S
H506   N544    1.029   .     S
H510   N545    1.030   .     S
H513   C1496   1.110   1_554 S
H514   N546    1.031   .     S
H519   N547    1.030   .     S
H527   C1499   1.106   .     S
H534   N548    1.032   .     S
H538   C600    1.112   .     S
H541   C585    1.108   .     S
N545   C1484   1.425   .     S
O549   Zn563   1.944   .     S
O549   Zn564   1.941   .     S
O549   Zn565   1.941   .     S
O549   Zn562   1.964   .     S
O550   Zn563   1.932   .     S
O551   Zn565   1.939   .     S
O552   Zn564   1.933   .     S
O553   Zn562   1.927   .     S
O554   Zn562   1.936   .     S
O555   Zn565   1.940   .     S
O556   Zn563   1.936   .     S
O557   Zn564   1.944   .     S
O558   Zn565   1.938   .     S
O559   Zn562   1.932   .     S
O560   Zn563   1.947   .     S
O561   Zn564   1.940   .     S
C566   O671    1.274   .     A
C566   O669    1.260   .     A
C566   C572    1.432   .     S
C567   C581    1.403   .     A
C567   N659    1.433   .     S
C567   C602    1.411   .     A
C568   N656    1.428   .     S
C568   C580    1.410   .     A
C568   C581    1.404   .     A
C569   O672    1.272   .     A
C569   C571    1.465   .     S
C569   O670    1.294   .     A
C570   C601    1.422   .     A
C570   C582    1.428   .     A
C570   C579    1.492   .     S
C571   C346    1.365   1_655 S
C571   N435    1.429   1_655 S
C573   C576    1.476   .     S
C573   C913    1.371   .     S
C573   C925    1.548   .     S
C574   C575    1.435   .     S
C575   O673    1.276   .     A
C575   O667    1.269   .     A
C576   O674    1.281   .     A
C576   O668    1.276   .     A
C577   C582    1.412   .     A
C577   C1605   1.394   .     S
C577   C1612   1.520   .     S
C578   O663    1.272   .     A
C578   O665    1.274   .     A
C578   C581    1.446   .     S
C579   O664    1.281   .     A
C579   O666    1.300   .     A
C580   C1620   1.420   1_554 S
C580   N1675   1.425   1_554 S
C582   N660    1.426   .     S
C583   N656    1.448   .     S
C583   H628    1.111   .     S
C583   H639    1.110   .     S
C583   H650    1.109   .     S
C584   H607    1.112   .     S
C584   H655    1.102   .     S
C584   C346    1.534   1_655 S
C584   C359    1.536   1_655 S
C585   H652    1.110   .     S
C585   H653    1.111   .     S
C586   H611    1.111   .     S
C586   H612    1.112   .     S
C587   H609    1.111   .     S
C587   H608    1.110   .     S
C587   C925    1.529   .     S
C587   H949    1.111   .     S
C588   H606    1.076   .     S
C588   C1594   1.394   1_554 S
C588   C1616   1.405   1_554 S
C589   H616    1.112   .     S
C589   H618    1.112   .     S
C589   C913    1.537   .     S
C589   C929    1.534   .     S
C590   H615    1.111   .     S
C590   H613    1.111   .     S
C590   H614    1.110   .     S
C591   H620    1.108   .     S
C591   N657    1.449   .     S
C591   H621    1.110   .     S
C591   H622    1.111   .     S
C592   H625    1.110   .     S
C592   N658    1.448   .     S
C592   H624    1.110   .     S
C592   H1643   1.110   .     S
C593   N659    1.452   .     S
C593   H631    1.108   .     S
C593   H629    1.111   .     S
C593   H630    1.112   .     S
C594   H634    1.111   .     S
C594   N660    1.446   .     S
C594   H633    1.109   .     S
C594   H635    1.110   .     S
C595   C596    1.527   .     S
C595   H641    1.112   .     S
C595   C1594   1.520   1_554 S
C595   H1657   1.106   1_554 S
C596   H638    1.111   .     S
C596   H636    1.108   .     S
C596   H637    1.110   .     S
C597   H646    1.110   .     S
C597   H645    1.105   .     S
C597   C598    1.529   .     S
C597   C605    1.521   .     S
C598   H644    1.111   .     S
C598   H642    1.109   .     S
C598   H643    1.111   .     S
C599   C601    1.412   .     A
C599   C1605   1.405   .     S
C599   C1619   1.420   .     S
C600   N661    1.447   .     S
C600   H648    1.110   .     S
C600   H649    1.111   .     S
C601   C605    1.413   .     A
C602   C1616   1.420   1_554 S
C602   C1620   1.423   1_554 S
C603   C604    1.416   .     A
C603   C1619   1.423   .     S
C603   C1597   1.420   .     S
C604   C605    1.406   .     A
C604   N657    1.421   .     S
H617   N656    1.029   .     S
H619   N657    1.029   .     S
H623   N658    1.030   .     S
H626   C1609   1.110   1_554 S
H627   N659    1.031   .     S
H632   N660    1.030   .     S
H640   C1612   1.106   .     S
H647   N661    1.032   .     S
H651   C374    1.112   1_655 S
H654   C359    1.108   1_655 S
N658   C1597   1.425   .     S
O662   Zn676   1.944   .     S
O662   Zn677   1.941   .     S
O662   Zn678   1.941   .     S
O662   Zn675   1.964   .     S
O663   Zn676   1.932   .     S
O664   Zn678   1.939   .     S
O665   Zn677   1.933   .     S
O666   Zn675   1.927   .     S
O667   Zn675   1.936   .     S
O668   Zn678   1.940   .     S
O669   Zn676   1.936   .     S
O670   Zn677   1.944   .     S
O671   Zn678   1.938   .     S
O672   Zn675   1.932   .     S
O673   Zn676   1.947   .     S
O674   Zn677   1.940   .     S
C679   O784    1.274   .     A
C679   O782    1.260   .     A
C679   C685    1.432   .     S
C680   C694    1.403   .     A
C680   N772    1.433   .     S
C680   C715    1.411   .     A
C681   N769    1.428   .     S
C681   C693    1.410   .     A
C681   C694    1.404   .     A
C682   O785    1.272   .     A
C682   C684    1.465   .     S
C682   O783    1.294   .     A
C683   C714    1.422   .     A
C683   C695    1.428   .     A
C683   C692    1.492   .     S
C684   C798    1.365   .     S
C684   N887    1.429   .     S
C685   C910    1.365   1_455 S
C685   C923    1.534   1_455 S
C686   C689    1.476   .     S
C686   C9      1.371   1_565 S
C686   C21     1.548   1_565 S
C687   C688    1.435   .     S
C688   O786    1.276   .     A
C688   O780    1.269   .     A
C689   O787    1.281   .     A
C689   O781    1.276   .     A
C690   C695    1.412   .     A
C690   C1718   1.394   .     S
C690   C1725   1.520   .     S
C691   O776    1.272   .     A
C691   O778    1.274   .     A
C691   C694    1.446   .     S
C692   O777    1.281   .     A
C692   O779    1.300   .     A
C693   C1733   1.420   1_554 S
C693   N1788   1.425   1_554 S
C695   N773    1.426   .     S
C696   N769    1.448   .     S
C696   H741    1.111   .     S
C696   H752    1.110   .     S
C696   H763    1.109   .     S
C697   H720    1.112   .     S
C697   H768    1.102   .     S
C697   C798    1.534   .     S
C697   C811    1.536   .     S
C698   H765    1.110   .     S
C698   H766    1.111   .     S
C698   C923    1.536   1_455 S
C698   H993    1.108   1_455 S
C699   H724    1.111   .     S
C699   H725    1.112   .     S
C700   H722    1.111   .     S
C700   H721    1.110   .     S
C700   C21     1.529   1_565 S
C700   H45     1.111   1_565 S
C701   H719    1.076   .     S
C701   C1707   1.394   1_554 S
C701   C1729   1.405   1_554 S
C702   H729    1.112   .     S
C702   H731    1.112   .     S
C702   C9      1.537   1_565 S
C702   C25     1.534   1_565 S
C703   H728    1.111   .     S
C703   H726    1.111   .     S
C703   H727    1.110   .     S
C704   H733    1.108   .     S
C704   N770    1.449   .     S
C704   H734    1.110   .     S
C704   H735    1.111   .     S
C705   H738    1.110   .     S
C705   N771    1.448   .     S
C705   H737    1.110   .     S
C705   H1756   1.110   .     S
C706   N772    1.452   .     S
C706   H744    1.108   .     S
C706   H742    1.111   .     S
C706   H743    1.112   .     S
C707   H747    1.111   .     S
C707   N773    1.446   .     S
C707   H746    1.109   .     S
C707   H748    1.110   .     S
C708   C709    1.527   .     S
C708   H754    1.112   .     S
C708   C1707   1.520   1_554 S
C708   H1770   1.106   1_554 S
C709   H751    1.111   .     S
C709   H749    1.108   .     S
C709   H750    1.110   .     S
C710   H759    1.110   .     S
C710   H758    1.105   .     S
C710   C711    1.529   .     S
C710   C718    1.521   .     S
C711   H757    1.111   .     S
C711   H755    1.109   .     S
C711   H756    1.111   .     S
C712   C714    1.412   .     A
C712   C1718   1.405   .     S
C712   C1732   1.420   .     S
C713   N774    1.447   .     S
C713   H761    1.110   .     S
C713   H762    1.111   .     S
C713   H990    1.112   1_455 S
C714   C718    1.413   .     A
C715   C1729   1.420   1_554 S
C715   C1733   1.423   1_554 S
C716   C717    1.416   .     A
C716   C1732   1.423   .     S
C716   C1710   1.420   .     S
C717   C718    1.406   .     A
C717   N770    1.421   .     S
H730   N769    1.029   .     S
H732   N770    1.029   .     S
H736   N771    1.030   .     S
H739   C1722   1.110   1_554 S
H740   N772    1.031   .     S
H745   N773    1.030   .     S
H753   C1725   1.106   .     S
H760   N774    1.032   .     S
H764   C826    1.112   .     S
H767   C811    1.108   .     S
N771   C1710   1.425   .     S
N774   C910    1.429   1_455 S
O775   Zn789   1.944   .     S
O775   Zn790   1.941   .     S
O775   Zn791   1.941   .     S
O775   Zn788   1.964   .     S
O776   Zn789   1.932   .     S
O777   Zn791   1.939   .     S
O778   Zn790   1.933   .     S
O779   Zn788   1.927   .     S
O780   Zn788   1.936   .     S
O781   Zn791   1.940   .     S
O782   Zn789   1.936   .     S
O783   Zn790   1.944   .     S
O784   Zn791   1.938   .     S
O785   Zn788   1.932   .     S
O786   Zn789   1.947   .     S
O787   Zn790   1.940   .     S
C792   O897    1.274   .     A
C792   O895    1.260   .     A
C792   C798    1.432   .     S
C793   C807    1.403   .     A
C793   N885    1.433   .     S
C793   C828    1.411   .     A
C794   N882    1.428   .     S
C794   C806    1.410   .     A
C794   C807    1.404   .     A
C795   O898    1.272   .     A
C795   C797    1.465   .     S
C795   O896    1.294   .     A
C796   C827    1.422   .     A
C796   C808    1.428   .     A
C796   C805    1.492   .     S
C797   C911    1.365   .     S
C797   N1000   1.429   .     S
C799   C802    1.476   .     S
C799   C122    1.371   1_565 S
C799   C134    1.548   1_565 S
C800   C801    1.435   .     S
C801   O899    1.276   .     A
C801   O893    1.269   .     A
C802   O900    1.281   .     A
C802   O894    1.276   .     A
C803   C808    1.412   .     A
C803   C1831   1.394   .     S
C803   C1838   1.520   .     S
C804   O889    1.272   .     A
C804   O891    1.274   .     A
C804   C807    1.446   .     S
C805   O890    1.281   .     A
C805   O892    1.300   .     A
C806   C1846   1.420   1_554 S
C806   N1901   1.425   1_554 S
C808   N886    1.426   .     S
C809   N882    1.448   .     S
C809   H854    1.111   .     S
C809   H865    1.110   .     S
C809   H876    1.109   .     S
C810   H833    1.112   .     S
C810   H881    1.102   .     S
C810   C911    1.534   .     S
C810   C924    1.536   .     S
C811   H878    1.110   .     S
C811   H879    1.111   .     S
C812   H837    1.111   .     S
C812   H838    1.112   .     S
C813   H835    1.111   .     S
C813   H834    1.110   .     S
C813   C134    1.529   1_565 S
C813   H158    1.111   1_565 S
C814   H832    1.076   .     S
C814   C1820   1.394   1_554 S
C814   C1842   1.405   1_554 S
C815   H842    1.112   .     S
C815   H844    1.112   .     S
C815   C122    1.537   1_565 S
C815   C138    1.534   1_565 S
C816   H841    1.111   .     S
C816   H839    1.111   .     S
C816   H840    1.110   .     S
C817   H846    1.108   .     S
C817   N883    1.449   .     S
C817   H847    1.110   .     S
C817   H848    1.111   .     S
C818   H851    1.110   .     S
C818   N884    1.448   .     S
C818   H850    1.110   .     S
C818   H1869   1.110   .     S
C819   N885    1.452   .     S
C819   H857    1.108   .     S
C819   H855    1.111   .     S
C819   H856    1.112   .     S
C820   H860    1.111   .     S
C820   N886    1.446   .     S
C820   H859    1.109   .     S
C820   H861    1.110   .     S
C821   C822    1.527   .     S
C821   H867    1.112   .     S
C821   C1820   1.520   1_554 S
C821   H1883   1.106   1_554 S
C822   H864    1.111   .     S
C822   H862    1.108   .     S
C822   H863    1.110   .     S
C823   H872    1.110   .     S
C823   H871    1.105   .     S
C823   C824    1.529   .     S
C823   C831    1.521   .     S
C824   H870    1.111   .     S
C824   H868    1.109   .     S
C824   H869    1.111   .     S
C825   C827    1.412   .     A
C825   C1831   1.405   .     S
C825   C1845   1.420   .     S
C826   N887    1.447   .     S
C826   H874    1.110   .     S
C826   H875    1.111   .     S
C827   C831    1.413   .     A
C828   C1842   1.420   1_554 S
C828   C1846   1.423   1_554 S
C829   C830    1.416   .     A
C829   C1845   1.423   .     S
C829   C1823   1.420   .     S
C830   C831    1.406   .     A
C830   N883    1.421   .     S
H843   N882    1.029   .     S
H845   N883    1.029   .     S
H849   N884    1.030   .     S
H852   C1835   1.110   1_554 S
H853   N885    1.031   .     S
H858   N886    1.030   .     S
H866   C1838   1.106   .     S
H873   N887    1.032   .     S
H877   C939    1.112   .     S
H880   C924    1.108   .     S
N884   C1823   1.425   .     S
O888   Zn902   1.944   .     S
O888   Zn903   1.941   .     S
O888   Zn904   1.941   .     S
O888   Zn901   1.964   .     S
O889   Zn902   1.932   .     S
O890   Zn904   1.939   .     S
O891   Zn903   1.933   .     S
O892   Zn901   1.927   .     S
O893   Zn901   1.936   .     S
O894   Zn904   1.940   .     S
O895   Zn902   1.936   .     S
O896   Zn903   1.944   .     S
O897   Zn904   1.938   .     S
O898   Zn901   1.932   .     S
O899   Zn902   1.947   .     S
O900   Zn903   1.940   .     S
C905   O1010   1.274   .     A
C905   O1008   1.260   .     A
C905   C911    1.432   .     S
C906   C920    1.403   .     A
C906   N998    1.433   .     S
C906   C941    1.411   .     A
C907   N995    1.428   .     S
C907   C919    1.410   .     A
C907   C920    1.404   .     A
C908   O1011   1.272   .     A
C908   C910    1.465   .     S
C908   O1009   1.294   .     A
C909   C940    1.422   .     A
C909   C921    1.428   .     A
C909   C918    1.492   .     S
C910   C685    1.365   1_655 S
C910   N774    1.429   1_655 S
C912   C915    1.476   .     S
C912   C235    1.371   1_565 S
C912   C247    1.548   1_565 S
C913   C914    1.435   .     S
C914   O1012   1.276   .     A
C914   O1006   1.269   .     A
C915   O1013   1.281   .     A
C915   O1007   1.276   .     A
C916   C921    1.412   .     A
C916   C1944   1.394   .     S
C916   C1951   1.520   .     S
C917   O1002   1.272   .     A
C917   O1004   1.274   .     A
C917   C920    1.446   .     S
C918   O1003   1.281   .     A
C918   O1005   1.300   .     A
C919   C1959   1.420   1_554 S
C919   N2014   1.425   1_554 S
C921   N999    1.426   .     S
C922   N995    1.448   .     S
C922   H967    1.111   .     S
C922   H978    1.110   .     S
C922   H989    1.109   .     S
C923   H946    1.112   .     S
C923   H994    1.102   .     S
C923   C685    1.534   1_655 S
C923   C698    1.536   1_655 S
C924   H991    1.110   .     S
C924   H992    1.111   .     S
C925   H950    1.111   .     S
C925   H951    1.112   .     S
C926   H948    1.111   .     S
C926   H947    1.110   .     S
C926   C247    1.529   1_565 S
C926   H271    1.111   1_565 S
C927   H945    1.076   .     S
C927   C1933   1.394   1_554 S
C927   C1955   1.405   1_554 S
C928   H955    1.112   .     S
C928   H957    1.112   .     S
C928   C235    1.537   1_565 S
C928   C251    1.534   1_565 S
C929   H954    1.111   .     S
C929   H952    1.111   .     S
C929   H953    1.110   .     S
C930   H959    1.108   .     S
C930   N996    1.449   .     S
C930   H960    1.110   .     S
C930   H961    1.111   .     S
C931   H964    1.110   .     S
C931   N997    1.448   .     S
C931   H963    1.110   .     S
C931   H1982   1.110   .     S
C932   N998    1.452   .     S
C932   H970    1.108   .     S
C932   H968    1.111   .     S
C932   H969    1.112   .     S
C933   H973    1.111   .     S
C933   N999    1.446   .     S
C933   H972    1.109   .     S
C933   H974    1.110   .     S
C934   C935    1.527   .     S
C934   H980    1.112   .     S
C934   C1933   1.520   1_554 S
C934   H1996   1.106   1_554 S
C935   H977    1.111   .     S
C935   H975    1.108   .     S
C935   H976    1.110   .     S
C936   H985    1.110   .     S
C936   H984    1.105   .     S
C936   C937    1.529   .     S
C936   C944    1.521   .     S
C937   H983    1.111   .     S
C937   H981    1.109   .     S
C937   H982    1.111   .     S
C938   C940    1.412   .     A
C938   C1944   1.405   .     S
C938   C1958   1.420   .     S
C939   N1000   1.447   .     S
C939   H987    1.110   .     S
C939   H988    1.111   .     S
C940   C944    1.413   .     A
C941   C1955   1.420   1_554 S
C941   C1959   1.423   1_554 S
C942   C943    1.416   .     A
C942   C1958   1.423   .     S
C942   C1936   1.420   .     S
C943   C944    1.406   .     A
C943   N996    1.421   .     S
H956   N995    1.029   .     S
H958   N996    1.029   .     S
H962   N997    1.030   .     S
H965   C1948   1.110   1_554 S
H966   N998    1.031   .     S
H971   N999    1.030   .     S
H979   C1951   1.106   .     S
H986   N1000   1.032   .     S
H990   C713    1.112   1_655 S
H993   C698    1.108   1_655 S
N997   C1936   1.425   .     S
O1001  Zn1015  1.944   .     S
O1001  Zn1016  1.941   .     S
O1001  Zn1017  1.941   .     S
O1001  Zn1014  1.964   .     S
O1002  Zn1015  1.932   .     S
O1003  Zn1017  1.939   .     S
O1004  Zn1016  1.933   .     S
O1005  Zn1014  1.927   .     S
O1006  Zn1014  1.936   .     S
O1007  Zn1017  1.940   .     S
O1008  Zn1015  1.936   .     S
O1009  Zn1016  1.944   .     S
O1010  Zn1017  1.938   .     S
O1011  Zn1014  1.932   .     S
O1012  Zn1015  1.947   .     S
O1013  Zn1016  1.940   .     S
C1018  O1123   1.274   .     A
C1018  O1121   1.260   .     A
C1018  C1024   1.432   .     S
C1019  C1033   1.403   .     A
C1019  N1111   1.433   .     S
C1019  C1054   1.411   .     A
C1020  N1108   1.428   .     S
C1020  C1032   1.410   .     A
C1020  C1033   1.404   .     A
C1021  O1124   1.272   .     A
C1021  C1023   1.465   .     S
C1021  O1122   1.294   .     A
C1022  C1053   1.422   .     A
C1022  C1034   1.428   .     A
C1022  C1031   1.492   .     S
C1023  C1137   1.365   .     S
C1023  N1226   1.429   .     S
C1024  C1249   1.365   1_455 S
C1024  C1262   1.534   1_455 S
C1025  C1028   1.476   .     S
C1025  C1365   1.371   .     S
C1025  C1377   1.548   .     S
C1026  C1027   1.435   .     S
C1026  C1703   1.371   1_545 S
C1026  C1719   1.537   1_545 S
C1027  O1125   1.276   .     A
C1027  O1119   1.269   .     A
C1028  O1126   1.281   .     A
C1028  O1120   1.276   .     A
C1029  C1034   1.412   .     A
C1029  C23     1.394   1_556 S
C1029  C30     1.520   1_556 S
C1030  O1115   1.272   .     A
C1030  O1117   1.274   .     A
C1030  C1033   1.446   .     S
C1031  O1116   1.281   .     A
C1031  O1118   1.300   .     A
C1034  N1112   1.426   .     S
C1035  N1108   1.448   .     S
C1035  H1080   1.111   .     S
C1035  H1091   1.110   .     S
C1035  H1102   1.109   .     S
C1036  H1059   1.112   .     S
C1036  H1107   1.102   .     S
C1036  C1137   1.534   .     S
C1036  C1150   1.536   .     S
C1037  H1104   1.110   .     S
C1037  H1105   1.111   .     S
C1037  C1262   1.536   1_455 S
C1037  H1332   1.108   1_455 S
C1038  H1063   1.111   .     S
C1038  H1064   1.112   .     S
C1038  C1703   1.548   1_545 S
C1038  C1717   1.529   1_545 S
C1039  H1061   1.111   .     S
C1039  H1060   1.110   .     S
C1039  C1377   1.529   .     S
C1039  H1401   1.111   .     S
C1040  H1058   1.076   .     S
C1041  H1068   1.112   .     S
C1041  H1070   1.112   .     S
C1041  C1365   1.537   .     S
C1041  C1381   1.534   .     S
C1042  H1067   1.111   .     S
C1042  H1065   1.111   .     S
C1042  H1066   1.110   .     S
C1042  C1719   1.534   1_545 S
C1043  H1072   1.108   .     S
C1043  N1109   1.449   .     S
C1043  H1073   1.110   .     S
C1043  H1074   1.111   .     S
C1044  H1077   1.110   .     S
C1044  N1110   1.448   .     S
C1044  H1076   1.110   .     S
C1044  H61     1.110   1_556 S
C1045  N1111   1.452   .     S
C1045  H1083   1.108   .     S
C1045  H1081   1.111   .     S
C1045  H1082   1.112   .     S
C1046  H1086   1.111   .     S
C1046  N1112   1.446   .     S
C1046  H1085   1.109   .     S
C1046  H1087   1.110   .     S
C1047  C1048   1.527   .     S
C1047  H1093   1.112   .     S
C1048  H1090   1.111   .     S
C1048  H1088   1.108   .     S
C1048  H1089   1.110   .     S
C1049  H1098   1.110   .     S
C1049  H1097   1.105   .     S
C1049  C1050   1.529   .     S
C1049  C1057   1.521   .     S
C1050  H1096   1.111   .     S
C1050  H1094   1.109   .     S
C1050  H1095   1.111   .     S
C1051  C1053   1.412   .     A
C1051  C23     1.405   1_556 S
C1051  C37     1.420   1_556 S
C1052  N1113   1.447   .     S
C1052  H1100   1.110   .     S
C1052  H1101   1.111   .     S
C1052  H1329   1.112   1_455 S
C1053  C1057   1.413   .     A
C1055  C1056   1.416   .     A
C1055  C37     1.423   1_556 S
C1055  C15     1.420   1_556 S
C1056  C1057   1.406   .     A
C1056  N1109   1.421   .     S
H1062  C1717   1.111   1_545 S
H1069  N1108   1.029   .     S
H1071  N1109   1.029   .     S
H1075  N1110   1.030   .     S
H1079  N1111   1.031   .     S
H1084  N1112   1.030   .     S
H1092  C30     1.106   1_556 S
H1099  N1113   1.032   .     S
H1103  C1165   1.112   .     S
H1106  C1150   1.108   .     S
N1110  C15     1.425   1_556 S
N1113  C1249   1.429   1_455 S
O1114  Zn1128  1.944   .     S
O1114  Zn1129  1.941   .     S
O1114  Zn1130  1.941   .     S
O1114  Zn1127  1.964   .     S
O1115  Zn1128  1.932   .     S
O1116  Zn1130  1.939   .     S
O1117  Zn1129  1.933   .     S
O1118  Zn1127  1.927   .     S
O1119  Zn1127  1.936   .     S
O1120  Zn1130  1.940   .     S
O1121  Zn1128  1.936   .     S
O1122  Zn1129  1.944   .     S
O1123  Zn1130  1.938   .     S
O1124  Zn1127  1.932   .     S
O1125  Zn1128  1.947   .     S
O1126  Zn1129  1.940   .     S
C1131  O1236   1.274   .     A
C1131  O1234   1.260   .     A
C1131  C1137   1.432   .     S
C1132  C1146   1.403   .     A
C1132  N1224   1.433   .     S
C1132  C1167   1.411   .     A
C1133  N1221   1.428   .     S
C1133  C1145   1.410   .     A
C1133  C1146   1.404   .     A
C1134  O1237   1.272   .     A
C1134  C1136   1.465   .     S
C1134  O1235   1.294   .     A
C1135  C1166   1.422   .     A
C1135  C1147   1.428   .     A
C1135  C1144   1.492   .     S
C1136  C1250   1.365   .     S
C1136  N1339   1.429   .     S
C1138  C1141   1.476   .     S
C1138  C1478   1.371   .     S
C1138  C1490   1.548   .     S
C1139  C1140   1.435   .     S
C1139  C1816   1.371   1_545 S
C1139  C1832   1.537   1_545 S
C1140  O1238   1.276   .     A
C1140  O1232   1.269   .     A
C1141  O1239   1.281   .     A
C1141  O1233   1.276   .     A
C1142  C1147   1.412   .     A
C1142  C136    1.394   1_556 S
C1142  C143    1.520   1_556 S
C1143  O1228   1.272   .     A
C1143  O1230   1.274   .     A
C1143  C1146   1.446   .     S
C1144  O1229   1.281   .     A
C1144  O1231   1.300   .     A
C1147  N1225   1.426   .     S
C1148  N1221   1.448   .     S
C1148  H1193   1.111   .     S
C1148  H1204   1.110   .     S
C1148  H1215   1.109   .     S
C1149  H1172   1.112   .     S
C1149  H1220   1.102   .     S
C1149  C1250   1.534   .     S
C1149  C1263   1.536   .     S
C1150  H1217   1.110   .     S
C1150  H1218   1.111   .     S
C1151  H1176   1.111   .     S
C1151  H1177   1.112   .     S
C1151  C1816   1.548   1_545 S
C1151  C1830   1.529   1_545 S
C1152  H1174   1.111   .     S
C1152  H1173   1.110   .     S
C1152  C1490   1.529   .     S
C1152  H1514   1.111   .     S
C1153  H1171   1.076   .     S
C1154  H1181   1.112   .     S
C1154  H1183   1.112   .     S
C1154  C1478   1.537   .     S
C1154  C1494   1.534   .     S
C1155  H1180   1.111   .     S
C1155  H1178   1.111   .     S
C1155  H1179   1.110   .     S
C1155  C1832   1.534   1_545 S
C1156  H1185   1.108   .     S
C1156  N1222   1.449   .     S
C1156  H1186   1.110   .     S
C1156  H1187   1.111   .     S
C1157  H1190   1.110   .     S
C1157  N1223   1.448   .     S
C1157  H1189   1.110   .     S
C1157  H174    1.110   1_556 S
C1158  N1224   1.452   .     S
C1158  H1196   1.108   .     S
C1158  H1194   1.111   .     S
C1158  H1195   1.112   .     S
C1159  H1199   1.111   .     S
C1159  N1225   1.446   .     S
C1159  H1198   1.109   .     S
C1159  H1200   1.110   .     S
C1160  C1161   1.527   .     S
C1160  H1206   1.112   .     S
C1161  H1203   1.111   .     S
C1161  H1201   1.108   .     S
C1161  H1202   1.110   .     S
C1162  H1211   1.110   .     S
C1162  H1210   1.105   .     S
C1162  C1163   1.529   .     S
C1162  C1170   1.521   .     S
C1163  H1209   1.111   .     S
C1163  H1207   1.109   .     S
C1163  H1208   1.111   .     S
C1164  C1166   1.412   .     A
C1164  C136    1.405   1_556 S
C1164  C150    1.420   1_556 S
C1165  N1226   1.447   .     S
C1165  H1213   1.110   .     S
C1165  H1214   1.111   .     S
C1166  C1170   1.413   .     A
C1168  C1169   1.416   .     A
C1168  C150    1.423   1_556 S
C1168  C128    1.420   1_556 S
C1169  C1170   1.406   .     A
C1169  N1222   1.421   .     S
H1175  C1830   1.111   1_545 S
H1182  N1221   1.029   .     S
H1184  N1222   1.029   .     S
H1188  N1223   1.030   .     S
H1192  N1224   1.031   .     S
H1197  N1225   1.030   .     S
H1205  C143    1.106   1_556 S
H1212  N1226   1.032   .     S
H1216  C1278   1.112   .     S
H1219  C1263   1.108   .     S
N1223  C128    1.425   1_556 S
O1227  Zn1241  1.944   .     S
O1227  Zn1242  1.941   .     S
O1227  Zn1243  1.941   .     S
O1227  Zn1240  1.964   .     S
O1228  Zn1241  1.932   .     S
O1229  Zn1243  1.939   .     S
O1230  Zn1242  1.933   .     S
O1231  Zn1240  1.927   .     S
O1232  Zn1240  1.936   .     S
O1233  Zn1243  1.940   .     S
O1234  Zn1241  1.936   .     S
O1235  Zn1242  1.944   .     S
O1236  Zn1243  1.938   .     S
O1237  Zn1240  1.932   .     S
O1238  Zn1241  1.947   .     S
O1239  Zn1242  1.940   .     S
C1244  O1349   1.274   .     A
C1244  O1347   1.260   .     A
C1244  C1250   1.432   .     S
C1245  C1259   1.403   .     A
C1245  N1337   1.433   .     S
C1245  C1280   1.411   .     A
C1246  N1334   1.428   .     S
C1246  C1258   1.410   .     A
C1246  C1259   1.404   .     A
C1247  O1350   1.272   .     A
C1247  C1249   1.465   .     S
C1247  O1348   1.294   .     A
C1248  C1279   1.422   .     A
C1248  C1260   1.428   .     A
C1248  C1257   1.492   .     S
C1249  C1024   1.365   1_655 S
C1249  N1113   1.429   1_655 S
C1251  C1254   1.476   .     S
C1251  C1591   1.371   .     S
C1251  C1603   1.548   .     S
C1252  C1253   1.435   .     S
C1252  C1929   1.371   1_545 S
C1252  C1945   1.537   1_545 S
C1253  O1351   1.276   .     A
C1253  O1345   1.269   .     A
C1254  O1352   1.281   .     A
C1254  O1346   1.276   .     A
C1255  C1260   1.412   .     A
C1255  C249    1.394   1_556 S
C1255  C256    1.520   1_556 S
C1256  O1341   1.272   .     A
C1256  O1343   1.274   .     A
C1256  C1259   1.446   .     S
C1257  O1342   1.281   .     A
C1257  O1344   1.300   .     A
C1260  N1338   1.426   .     S
C1261  N1334   1.448   .     S
C1261  H1306   1.111   .     S
C1261  H1317   1.110   .     S
C1261  H1328   1.109   .     S
C1262  H1285   1.112   .     S
C1262  H1333   1.102   .     S
C1262  C1024   1.534   1_655 S
C1262  C1037   1.536   1_655 S
C1263  H1330   1.110   .     S
C1263  H1331   1.111   .     S
C1264  H1289   1.111   .     S
C1264  H1290   1.112   .     S
C1264  C1929   1.548   1_545 S
C1264  C1943   1.529   1_545 S
C1265  H1287   1.111   .     S
C1265  H1286   1.110   .     S
C1265  C1603   1.529   .     S
C1265  H1627   1.111   .     S
C1266  H1284   1.076   .     S
C1267  H1294   1.112   .     S
C1267  H1296   1.112   .     S
C1267  C1591   1.537   .     S
C1267  C1607   1.534   .     S
C1268  H1293   1.111   .     S
C1268  H1291   1.111   .     S
C1268  H1292   1.110   .     S
C1268  C1945   1.534   1_545 S
C1269  H1298   1.108   .     S
C1269  N1335   1.449   .     S
C1269  H1299   1.110   .     S
C1269  H1300   1.111   .     S
C1270  H1303   1.110   .     S
C1270  N1336   1.448   .     S
C1270  H1302   1.110   .     S
C1270  H287    1.110   1_556 S
C1271  N1337   1.452   .     S
C1271  H1309   1.108   .     S
C1271  H1307   1.111   .     S
C1271  H1308   1.112   .     S
C1272  H1312   1.111   .     S
C1272  N1338   1.446   .     S
C1272  H1311   1.109   .     S
C1272  H1313   1.110   .     S
C1273  C1274   1.527   .     S
C1273  H1319   1.112   .     S
C1274  H1316   1.111   .     S
C1274  H1314   1.108   .     S
C1274  H1315   1.110   .     S
C1275  H1324   1.110   .     S
C1275  H1323   1.105   .     S
C1275  C1276   1.529   .     S
C1275  C1283   1.521   .     S
C1276  H1322   1.111   .     S
C1276  H1320   1.109   .     S
C1276  H1321   1.111   .     S
C1277  C1279   1.412   .     A
C1277  C249    1.405   1_556 S
C1277  C263    1.420   1_556 S
C1278  N1339   1.447   .     S
C1278  H1326   1.110   .     S
C1278  H1327   1.111   .     S
C1279  C1283   1.413   .     A
C1281  C1282   1.416   .     A
C1281  C263    1.423   1_556 S
C1281  C241    1.420   1_556 S
C1282  C1283   1.406   .     A
C1282  N1335   1.421   .     S
H1288  C1943   1.111   1_545 S
H1295  N1334   1.029   .     S
H1297  N1335   1.029   .     S
H1301  N1336   1.030   .     S
H1305  N1337   1.031   .     S
H1310  N1338   1.030   .     S
H1318  C256    1.106   1_556 S
H1325  N1339   1.032   .     S
H1329  C1052   1.112   1_655 S
H1332  C1037   1.108   1_655 S
N1336  C241    1.425   1_556 S
O1340  Zn1354  1.944   .     S
O1340  Zn1355  1.941   .     S
O1340  Zn1356  1.941   .     S
O1340  Zn1353  1.964   .     S
O1341  Zn1354  1.932   .     S
O1342  Zn1356  1.939   .     S
O1343  Zn1355  1.933   .     S
O1344  Zn1353  1.927   .     S
O1345  Zn1353  1.936   .     S
O1346  Zn1356  1.940   .     S
O1347  Zn1354  1.936   .     S
O1348  Zn1355  1.944   .     S
O1349  Zn1356  1.938   .     S
O1350  Zn1353  1.932   .     S
O1351  Zn1354  1.947   .     S
O1352  Zn1355  1.940   .     S
C1357  O1462   1.274   .     A
C1357  O1460   1.260   .     A
C1357  C1363   1.432   .     S
C1358  C1372   1.403   .     A
C1358  N1450   1.433   .     S
C1358  C1393   1.411   .     A
C1359  N1447   1.428   .     S
C1359  C1371   1.410   .     A
C1359  C1372   1.404   .     A
C1360  O1463   1.272   .     A
C1360  C1362   1.465   .     S
C1360  O1461   1.294   .     A
C1361  C1392   1.422   .     A
C1361  C1373   1.428   .     A
C1361  C1370   1.492   .     S
C1362  C1476   1.365   .     S
C1362  N1565   1.429   .     S
C1363  C1588   1.365   1_455 S
C1363  C1601   1.534   1_455 S
C1364  C1367   1.476   .     S
C1364  C1704   1.371   .     S
C1364  C1716   1.548   .     S
C1365  C1366   1.435   .     S
C1366  O1464   1.276   .     A
C1366  O1458   1.269   .     A
C1367  O1465   1.281   .     A
C1367  O1459   1.276   .     A
C1368  C1373   1.412   .     A
C1368  C362    1.394   1_556 S
C1368  C369    1.520   1_556 S
C1369  O1454   1.272   .     A
C1369  O1456   1.274   .     A
C1369  C1372   1.446   .     S
C1370  O1455   1.281   .     A
C1370  O1457   1.300   .     A
C1373  N1451   1.426   .     S
C1374  N1447   1.448   .     S
C1374  H1419   1.111   .     S
C1374  H1430   1.110   .     S
C1374  H1441   1.109   .     S
C1375  H1398   1.112   .     S
C1375  H1446   1.102   .     S
C1375  C1476   1.534   .     S
C1375  C1489   1.536   .     S
C1376  H1443   1.110   .     S
C1376  H1444   1.111   .     S
C1376  C1601   1.536   1_455 S
C1376  H1671   1.108   1_455 S
C1377  H1402   1.111   .     S
C1377  H1403   1.112   .     S
C1378  H1400   1.111   .     S
C1378  H1399   1.110   .     S
C1378  C1716   1.529   .     S
C1378  H1740   1.111   .     S
C1379  H1397   1.076   .     S
C1380  H1407   1.112   .     S
C1380  H1409   1.112   .     S
C1380  C1704   1.537   .     S
C1380  C1720   1.534   .     S
C1381  H1406   1.111   .     S
C1381  H1404   1.111   .     S
C1381  H1405   1.110   .     S
C1382  H1411   1.108   .     S
C1382  N1448   1.449   .     S
C1382  H1412   1.110   .     S
C1382  H1413   1.111   .     S
C1383  H1416   1.110   .     S
C1383  N1449   1.448   .     S
C1383  H1415   1.110   .     S
C1383  H400    1.110   1_556 S
C1384  N1450   1.452   .     S
C1384  H1422   1.108   .     S
C1384  H1420   1.111   .     S
C1384  H1421   1.112   .     S
C1385  H1425   1.111   .     S
C1385  N1451   1.446   .     S
C1385  H1424   1.109   .     S
C1385  H1426   1.110   .     S
C1386  C1387   1.527   .     S
C1386  H1432   1.112   .     S
C1387  H1429   1.111   .     S
C1387  H1427   1.108   .     S
C1387  H1428   1.110   .     S
C1388  H1437   1.110   .     S
C1388  H1436   1.105   .     S
C1388  C1389   1.529   .     S
C1388  C1396   1.521   .     S
C1389  H1435   1.111   .     S
C1389  H1433   1.109   .     S
C1389  H1434   1.111   .     S
C1390  C1392   1.412   .     A
C1390  C362    1.405   1_556 S
C1390  C376    1.420   1_556 S
C1391  N1452   1.447   .     S
C1391  H1439   1.110   .     S
C1391  H1440   1.111   .     S
C1391  H1668   1.112   1_455 S
C1392  C1396   1.413   .     A
C1394  C1395   1.416   .     A
C1394  C376    1.423   1_556 S
C1394  C354    1.420   1_556 S
C1395  C1396   1.406   .     A
C1395  N1448   1.421   .     S
H1408  N1447   1.029   .     S
H1410  N1448   1.029   .     S
H1414  N1449   1.030   .     S
H1418  N1450   1.031   .     S
H1423  N1451   1.030   .     S
H1431  C369    1.106   1_556 S
H1438  N1452   1.032   .     S
H1442  C1504   1.112   .     S
H1445  C1489   1.108   .     S
N1449  C354    1.425   1_556 S
N1452  C1588   1.429   1_455 S
O1453  Zn1467  1.944   .     S
O1453  Zn1468  1.941   .     S
O1453  Zn1469  1.941   .     S
O1453  Zn1466  1.964   .     S
O1454  Zn1467  1.932   .     S
O1455  Zn1469  1.939   .     S
O1456  Zn1468  1.933   .     S
O1457  Zn1466  1.927   .     S
O1458  Zn1466  1.936   .     S
O1459  Zn1469  1.940   .     S
O1460  Zn1467  1.936   .     S
O1461  Zn1468  1.944   .     S
O1462  Zn1469  1.938   .     S
O1463  Zn1466  1.932   .     S
O1464  Zn1467  1.947   .     S
O1465  Zn1468  1.940   .     S
C1470  O1575   1.274   .     A
C1470  O1573   1.260   .     A
C1470  C1476   1.432   .     S
C1471  C1485   1.403   .     A
C1471  N1563   1.433   .     S
C1471  C1506   1.411   .     A
C1472  N1560   1.428   .     S
C1472  C1484   1.410   .     A
C1472  C1485   1.404   .     A
C1473  O1576   1.272   .     A
C1473  C1475   1.465   .     S
C1473  O1574   1.294   .     A
C1474  C1505   1.422   .     A
C1474  C1486   1.428   .     A
C1474  C1483   1.492   .     S
C1475  C1589   1.365   .     S
C1475  N1678   1.429   .     S
C1477  C1480   1.476   .     S
C1477  C1817   1.371   .     S
C1477  C1829   1.548   .     S
C1478  C1479   1.435   .     S
C1479  O1577   1.276   .     A
C1479  O1571   1.269   .     A
C1480  O1578   1.281   .     A
C1480  O1572   1.276   .     A
C1481  C1486   1.412   .     A
C1481  C475    1.394   1_556 S
C1481  C482    1.520   1_556 S
C1482  O1567   1.272   .     A
C1482  O1569   1.274   .     A
C1482  C1485   1.446   .     S
C1483  O1568   1.281   .     A
C1483  O1570   1.300   .     A
C1486  N1564   1.426   .     S
C1487  N1560   1.448   .     S
C1487  H1532   1.111   .     S
C1487  H1543   1.110   .     S
C1487  H1554   1.109   .     S
C1488  H1511   1.112   .     S
C1488  H1559   1.102   .     S
C1488  C1589   1.534   .     S
C1488  C1602   1.536   .     S
C1489  H1556   1.110   .     S
C1489  H1557   1.111   .     S
C1490  H1515   1.111   .     S
C1490  H1516   1.112   .     S
C1491  H1513   1.111   .     S
C1491  H1512   1.110   .     S
C1491  C1829   1.529   .     S
C1491  H1853   1.111   .     S
C1492  H1510   1.076   .     S
C1493  H1520   1.112   .     S
C1493  H1522   1.112   .     S
C1493  C1817   1.537   .     S
C1493  C1833   1.534   .     S
C1494  H1519   1.111   .     S
C1494  H1517   1.111   .     S
C1494  H1518   1.110   .     S
C1495  H1524   1.108   .     S
C1495  N1561   1.449   .     S
C1495  H1525   1.110   .     S
C1495  H1526   1.111   .     S
C1496  H1529   1.110   .     S
C1496  N1562   1.448   .     S
C1496  H1528   1.110   .     S
C1496  H513    1.110   1_556 S
C1497  N1563   1.452   .     S
C1497  H1535   1.108   .     S
C1497  H1533   1.111   .     S
C1497  H1534   1.112   .     S
C1498  H1538   1.111   .     S
C1498  N1564   1.446   .     S
C1498  H1537   1.109   .     S
C1498  H1539   1.110   .     S
C1499  C1500   1.527   .     S
C1499  H1545   1.112   .     S
C1500  H1542   1.111   .     S
C1500  H1540   1.108   .     S
C1500  H1541   1.110   .     S
C1501  H1550   1.110   .     S
C1501  H1549   1.105   .     S
C1501  C1502   1.529   .     S
C1501  C1509   1.521   .     S
C1502  H1548   1.111   .     S
C1502  H1546   1.109   .     S
C1502  H1547   1.111   .     S
C1503  C1505   1.412   .     A
C1503  C475    1.405   1_556 S
C1503  C489    1.420   1_556 S
C1504  N1565   1.447   .     S
C1504  H1552   1.110   .     S
C1504  H1553   1.111   .     S
C1505  C1509   1.413   .     A
C1507  C1508   1.416   .     A
C1507  C489    1.423   1_556 S
C1507  C467    1.420   1_556 S
C1508  C1509   1.406   .     A
C1508  N1561   1.421   .     S
H1521  N1560   1.029   .     S
H1523  N1561   1.029   .     S
H1527  N1562   1.030   .     S
H1531  N1563   1.031   .     S
H1536  N1564   1.030   .     S
H1544  C482    1.106   1_556 S
H1551  N1565   1.032   .     S
H1555  C1617   1.112   .     S
H1558  C1602   1.108   .     S
N1562  C467    1.425   1_556 S
O1566  Zn1580  1.944   .     S
O1566  Zn1581  1.941   .     S
O1566  Zn1582  1.941   .     S
O1566  Zn1579  1.964   .     S
O1567  Zn1580  1.932   .     S
O1568  Zn1582  1.939   .     S
O1569  Zn1581  1.933   .     S
O1570  Zn1579  1.927   .     S
O1571  Zn1579  1.936   .     S
O1572  Zn1582  1.940   .     S
O1573  Zn1580  1.936   .     S
O1574  Zn1581  1.944   .     S
O1575  Zn1582  1.938   .     S
O1576  Zn1579  1.932   .     S
O1577  Zn1580  1.947   .     S
O1578  Zn1581  1.940   .     S
C1583  O1688   1.274   .     A
C1583  O1686   1.260   .     A
C1583  C1589   1.432   .     S
C1584  C1598   1.403   .     A
C1584  N1676   1.433   .     S
C1584  C1619   1.411   .     A
C1585  N1673   1.428   .     S
C1585  C1597   1.410   .     A
C1585  C1598   1.404   .     A
C1586  O1689   1.272   .     A
C1586  C1588   1.465   .     S
C1586  O1687   1.294   .     A
C1587  C1618   1.422   .     A
C1587  C1599   1.428   .     A
C1587  C1596   1.492   .     S
C1588  C1363   1.365   1_655 S
C1588  N1452   1.429   1_655 S
C1590  C1593   1.476   .     S
C1590  C1930   1.371   .     S
C1590  C1942   1.548   .     S
C1591  C1592   1.435   .     S
C1592  O1690   1.276   .     A
C1592  O1684   1.269   .     A
C1593  O1691   1.281   .     A
C1593  O1685   1.276   .     A
C1594  C1599   1.412   .     A
C1594  C588    1.394   1_556 S
C1594  C595    1.520   1_556 S
C1595  O1680   1.272   .     A
C1595  O1682   1.274   .     A
C1595  C1598   1.446   .     S
C1596  O1681   1.281   .     A
C1596  O1683   1.300   .     A
C1599  N1677   1.426   .     S
C1600  N1673   1.448   .     S
C1600  H1645   1.111   .     S
C1600  H1656   1.110   .     S
C1600  H1667   1.109   .     S
C1601  H1624   1.112   .     S
C1601  H1672   1.102   .     S
C1601  C1363   1.534   1_655 S
C1601  C1376   1.536   1_655 S
C1602  H1669   1.110   .     S
C1602  H1670   1.111   .     S
C1603  H1628   1.111   .     S
C1603  H1629   1.112   .     S
C1604  H1626   1.111   .     S
C1604  H1625   1.110   .     S
C1604  C1942   1.529   .     S
C1604  H1966   1.111   .     S
C1605  H1623   1.076   .     S
C1606  H1633   1.112   .     S
C1606  H1635   1.112   .     S
C1606  C1930   1.537   .     S
C1606  C1946   1.534   .     S
C1607  H1632   1.111   .     S
C1607  H1630   1.111   .     S
C1607  H1631   1.110   .     S
C1608  H1637   1.108   .     S
C1608  N1674   1.449   .     S
C1608  H1638   1.110   .     S
C1608  H1639   1.111   .     S
C1609  H1642   1.110   .     S
C1609  N1675   1.448   .     S
C1609  H1641   1.110   .     S
C1609  H626    1.110   1_556 S
C1610  N1676   1.452   .     S
C1610  H1648   1.108   .     S
C1610  H1646   1.111   .     S
C1610  H1647   1.112   .     S
C1611  H1651   1.111   .     S
C1611  N1677   1.446   .     S
C1611  H1650   1.109   .     S
C1611  H1652   1.110   .     S
C1612  C1613   1.527   .     S
C1612  H1658   1.112   .     S
C1613  H1655   1.111   .     S
C1613  H1653   1.108   .     S
C1613  H1654   1.110   .     S
C1614  H1663   1.110   .     S
C1614  H1662   1.105   .     S
C1614  C1615   1.529   .     S
C1614  C1622   1.521   .     S
C1615  H1661   1.111   .     S
C1615  H1659   1.109   .     S
C1615  H1660   1.111   .     S
C1616  C1618   1.412   .     A
C1616  C588    1.405   1_556 S
C1616  C602    1.420   1_556 S
C1617  N1678   1.447   .     S
C1617  H1665   1.110   .     S
C1617  H1666   1.111   .     S
C1618  C1622   1.413   .     A
C1620  C1621   1.416   .     A
C1620  C602    1.423   1_556 S
C1620  C580    1.420   1_556 S
C1621  C1622   1.406   .     A
C1621  N1674   1.421   .     S
H1634  N1673   1.029   .     S
H1636  N1674   1.029   .     S
H1640  N1675   1.030   .     S
H1644  N1676   1.031   .     S
H1649  N1677   1.030   .     S
H1657  C595    1.106   1_556 S
H1664  N1678   1.032   .     S
H1668  C1391   1.112   1_655 S
H1671  C1376   1.108   1_655 S
N1675  C580    1.425   1_556 S
O1679  Zn1693  1.944   .     S
O1679  Zn1694  1.941   .     S
O1679  Zn1695  1.941   .     S
O1679  Zn1692  1.964   .     S
O1680  Zn1693  1.932   .     S
O1681  Zn1695  1.939   .     S
O1682  Zn1694  1.933   .     S
O1683  Zn1692  1.927   .     S
O1684  Zn1692  1.936   .     S
O1685  Zn1695  1.940   .     S
O1686  Zn1693  1.936   .     S
O1687  Zn1694  1.944   .     S
O1688  Zn1695  1.938   .     S
O1689  Zn1692  1.932   .     S
O1690  Zn1693  1.947   .     S
O1691  Zn1694  1.940   .     S
C1696  O1801   1.274   .     A
C1696  O1799   1.260   .     A
C1696  C1702   1.432   .     S
C1697  C1711   1.403   .     A
C1697  N1789   1.433   .     S
C1697  C1732   1.411   .     A
C1698  N1786   1.428   .     S
C1698  C1710   1.410   .     A
C1698  C1711   1.404   .     A
C1699  O1802   1.272   .     A
C1699  C1701   1.465   .     S
C1699  O1800   1.294   .     A
C1700  C1731   1.422   .     A
C1700  C1712   1.428   .     A
C1700  C1709   1.492   .     S
C1701  C1815   1.365   .     S
C1701  N1904   1.429   .     S
C1702  C1927   1.365   1_455 S
C1702  C1940   1.534   1_455 S
C1703  C1706   1.476   .     S
C1703  C1026   1.371   1_565 S
C1703  C1038   1.548   1_565 S
C1704  C1705   1.435   .     S
C1705  O1803   1.276   .     A
C1705  O1797   1.269   .     A
C1706  O1804   1.281   .     A
C1706  O1798   1.276   .     A
C1707  C1712   1.412   .     A
C1707  C701    1.394   1_556 S
C1707  C708    1.520   1_556 S
C1708  O1793   1.272   .     A
C1708  O1795   1.274   .     A
C1708  C1711   1.446   .     S
C1709  O1794   1.281   .     A
C1709  O1796   1.300   .     A
C1712  N1790   1.426   .     S
C1713  N1786   1.448   .     S
C1713  H1758   1.111   .     S
C1713  H1769   1.110   .     S
C1713  H1780   1.109   .     S
C1714  H1737   1.112   .     S
C1714  H1785   1.102   .     S
C1714  C1815   1.534   .     S
C1714  C1828   1.536   .     S
C1715  H1782   1.110   .     S
C1715  H1783   1.111   .     S
C1715  C1940   1.536   1_455 S
C1715  H2010   1.108   1_455 S
C1716  H1741   1.111   .     S
C1716  H1742   1.112   .     S
C1717  H1739   1.111   .     S
C1717  H1738   1.110   .     S
C1717  C1038   1.529   1_565 S
C1717  H1062   1.111   1_565 S
C1718  H1736   1.076   .     S
C1719  H1746   1.112   .     S
C1719  H1748   1.112   .     S
C1719  C1026   1.537   1_565 S
C1719  C1042   1.534   1_565 S
C1720  H1745   1.111   .     S
C1720  H1743   1.111   .     S
C1720  H1744   1.110   .     S
C1721  H1750   1.108   .     S
C1721  N1787   1.449   .     S
C1721  H1751   1.110   .     S
C1721  H1752   1.111   .     S
C1722  H1755   1.110   .     S
C1722  N1788   1.448   .     S
C1722  H1754   1.110   .     S
C1722  H739    1.110   1_556 S
C1723  N1789   1.452   .     S
C1723  H1761   1.108   .     S
C1723  H1759   1.111   .     S
C1723  H1760   1.112   .     S
C1724  H1764   1.111   .     S
C1724  N1790   1.446   .     S
C1724  H1763   1.109   .     S
C1724  H1765   1.110   .     S
C1725  C1726   1.527   .     S
C1725  H1771   1.112   .     S
C1726  H1768   1.111   .     S
C1726  H1766   1.108   .     S
C1726  H1767   1.110   .     S
C1727  H1776   1.110   .     S
C1727  H1775   1.105   .     S
C1727  C1728   1.529   .     S
C1727  C1735   1.521   .     S
C1728  H1774   1.111   .     S
C1728  H1772   1.109   .     S
C1728  H1773   1.111   .     S
C1729  C1731   1.412   .     A
C1729  C701    1.405   1_556 S
C1729  C715    1.420   1_556 S
C1730  N1791   1.447   .     S
C1730  H1778   1.110   .     S
C1730  H1779   1.111   .     S
C1730  H2007   1.112   1_455 S
C1731  C1735   1.413   .     A
C1733  C1734   1.416   .     A
C1733  C715    1.423   1_556 S
C1733  C693    1.420   1_556 S
C1734  C1735   1.406   .     A
C1734  N1787   1.421   .     S
H1747  N1786   1.029   .     S
H1749  N1787   1.029   .     S
H1753  N1788   1.030   .     S
H1757  N1789   1.031   .     S
H1762  N1790   1.030   .     S
H1770  C708    1.106   1_556 S
H1777  N1791   1.032   .     S
H1781  C1843   1.112   .     S
H1784  C1828   1.108   .     S
N1788  C693    1.425   1_556 S
N1791  C1927   1.429   1_455 S
O1792  Zn1806  1.944   .     S
O1792  Zn1807  1.941   .     S
O1792  Zn1808  1.941   .     S
O1792  Zn1805  1.964   .     S
O1793  Zn1806  1.932   .     S
O1794  Zn1808  1.939   .     S
O1795  Zn1807  1.933   .     S
O1796  Zn1805  1.927   .     S
O1797  Zn1805  1.936   .     S
O1798  Zn1808  1.940   .     S
O1799  Zn1806  1.936   .     S
O1800  Zn1807  1.944   .     S
O1801  Zn1808  1.938   .     S
O1802  Zn1805  1.932   .     S
O1803  Zn1806  1.947   .     S
O1804  Zn1807  1.940   .     S
C1809  O1914   1.274   .     A
C1809  O1912   1.260   .     A
C1809  C1815   1.432   .     S
C1810  C1824   1.403   .     A
C1810  N1902   1.433   .     S
C1810  C1845   1.411   .     A
C1811  N1899   1.428   .     S
C1811  C1823   1.410   .     A
C1811  C1824   1.404   .     A
C1812  O1915   1.272   .     A
C1812  C1814   1.465   .     S
C1812  O1913   1.294   .     A
C1813  C1844   1.422   .     A
C1813  C1825   1.428   .     A
C1813  C1822   1.492   .     S
C1814  C1928   1.365   .     S
C1814  N2017   1.429   .     S
C1816  C1819   1.476   .     S
C1816  C1139   1.371   1_565 S
C1816  C1151   1.548   1_565 S
C1817  C1818   1.435   .     S
C1818  O1916   1.276   .     A
C1818  O1910   1.269   .     A
C1819  O1917   1.281   .     A
C1819  O1911   1.276   .     A
C1820  C1825   1.412   .     A
C1820  C814    1.394   1_556 S
C1820  C821    1.520   1_556 S
C1821  O1906   1.272   .     A
C1821  O1908   1.274   .     A
C1821  C1824   1.446   .     S
C1822  O1907   1.281   .     A
C1822  O1909   1.300   .     A
C1825  N1903   1.426   .     S
C1826  N1899   1.448   .     S
C1826  H1871   1.111   .     S
C1826  H1882   1.110   .     S
C1826  H1893   1.109   .     S
C1827  H1850   1.112   .     S
C1827  H1898   1.102   .     S
C1827  C1928   1.534   .     S
C1827  C1941   1.536   .     S
C1828  H1895   1.110   .     S
C1828  H1896   1.111   .     S
C1829  H1854   1.111   .     S
C1829  H1855   1.112   .     S
C1830  H1852   1.111   .     S
C1830  H1851   1.110   .     S
C1830  C1151   1.529   1_565 S
C1830  H1175   1.111   1_565 S
C1831  H1849   1.076   .     S
C1832  H1859   1.112   .     S
C1832  H1861   1.112   .     S
C1832  C1139   1.537   1_565 S
C1832  C1155   1.534   1_565 S
C1833  H1858   1.111   .     S
C1833  H1856   1.111   .     S
C1833  H1857   1.110   .     S
C1834  H1863   1.108   .     S
C1834  N1900   1.449   .     S
C1834  H1864   1.110   .     S
C1834  H1865   1.111   .     S
C1835  H1868   1.110   .     S
C1835  N1901   1.448   .     S
C1835  H1867   1.110   .     S
C1835  H852    1.110   1_556 S
C1836  N1902   1.452   .     S
C1836  H1874   1.108   .     S
C1836  H1872   1.111   .     S
C1836  H1873   1.112   .     S
C1837  H1877   1.111   .     S
C1837  N1903   1.446   .     S
C1837  H1876   1.109   .     S
C1837  H1878   1.110   .     S
C1838  C1839   1.527   .     S
C1838  H1884   1.112   .     S
C1839  H1881   1.111   .     S
C1839  H1879   1.108   .     S
C1839  H1880   1.110   .     S
C1840  H1889   1.110   .     S
C1840  H1888   1.105   .     S
C1840  C1841   1.529   .     S
C1840  C1848   1.521   .     S
C1841  H1887   1.111   .     S
C1841  H1885   1.109   .     S
C1841  H1886   1.111   .     S
C1842  C1844   1.412   .     A
C1842  C814    1.405   1_556 S
C1842  C828    1.420   1_556 S
C1843  N1904   1.447   .     S
C1843  H1891   1.110   .     S
C1843  H1892   1.111   .     S
C1844  C1848   1.413   .     A
C1846  C1847   1.416   .     A
C1846  C828    1.423   1_556 S
C1846  C806    1.420   1_556 S
C1847  C1848   1.406   .     A
C1847  N1900   1.421   .     S
H1860  N1899   1.029   .     S
H1862  N1900   1.029   .     S
H1866  N1901   1.030   .     S
H1870  N1902   1.031   .     S
H1875  N1903   1.030   .     S
H1883  C821    1.106   1_556 S
H1890  N1904   1.032   .     S
H1894  C1956   1.112   .     S
H1897  C1941   1.108   .     S
N1901  C806    1.425   1_556 S
O1905  Zn1919  1.944   .     S
O1905  Zn1920  1.941   .     S
O1905  Zn1921  1.941   .     S
O1905  Zn1918  1.964   .     S
O1906  Zn1919  1.932   .     S
O1907  Zn1921  1.939   .     S
O1908  Zn1920  1.933   .     S
O1909  Zn1918  1.927   .     S
O1910  Zn1918  1.936   .     S
O1911  Zn1921  1.940   .     S
O1912  Zn1919  1.936   .     S
O1913  Zn1920  1.944   .     S
O1914  Zn1921  1.938   .     S
O1915  Zn1918  1.932   .     S
O1916  Zn1919  1.947   .     S
O1917  Zn1920  1.940   .     S
C1922  O2027   1.274   .     A
C1922  O2025   1.260   .     A
C1922  C1928   1.432   .     S
C1923  C1937   1.403   .     A
C1923  N2015   1.433   .     S
C1923  C1958   1.411   .     A
C1924  N2012   1.428   .     S
C1924  C1936   1.410   .     A
C1924  C1937   1.404   .     A
C1925  O2028   1.272   .     A
C1925  C1927   1.465   .     S
C1925  O2026   1.294   .     A
C1926  C1957   1.422   .     A
C1926  C1938   1.428   .     A
C1926  C1935   1.492   .     S
C1927  C1702   1.365   1_655 S
C1927  N1791   1.429   1_655 S
C1929  C1932   1.476   .     S
C1929  C1252   1.371   1_565 S
C1929  C1264   1.548   1_565 S
C1930  C1931   1.435   .     S
C1931  O2029   1.276   .     A
C1931  O2023   1.269   .     A
C1932  O2030   1.281   .     A
C1932  O2024   1.276   .     A
C1933  C1938   1.412   .     A
C1933  C927    1.394   1_556 S
C1933  C934    1.520   1_556 S
C1934  O2019   1.272   .     A
C1934  O2021   1.274   .     A
C1934  C1937   1.446   .     S
C1935  O2020   1.281   .     A
C1935  O2022   1.300   .     A
C1938  N2016   1.426   .     S
C1939  N2012   1.448   .     S
C1939  H1984   1.111   .     S
C1939  H1995   1.110   .     S
C1939  H2006   1.109   .     S
C1940  H1963   1.112   .     S
C1940  H2011   1.102   .     S
C1940  C1702   1.534   1_655 S
C1940  C1715   1.536   1_655 S
C1941  H2008   1.110   .     S
C1941  H2009   1.111   .     S
C1942  H1967   1.111   .     S
C1942  H1968   1.112   .     S
C1943  H1965   1.111   .     S
C1943  H1964   1.110   .     S
C1943  C1264   1.529   1_565 S
C1943  H1288   1.111   1_565 S
C1944  H1962   1.076   .     S
C1945  H1972   1.112   .     S
C1945  H1974   1.112   .     S
C1945  C1252   1.537   1_565 S
C1945  C1268   1.534   1_565 S
C1946  H1971   1.111   .     S
C1946  H1969   1.111   .     S
C1946  H1970   1.110   .     S
C1947  H1976   1.108   .     S
C1947  N2013   1.449   .     S
C1947  H1977   1.110   .     S
C1947  H1978   1.111   .     S
C1948  H1981   1.110   .     S
C1948  N2014   1.448   .     S
C1948  H1980   1.110   .     S
C1948  H965    1.110   1_556 S
C1949  N2015   1.452   .     S
C1949  H1987   1.108   .     S
C1949  H1985   1.111   .     S
C1949  H1986   1.112   .     S
C1950  H1990   1.111   .     S
C1950  N2016   1.446   .     S
C1950  H1989   1.109   .     S
C1950  H1991   1.110   .     S
C1951  C1952   1.527   .     S
C1951  H1997   1.112   .     S
C1952  H1994   1.111   .     S
C1952  H1992   1.108   .     S
C1952  H1993   1.110   .     S
C1953  H2002   1.110   .     S
C1953  H2001   1.105   .     S
C1953  C1954   1.529   .     S
C1953  C1961   1.521   .     S
C1954  H2000   1.111   .     S
C1954  H1998   1.109   .     S
C1954  H1999   1.111   .     S
C1955  C1957   1.412   .     A
C1955  C927    1.405   1_556 S
C1955  C941    1.420   1_556 S
C1956  N2017   1.447   .     S
C1956  H2004   1.110   .     S
C1956  H2005   1.111   .     S
C1957  C1961   1.413   .     A
C1959  C1960   1.416   .     A
C1959  C941    1.423   1_556 S
C1959  C919    1.420   1_556 S
C1960  C1961   1.406   .     A
C1960  N2013   1.421   .     S
H1973  N2012   1.029   .     S
H1975  N2013   1.029   .     S
H1979  N2014   1.030   .     S
H1983  N2015   1.031   .     S
H1988  N2016   1.030   .     S
H1996  C934    1.106   1_556 S
H2003  N2017   1.032   .     S
H2007  C1730   1.112   1_655 S
H2010  C1715   1.108   1_655 S
N2014  C919    1.425   1_556 S
O2018  Zn2032  1.944   .     S
O2018  Zn2033  1.941   .     S
O2018  Zn2034  1.941   .     S
O2018  Zn2031  1.964   .     S
O2019  Zn2032  1.932   .     S
O2020  Zn2034  1.939   .     S
O2021  Zn2033  1.933   .     S
O2022  Zn2031  1.927   .     S
O2023  Zn2031  1.936   .     S
O2024  Zn2034  1.940   .     S
O2025  Zn2032  1.936   .     S
O2026  Zn2033  1.944   .     S
O2027  Zn2034  1.938   .     S
O2028  Zn2031  1.932   .     S
O2029  Zn2032  1.947   .     S
O2030  Zn2033  1.940   .     S
