data_str_m3_o1_o2_pcu_sym.137
_audit_creation_date              2020-01-03
_audit_creation_method            'Materials Studio'
_symmetry_space_group_name_H-M    'P1'
_symmetry_Int_Tables_number       1
_symmetry_cell_setting            triclinic
loop_
_symmetry_equiv_pos_as_xyz
  x,y,z
_cell_length_a                    32.1710
_cell_length_b                    29.5085
_cell_length_c                    30.0467
_cell_angle_alpha                 89.9991
_cell_angle_beta                  90.2619
_cell_angle_gamma                 90.0012
loop_
_atom_site_label
_atom_site_type_symbol
_atom_site_fract_x
_atom_site_fract_y
_atom_site_fract_z
_atom_site_U_iso_or_equiv
_atom_site_adp_type
_atom_site_occupancy
C1     C     0.08662   0.16667   0.24995   0.00000  Uiso   1.00
C2     C     0.24672   0.16667   0.25004   0.00000  Uiso   1.00
C3     C     0.16666   0.16666   0.16386   0.00000  Uiso   1.00
C4     C     0.16670   0.16666   0.33614   0.00000  Uiso   1.00
C5     C     0.19376   0.02400   0.27639   0.00000  Uiso   1.00
C6     C     0.13952   0.30935   0.22369   0.00000  Uiso   1.00
C7     C     0.13958   0.02399   0.22360   0.00000  Uiso   1.00
C8     C     0.19382   0.30935   0.27632   0.00000  Uiso   1.00
C9     C     0.02126   0.12571   0.24452   0.00000  Uiso   1.00
C10    C     0.31207   0.20763   0.25547   0.00000  Uiso   1.00
C11    C     0.31202   0.12570   0.24458   0.00000  Uiso   1.00
C12    C     0.02131   0.20763   0.25541   0.00000  Uiso   1.00
C13    C     0.15029   0.20349   0.04658   0.00000  Uiso   1.00
C14    C     0.15039   0.12938   0.45315   0.00000  Uiso   1.00
C15    C     0.18350   0.20346   0.45336   0.00000  Uiso   1.00
C16    C     0.18339   0.12942   0.04692   0.00000  Uiso   1.00
C17    C     0.15010   0.20368   0.09252   0.00000  Uiso   1.00
C18    C     0.15017   0.12937   0.40720   0.00000  Uiso   1.00
C19    C     0.18352   0.20366   0.40743   0.00000  Uiso   1.00
C20    C     0.18344   0.12939   0.09287   0.00000  Uiso   1.00
C21    C     0.16674   0.16659   0.11586   0.00000  Uiso   1.00
C22    C     0.16678   0.16658   0.38414   0.00000  Uiso   1.00
C23    C     0.16689   0.16642   0.02394   0.00000  Uiso   1.00
C24    C     0.16697   0.16639   0.47606   0.00000  Uiso   1.00
C25    C     0.29087   0.16666   0.25005   0.00000  Uiso   1.00
C26    C     0.04247   0.16667   0.24995   0.00000  Uiso   1.00
H27    H     0.13704   0.23192   0.02860   0.00000  Uiso   1.00
H28    H     0.13715   0.10090   0.47090   0.00000  Uiso   1.00
H29    H     0.19679   0.23189   0.47129   0.00000  Uiso   1.00
H30    H     0.19668   0.10093   0.02920   0.00000  Uiso   1.00
H31    H     0.03741   0.09381   0.24007   0.00000  Uiso   1.00
H32    H     0.29592   0.23952   0.25993   0.00000  Uiso   1.00
H33    H     0.29582   0.09381   0.24017   0.00000  Uiso   1.00
H34    H     0.03751   0.23953   0.25981   0.00000  Uiso   1.00
N35    N     0.16667   0.28573   0.25000   0.00000  Uiso   1.00
N36    N     0.16667   0.04760   0.25000   0.00000  Uiso   1.00
O37    O     0.10559   0.20487   0.25000   0.00000  Uiso   1.00
O38    O     0.22774   0.12846   0.25001   0.00000  Uiso   1.00
O39    O     0.22774   0.20487   0.25001   0.00000  Uiso   1.00
O40    O     0.10559   0.12846   0.24999   0.00000  Uiso   1.00
O41    O     0.16666   0.20489   0.18453   0.00000  Uiso   1.00
O42    O     0.16667   0.12845   0.31547   0.00000  Uiso   1.00
O43    O     0.16667   0.20489   0.31547   0.00000  Uiso   1.00
O44    O     0.16666   0.12845   0.18453   0.00000  Uiso   1.00
Zn45   Zn    0.16667   0.21771   0.25000   0.00000  Uiso   1.00
Zn46   Zn    0.16667   0.11563   0.25000   0.00000  Uiso   1.00
F47    F     0.22083   0.04672   0.30290   0.00000  Uiso   1.00
F48    F     0.11222   0.28665   0.19743   0.00000  Uiso   1.00
F49    F     0.11253   0.04672   0.19706   0.00000  Uiso   1.00
F50    F     0.22110   0.28665   0.30259   0.00000  Uiso   1.00
F51    F     0.13283   0.23954   0.11390   0.00000  Uiso   1.00
F52    F     0.13292   0.09358   0.38550   0.00000  Uiso   1.00
F53    F     0.20071   0.23952   0.38598   0.00000  Uiso   1.00
F54    F     0.20062   0.09360   0.11462   0.00000  Uiso   1.00
C55    C     0.41995   0.16667   0.24995   0.00000  Uiso   1.00
C56    C     0.58005   0.16667   0.25004   0.00000  Uiso   1.00
C57    C     0.49999   0.16666   0.16386   0.00000  Uiso   1.00
C58    C     0.50003   0.16666   0.33614   0.00000  Uiso   1.00
C59    C     0.52709   0.02400   0.27639   0.00000  Uiso   1.00
C60    C     0.47285   0.30935   0.22369   0.00000  Uiso   1.00
C61    C     0.47292   0.02399   0.22360   0.00000  Uiso   1.00
C62    C     0.52715   0.30935   0.27632   0.00000  Uiso   1.00
C63    C     0.35459   0.12571   0.24452   0.00000  Uiso   1.00
C64    C     0.64541   0.20763   0.25547   0.00000  Uiso   1.00
C65    C     0.64535   0.12570   0.24458   0.00000  Uiso   1.00
C66    C     0.35465   0.20763   0.25541   0.00000  Uiso   1.00
C67    C     0.48362   0.20349   0.04658   0.00000  Uiso   1.00
C68    C     0.48373   0.12938   0.45315   0.00000  Uiso   1.00
C69    C     0.51684   0.20346   0.45336   0.00000  Uiso   1.00
C70    C     0.51673   0.12942   0.04692   0.00000  Uiso   1.00
C71    C     0.48343   0.20368   0.09252   0.00000  Uiso   1.00
C72    C     0.48351   0.12937   0.40720   0.00000  Uiso   1.00
C73    C     0.51685   0.20366   0.40743   0.00000  Uiso   1.00
C74    C     0.51678   0.12939   0.09287   0.00000  Uiso   1.00
C75    C     0.50007   0.16659   0.11586   0.00000  Uiso   1.00
C76    C     0.50011   0.16658   0.38414   0.00000  Uiso   1.00
C77    C     0.50022   0.16642   0.02394   0.00000  Uiso   1.00
C78    C     0.50030   0.16639   0.47606   0.00000  Uiso   1.00
C79    C     0.62420   0.16666   0.25005   0.00000  Uiso   1.00
C80    C     0.37580   0.16667   0.24995   0.00000  Uiso   1.00
H81    H     0.47038   0.23192   0.02860   0.00000  Uiso   1.00
H82    H     0.47048   0.10090   0.47090   0.00000  Uiso   1.00
H83    H     0.53012   0.23189   0.47129   0.00000  Uiso   1.00
H84    H     0.53001   0.10093   0.02920   0.00000  Uiso   1.00
H85    H     0.37074   0.09381   0.24007   0.00000  Uiso   1.00
H86    H     0.62926   0.23952   0.25993   0.00000  Uiso   1.00
H87    H     0.62916   0.09381   0.24017   0.00000  Uiso   1.00
H88    H     0.37084   0.23953   0.25981   0.00000  Uiso   1.00
N89    N     0.50000   0.28573   0.25000   0.00000  Uiso   1.00
N90    N     0.50000   0.04760   0.25000   0.00000  Uiso   1.00
O91    O     0.43892   0.20487   0.25000   0.00000  Uiso   1.00
O92    O     0.56108   0.12846   0.25001   0.00000  Uiso   1.00
O93    O     0.56108   0.20487   0.25001   0.00000  Uiso   1.00
O94    O     0.43892   0.12846   0.24999   0.00000  Uiso   1.00
O95    O     0.50000   0.20489   0.18453   0.00000  Uiso   1.00
O96    O     0.50000   0.12845   0.31547   0.00000  Uiso   1.00
O97    O     0.50000   0.20489   0.31547   0.00000  Uiso   1.00
O98    O     0.50000   0.12845   0.18453   0.00000  Uiso   1.00
Zn99   Zn    0.50000   0.21771   0.25000   0.00000  Uiso   1.00
Zn100  Zn    0.50000   0.11563   0.25000   0.00000  Uiso   1.00
F101   F     0.55416   0.04672   0.30290   0.00000  Uiso   1.00
F102   F     0.44555   0.28665   0.19743   0.00000  Uiso   1.00
F103   F     0.44586   0.04672   0.19706   0.00000  Uiso   1.00
F104   F     0.55443   0.28665   0.30259   0.00000  Uiso   1.00
F105   F     0.46617   0.23954   0.11390   0.00000  Uiso   1.00
F106   F     0.46625   0.09358   0.38550   0.00000  Uiso   1.00
F107   F     0.53404   0.23952   0.38598   0.00000  Uiso   1.00
F108   F     0.53395   0.09360   0.11462   0.00000  Uiso   1.00
C109   C     0.75328   0.16667   0.24995   0.00000  Uiso   1.00
C110   C     0.91339   0.16667   0.25004   0.00000  Uiso   1.00
C111   C     0.83333   0.16666   0.16386   0.00000  Uiso   1.00
C112   C     0.83337   0.16666   0.33614   0.00000  Uiso   1.00
C113   C     0.86042   0.02400   0.27639   0.00000  Uiso   1.00
C114   C     0.80618   0.30935   0.22369   0.00000  Uiso   1.00
C115   C     0.80625   0.02399   0.22360   0.00000  Uiso   1.00
C116   C     0.86048   0.30935   0.27632   0.00000  Uiso   1.00
C117   C     0.68793   0.12571   0.24452   0.00000  Uiso   1.00
C118   C     0.97874   0.20763   0.25547   0.00000  Uiso   1.00
C119   C     0.97869   0.12570   0.24458   0.00000  Uiso   1.00
C120   C     0.68798   0.20763   0.25541   0.00000  Uiso   1.00
C121   C     0.81695   0.20349   0.04658   0.00000  Uiso   1.00
C122   C     0.81706   0.12938   0.45315   0.00000  Uiso   1.00
C123   C     0.85017   0.20346   0.45336   0.00000  Uiso   1.00
C124   C     0.85006   0.12942   0.04692   0.00000  Uiso   1.00
C125   C     0.81676   0.20368   0.09252   0.00000  Uiso   1.00
C126   C     0.81684   0.12937   0.40720   0.00000  Uiso   1.00
C127   C     0.85019   0.20366   0.40743   0.00000  Uiso   1.00
C128   C     0.85011   0.12939   0.09287   0.00000  Uiso   1.00
C129   C     0.83341   0.16659   0.11586   0.00000  Uiso   1.00
C130   C     0.83344   0.16658   0.38414   0.00000  Uiso   1.00
C131   C     0.83355   0.16642   0.02394   0.00000  Uiso   1.00
C132   C     0.83364   0.16639   0.47606   0.00000  Uiso   1.00
C133   C     0.95753   0.16666   0.25005   0.00000  Uiso   1.00
C134   C     0.70913   0.16667   0.24995   0.00000  Uiso   1.00
H135   H     0.80371   0.23192   0.02860   0.00000  Uiso   1.00
H136   H     0.80382   0.10090   0.47090   0.00000  Uiso   1.00
H137   H     0.86346   0.23189   0.47129   0.00000  Uiso   1.00
H138   H     0.86334   0.10093   0.02920   0.00000  Uiso   1.00
H139   H     0.70408   0.09381   0.24007   0.00000  Uiso   1.00
H140   H     0.96259   0.23952   0.25993   0.00000  Uiso   1.00
H141   H     0.96249   0.09381   0.24017   0.00000  Uiso   1.00
H142   H     0.70417   0.23953   0.25981   0.00000  Uiso   1.00
N143   N     0.83333   0.28573   0.25000   0.00000  Uiso   1.00
N144   N     0.83333   0.04760   0.25000   0.00000  Uiso   1.00
O145   O     0.77226   0.20487   0.25000   0.00000  Uiso   1.00
O146   O     0.89441   0.12846   0.25001   0.00000  Uiso   1.00
O147   O     0.89441   0.20487   0.25001   0.00000  Uiso   1.00
O148   O     0.77226   0.12846   0.24999   0.00000  Uiso   1.00
O149   O     0.83333   0.20489   0.18453   0.00000  Uiso   1.00
O150   O     0.83334   0.12845   0.31547   0.00000  Uiso   1.00
O151   O     0.83334   0.20489   0.31547   0.00000  Uiso   1.00
O152   O     0.83333   0.12845   0.18453   0.00000  Uiso   1.00
Zn153  Zn    0.83333   0.21771   0.25000   0.00000  Uiso   1.00
Zn154  Zn    0.83333   0.11563   0.25000   0.00000  Uiso   1.00
F155   F     0.88750   0.04672   0.30290   0.00000  Uiso   1.00
F156   F     0.77889   0.28665   0.19743   0.00000  Uiso   1.00
F157   F     0.77920   0.04672   0.19706   0.00000  Uiso   1.00
F158   F     0.88776   0.28665   0.30259   0.00000  Uiso   1.00
F159   F     0.79950   0.23954   0.11390   0.00000  Uiso   1.00
F160   F     0.79958   0.09358   0.38550   0.00000  Uiso   1.00
F161   F     0.86737   0.23952   0.38598   0.00000  Uiso   1.00
F162   F     0.86729   0.09360   0.11462   0.00000  Uiso   1.00
C163   C     0.08662   0.50000   0.24995   0.00000  Uiso   1.00
C164   C     0.24672   0.50000   0.25004   0.00000  Uiso   1.00
C165   C     0.16666   0.49999   0.16386   0.00000  Uiso   1.00
C166   C     0.16670   0.49999   0.33614   0.00000  Uiso   1.00
C167   C     0.19376   0.35733   0.27639   0.00000  Uiso   1.00
C168   C     0.13952   0.64268   0.22369   0.00000  Uiso   1.00
C169   C     0.13958   0.35733   0.22360   0.00000  Uiso   1.00
C170   C     0.19382   0.64269   0.27632   0.00000  Uiso   1.00
C171   C     0.02126   0.45904   0.24452   0.00000  Uiso   1.00
C172   C     0.31207   0.54096   0.25547   0.00000  Uiso   1.00
C173   C     0.31202   0.45903   0.24458   0.00000  Uiso   1.00
C174   C     0.02131   0.54097   0.25541   0.00000  Uiso   1.00
C175   C     0.15029   0.53682   0.04658   0.00000  Uiso   1.00
C176   C     0.15039   0.46272   0.45315   0.00000  Uiso   1.00
C177   C     0.18350   0.53679   0.45336   0.00000  Uiso   1.00
C178   C     0.18339   0.46275   0.04692   0.00000  Uiso   1.00
C179   C     0.15010   0.53702   0.09252   0.00000  Uiso   1.00
C180   C     0.15017   0.46270   0.40720   0.00000  Uiso   1.00
C181   C     0.18352   0.53700   0.40743   0.00000  Uiso   1.00
C182   C     0.18344   0.46272   0.09287   0.00000  Uiso   1.00
C183   C     0.16674   0.49992   0.11586   0.00000  Uiso   1.00
C184   C     0.16678   0.49992   0.38414   0.00000  Uiso   1.00
C185   C     0.16689   0.49976   0.02394   0.00000  Uiso   1.00
C186   C     0.16697   0.49972   0.47606   0.00000  Uiso   1.00
C187   C     0.29087   0.50000   0.25005   0.00000  Uiso   1.00
C188   C     0.04247   0.50000   0.24995   0.00000  Uiso   1.00
H189   H     0.13704   0.56525   0.02860   0.00000  Uiso   1.00
H190   H     0.13715   0.43423   0.47090   0.00000  Uiso   1.00
H191   H     0.19679   0.56522   0.47129   0.00000  Uiso   1.00
H192   H     0.19668   0.43426   0.02920   0.00000  Uiso   1.00
H193   H     0.03741   0.42715   0.24007   0.00000  Uiso   1.00
H194   H     0.29592   0.57285   0.25993   0.00000  Uiso   1.00
H195   H     0.29582   0.42714   0.24017   0.00000  Uiso   1.00
H196   H     0.03751   0.57286   0.25981   0.00000  Uiso   1.00
N197   N     0.16667   0.61907   0.25000   0.00000  Uiso   1.00
N198   N     0.16667   0.38093   0.25000   0.00000  Uiso   1.00
O199   O     0.10559   0.53821   0.25000   0.00000  Uiso   1.00
O200   O     0.22774   0.46179   0.25001   0.00000  Uiso   1.00
O201   O     0.22774   0.53821   0.25001   0.00000  Uiso   1.00
O202   O     0.10559   0.46179   0.24999   0.00000  Uiso   1.00
O203   O     0.16666   0.53822   0.18453   0.00000  Uiso   1.00
O204   O     0.16667   0.46178   0.31547   0.00000  Uiso   1.00
O205   O     0.16667   0.53822   0.31547   0.00000  Uiso   1.00
O206   O     0.16666   0.46178   0.18453   0.00000  Uiso   1.00
Zn207  Zn    0.16667   0.55104   0.25000   0.00000  Uiso   1.00
Zn208  Zn    0.16667   0.44896   0.25000   0.00000  Uiso   1.00
F209   F     0.22083   0.38006   0.30290   0.00000  Uiso   1.00
F210   F     0.11222   0.61998   0.19743   0.00000  Uiso   1.00
F211   F     0.11253   0.38005   0.19706   0.00000  Uiso   1.00
F212   F     0.22110   0.61999   0.30259   0.00000  Uiso   1.00
F213   F     0.13283   0.57287   0.11390   0.00000  Uiso   1.00
F214   F     0.13292   0.42692   0.38550   0.00000  Uiso   1.00
F215   F     0.20071   0.57285   0.38598   0.00000  Uiso   1.00
F216   F     0.20062   0.42693   0.11462   0.00000  Uiso   1.00
C217   C     0.41995   0.50000   0.24995   0.00000  Uiso   1.00
C218   C     0.58005   0.50000   0.25004   0.00000  Uiso   1.00
C219   C     0.49999   0.49999   0.16386   0.00000  Uiso   1.00
C220   C     0.50003   0.49999   0.33614   0.00000  Uiso   1.00
C221   C     0.52709   0.35733   0.27639   0.00000  Uiso   1.00
C222   C     0.47285   0.64268   0.22369   0.00000  Uiso   1.00
C223   C     0.47292   0.35733   0.22360   0.00000  Uiso   1.00
C224   C     0.52715   0.64269   0.27632   0.00000  Uiso   1.00
C225   C     0.35459   0.45904   0.24452   0.00000  Uiso   1.00
C226   C     0.64541   0.54096   0.25547   0.00000  Uiso   1.00
C227   C     0.64535   0.45903   0.24458   0.00000  Uiso   1.00
C228   C     0.35465   0.54097   0.25541   0.00000  Uiso   1.00
C229   C     0.48362   0.53682   0.04658   0.00000  Uiso   1.00
C230   C     0.48373   0.46272   0.45315   0.00000  Uiso   1.00
C231   C     0.51684   0.53679   0.45336   0.00000  Uiso   1.00
C232   C     0.51673   0.46275   0.04692   0.00000  Uiso   1.00
C233   C     0.48343   0.53702   0.09252   0.00000  Uiso   1.00
C234   C     0.48351   0.46270   0.40720   0.00000  Uiso   1.00
C235   C     0.51685   0.53700   0.40743   0.00000  Uiso   1.00
C236   C     0.51678   0.46272   0.09287   0.00000  Uiso   1.00
C237   C     0.50007   0.49992   0.11586   0.00000  Uiso   1.00
C238   C     0.50011   0.49992   0.38414   0.00000  Uiso   1.00
C239   C     0.50022   0.49976   0.02394   0.00000  Uiso   1.00
C240   C     0.50030   0.49972   0.47606   0.00000  Uiso   1.00
C241   C     0.62420   0.50000   0.25005   0.00000  Uiso   1.00
C242   C     0.37580   0.50000   0.24995   0.00000  Uiso   1.00
H243   H     0.47038   0.56525   0.02860   0.00000  Uiso   1.00
H244   H     0.47048   0.43423   0.47090   0.00000  Uiso   1.00
H245   H     0.53012   0.56522   0.47129   0.00000  Uiso   1.00
H246   H     0.53001   0.43426   0.02920   0.00000  Uiso   1.00
H247   H     0.37074   0.42715   0.24007   0.00000  Uiso   1.00
H248   H     0.62926   0.57285   0.25993   0.00000  Uiso   1.00
H249   H     0.62916   0.42714   0.24017   0.00000  Uiso   1.00
H250   H     0.37084   0.57286   0.25981   0.00000  Uiso   1.00
N251   N     0.50000   0.61907   0.25000   0.00000  Uiso   1.00
N252   N     0.50000   0.38093   0.25000   0.00000  Uiso   1.00
O253   O     0.43892   0.53821   0.25000   0.00000  Uiso   1.00
O254   O     0.56108   0.46179   0.25001   0.00000  Uiso   1.00
O255   O     0.56108   0.53821   0.25001   0.00000  Uiso   1.00
O256   O     0.43892   0.46179   0.24999   0.00000  Uiso   1.00
O257   O     0.50000   0.53822   0.18453   0.00000  Uiso   1.00
O258   O     0.50000   0.46178   0.31547   0.00000  Uiso   1.00
O259   O     0.50000   0.53822   0.31547   0.00000  Uiso   1.00
O260   O     0.50000   0.46178   0.18453   0.00000  Uiso   1.00
Zn261  Zn    0.50000   0.55104   0.25000   0.00000  Uiso   1.00
Zn262  Zn    0.50000   0.44896   0.25000   0.00000  Uiso   1.00
F263   F     0.55416   0.38006   0.30290   0.00000  Uiso   1.00
F264   F     0.44555   0.61998   0.19743   0.00000  Uiso   1.00
F265   F     0.44586   0.38005   0.19706   0.00000  Uiso   1.00
F266   F     0.55443   0.61999   0.30259   0.00000  Uiso   1.00
F267   F     0.46617   0.57287   0.11390   0.00000  Uiso   1.00
F268   F     0.46625   0.42692   0.38550   0.00000  Uiso   1.00
F269   F     0.53404   0.57285   0.38598   0.00000  Uiso   1.00
F270   F     0.53395   0.42693   0.11462   0.00000  Uiso   1.00
C271   C     0.75328   0.50000   0.24995   0.00000  Uiso   1.00
C272   C     0.91339   0.50000   0.25004   0.00000  Uiso   1.00
C273   C     0.83333   0.49999   0.16386   0.00000  Uiso   1.00
C274   C     0.83337   0.49999   0.33614   0.00000  Uiso   1.00
C275   C     0.86042   0.35733   0.27639   0.00000  Uiso   1.00
C276   C     0.80618   0.64268   0.22369   0.00000  Uiso   1.00
C277   C     0.80625   0.35733   0.22360   0.00000  Uiso   1.00
C278   C     0.86048   0.64269   0.27632   0.00000  Uiso   1.00
C279   C     0.68793   0.45904   0.24452   0.00000  Uiso   1.00
C280   C     0.97874   0.54096   0.25547   0.00000  Uiso   1.00
C281   C     0.97869   0.45903   0.24458   0.00000  Uiso   1.00
C282   C     0.68798   0.54097   0.25541   0.00000  Uiso   1.00
C283   C     0.81695   0.53682   0.04658   0.00000  Uiso   1.00
C284   C     0.81706   0.46272   0.45315   0.00000  Uiso   1.00
C285   C     0.85017   0.53679   0.45336   0.00000  Uiso   1.00
C286   C     0.85006   0.46275   0.04692   0.00000  Uiso   1.00
C287   C     0.81676   0.53702   0.09252   0.00000  Uiso   1.00
C288   C     0.81684   0.46270   0.40720   0.00000  Uiso   1.00
C289   C     0.85019   0.53700   0.40743   0.00000  Uiso   1.00
C290   C     0.85011   0.46272   0.09287   0.00000  Uiso   1.00
C291   C     0.83341   0.49992   0.11586   0.00000  Uiso   1.00
C292   C     0.83344   0.49992   0.38414   0.00000  Uiso   1.00
C293   C     0.83355   0.49976   0.02394   0.00000  Uiso   1.00
C294   C     0.83364   0.49972   0.47606   0.00000  Uiso   1.00
C295   C     0.95753   0.50000   0.25005   0.00000  Uiso   1.00
C296   C     0.70913   0.50000   0.24995   0.00000  Uiso   1.00
H297   H     0.80371   0.56525   0.02860   0.00000  Uiso   1.00
H298   H     0.80382   0.43423   0.47090   0.00000  Uiso   1.00
H299   H     0.86346   0.56522   0.47129   0.00000  Uiso   1.00
H300   H     0.86334   0.43426   0.02920   0.00000  Uiso   1.00
H301   H     0.70408   0.42715   0.24007   0.00000  Uiso   1.00
H302   H     0.96259   0.57285   0.25993   0.00000  Uiso   1.00
H303   H     0.96249   0.42714   0.24017   0.00000  Uiso   1.00
H304   H     0.70417   0.57286   0.25981   0.00000  Uiso   1.00
N305   N     0.83333   0.61907   0.25000   0.00000  Uiso   1.00
N306   N     0.83333   0.38093   0.25000   0.00000  Uiso   1.00
O307   O     0.77226   0.53821   0.25000   0.00000  Uiso   1.00
O308   O     0.89441   0.46179   0.25001   0.00000  Uiso   1.00
O309   O     0.89441   0.53821   0.25001   0.00000  Uiso   1.00
O310   O     0.77226   0.46179   0.24999   0.00000  Uiso   1.00
O311   O     0.83333   0.53822   0.18453   0.00000  Uiso   1.00
O312   O     0.83334   0.46178   0.31547   0.00000  Uiso   1.00
O313   O     0.83334   0.53822   0.31547   0.00000  Uiso   1.00
O314   O     0.83333   0.46178   0.18453   0.00000  Uiso   1.00
Zn315  Zn    0.83333   0.55104   0.25000   0.00000  Uiso   1.00
Zn316  Zn    0.83333   0.44896   0.25000   0.00000  Uiso   1.00
F317   F     0.88750   0.38006   0.30290   0.00000  Uiso   1.00
F318   F     0.77889   0.61998   0.19743   0.00000  Uiso   1.00
F319   F     0.77920   0.38005   0.19706   0.00000  Uiso   1.00
F320   F     0.88776   0.61999   0.30259   0.00000  Uiso   1.00
F321   F     0.79950   0.57287   0.11390   0.00000  Uiso   1.00
F322   F     0.79958   0.42692   0.38550   0.00000  Uiso   1.00
F323   F     0.86737   0.57285   0.38598   0.00000  Uiso   1.00
F324   F     0.86729   0.42693   0.11462   0.00000  Uiso   1.00
C325   C     0.08662   0.83333   0.24995   0.00000  Uiso   1.00
C326   C     0.24672   0.83333   0.25004   0.00000  Uiso   1.00
C327   C     0.16666   0.83332   0.16386   0.00000  Uiso   1.00
C328   C     0.16670   0.83332   0.33614   0.00000  Uiso   1.00
C329   C     0.19376   0.69066   0.27639   0.00000  Uiso   1.00
C330   C     0.13952   0.97602   0.22369   0.00000  Uiso   1.00
C331   C     0.13958   0.69066   0.22360   0.00000  Uiso   1.00
C332   C     0.19382   0.97602   0.27632   0.00000  Uiso   1.00
C333   C     0.02126   0.79237   0.24452   0.00000  Uiso   1.00
C334   C     0.31207   0.87429   0.25547   0.00000  Uiso   1.00
C335   C     0.31202   0.79237   0.24458   0.00000  Uiso   1.00
C336   C     0.02131   0.87430   0.25541   0.00000  Uiso   1.00
C337   C     0.15029   0.87016   0.04658   0.00000  Uiso   1.00
C338   C     0.15039   0.79605   0.45315   0.00000  Uiso   1.00
C339   C     0.18350   0.87012   0.45336   0.00000  Uiso   1.00
C340   C     0.18339   0.79608   0.04692   0.00000  Uiso   1.00
C341   C     0.15010   0.87035   0.09252   0.00000  Uiso   1.00
C342   C     0.15017   0.79604   0.40720   0.00000  Uiso   1.00
C343   C     0.18352   0.87033   0.40743   0.00000  Uiso   1.00
C344   C     0.18344   0.79606   0.09287   0.00000  Uiso   1.00
C345   C     0.16674   0.83326   0.11586   0.00000  Uiso   1.00
C346   C     0.16678   0.83325   0.38414   0.00000  Uiso   1.00
C347   C     0.16689   0.83309   0.02394   0.00000  Uiso   1.00
C348   C     0.16697   0.83306   0.47606   0.00000  Uiso   1.00
C349   C     0.29087   0.83333   0.25005   0.00000  Uiso   1.00
C350   C     0.04247   0.83334   0.24995   0.00000  Uiso   1.00
H351   H     0.13704   0.89859   0.02860   0.00000  Uiso   1.00
H352   H     0.13715   0.76757   0.47090   0.00000  Uiso   1.00
H353   H     0.19679   0.89856   0.47129   0.00000  Uiso   1.00
H354   H     0.19668   0.76759   0.02920   0.00000  Uiso   1.00
H355   H     0.03741   0.76048   0.24007   0.00000  Uiso   1.00
H356   H     0.29592   0.90618   0.25993   0.00000  Uiso   1.00
H357   H     0.29582   0.76047   0.24017   0.00000  Uiso   1.00
H358   H     0.03751   0.90620   0.25981   0.00000  Uiso   1.00
N359   N     0.16667   0.95240   0.25000   0.00000  Uiso   1.00
N360   N     0.16667   0.71427   0.25000   0.00000  Uiso   1.00
O361   O     0.10559   0.87154   0.25000   0.00000  Uiso   1.00
O362   O     0.22774   0.79513   0.25001   0.00000  Uiso   1.00
O363   O     0.22774   0.87154   0.25001   0.00000  Uiso   1.00
O364   O     0.10559   0.79513   0.24999   0.00000  Uiso   1.00
O365   O     0.16666   0.87155   0.18453   0.00000  Uiso   1.00
O366   O     0.16667   0.79511   0.31547   0.00000  Uiso   1.00
O367   O     0.16667   0.87155   0.31547   0.00000  Uiso   1.00
O368   O     0.16666   0.79511   0.18453   0.00000  Uiso   1.00
Zn369  Zn    0.16667   0.88437   0.25000   0.00000  Uiso   1.00
Zn370  Zn    0.16667   0.78229   0.25000   0.00000  Uiso   1.00
F371   F     0.22083   0.71339   0.30290   0.00000  Uiso   1.00
F372   F     0.11222   0.95332   0.19743   0.00000  Uiso   1.00
F373   F     0.11253   0.71339   0.19706   0.00000  Uiso   1.00
F374   F     0.22110   0.95332   0.30259   0.00000  Uiso   1.00
F375   F     0.13283   0.90620   0.11390   0.00000  Uiso   1.00
F376   F     0.13292   0.76025   0.38550   0.00000  Uiso   1.00
F377   F     0.20071   0.90619   0.38598   0.00000  Uiso   1.00
F378   F     0.20062   0.76026   0.11462   0.00000  Uiso   1.00
C379   C     0.41995   0.83333   0.24995   0.00000  Uiso   1.00
C380   C     0.58005   0.83333   0.25004   0.00000  Uiso   1.00
C381   C     0.49999   0.83332   0.16386   0.00000  Uiso   1.00
C382   C     0.50003   0.83332   0.33614   0.00000  Uiso   1.00
C383   C     0.52709   0.69066   0.27639   0.00000  Uiso   1.00
C384   C     0.47285   0.97602   0.22369   0.00000  Uiso   1.00
C385   C     0.47292   0.69066   0.22360   0.00000  Uiso   1.00
C386   C     0.52715   0.97602   0.27632   0.00000  Uiso   1.00
C387   C     0.35459   0.79237   0.24452   0.00000  Uiso   1.00
C388   C     0.64541   0.87429   0.25547   0.00000  Uiso   1.00
C389   C     0.64535   0.79237   0.24458   0.00000  Uiso   1.00
C390   C     0.35465   0.87430   0.25541   0.00000  Uiso   1.00
C391   C     0.48362   0.87016   0.04658   0.00000  Uiso   1.00
C392   C     0.48373   0.79605   0.45315   0.00000  Uiso   1.00
C393   C     0.51684   0.87012   0.45336   0.00000  Uiso   1.00
C394   C     0.51673   0.79608   0.04692   0.00000  Uiso   1.00
C395   C     0.48343   0.87035   0.09252   0.00000  Uiso   1.00
C396   C     0.48351   0.79604   0.40720   0.00000  Uiso   1.00
C397   C     0.51685   0.87033   0.40743   0.00000  Uiso   1.00
C398   C     0.51678   0.79606   0.09287   0.00000  Uiso   1.00
C399   C     0.50007   0.83326   0.11586   0.00000  Uiso   1.00
C400   C     0.50011   0.83325   0.38414   0.00000  Uiso   1.00
C401   C     0.50022   0.83309   0.02394   0.00000  Uiso   1.00
C402   C     0.50030   0.83306   0.47606   0.00000  Uiso   1.00
C403   C     0.62420   0.83333   0.25005   0.00000  Uiso   1.00
C404   C     0.37580   0.83334   0.24995   0.00000  Uiso   1.00
H405   H     0.47038   0.89859   0.02860   0.00000  Uiso   1.00
H406   H     0.47048   0.76757   0.47090   0.00000  Uiso   1.00
H407   H     0.53012   0.89856   0.47129   0.00000  Uiso   1.00
H408   H     0.53001   0.76759   0.02920   0.00000  Uiso   1.00
H409   H     0.37074   0.76048   0.24007   0.00000  Uiso   1.00
H410   H     0.62926   0.90618   0.25993   0.00000  Uiso   1.00
H411   H     0.62916   0.76047   0.24017   0.00000  Uiso   1.00
H412   H     0.37084   0.90620   0.25981   0.00000  Uiso   1.00
N413   N     0.50000   0.95240   0.25000   0.00000  Uiso   1.00
N414   N     0.50000   0.71427   0.25000   0.00000  Uiso   1.00
O415   O     0.43892   0.87154   0.25000   0.00000  Uiso   1.00
O416   O     0.56108   0.79513   0.25001   0.00000  Uiso   1.00
O417   O     0.56108   0.87154   0.25001   0.00000  Uiso   1.00
O418   O     0.43892   0.79513   0.24999   0.00000  Uiso   1.00
O419   O     0.50000   0.87155   0.18453   0.00000  Uiso   1.00
O420   O     0.50000   0.79511   0.31547   0.00000  Uiso   1.00
O421   O     0.50000   0.87155   0.31547   0.00000  Uiso   1.00
O422   O     0.50000   0.79511   0.18453   0.00000  Uiso   1.00
Zn423  Zn    0.50000   0.88437   0.25000   0.00000  Uiso   1.00
Zn424  Zn    0.50000   0.78229   0.25000   0.00000  Uiso   1.00
F425   F     0.55416   0.71339   0.30290   0.00000  Uiso   1.00
F426   F     0.44555   0.95332   0.19743   0.00000  Uiso   1.00
F427   F     0.44586   0.71339   0.19706   0.00000  Uiso   1.00
F428   F     0.55443   0.95332   0.30259   0.00000  Uiso   1.00
F429   F     0.46617   0.90620   0.11390   0.00000  Uiso   1.00
F430   F     0.46625   0.76025   0.38550   0.00000  Uiso   1.00
F431   F     0.53404   0.90619   0.38598   0.00000  Uiso   1.00
F432   F     0.53395   0.76026   0.11462   0.00000  Uiso   1.00
C433   C     0.75328   0.83333   0.24995   0.00000  Uiso   1.00
C434   C     0.91339   0.83333   0.25004   0.00000  Uiso   1.00
C435   C     0.83333   0.83332   0.16386   0.00000  Uiso   1.00
C436   C     0.83337   0.83332   0.33614   0.00000  Uiso   1.00
C437   C     0.86042   0.69066   0.27639   0.00000  Uiso   1.00
C438   C     0.80618   0.97602   0.22369   0.00000  Uiso   1.00
C439   C     0.80625   0.69066   0.22360   0.00000  Uiso   1.00
C440   C     0.86048   0.97602   0.27632   0.00000  Uiso   1.00
C441   C     0.68793   0.79237   0.24452   0.00000  Uiso   1.00
C442   C     0.97874   0.87429   0.25547   0.00000  Uiso   1.00
C443   C     0.97869   0.79237   0.24458   0.00000  Uiso   1.00
C444   C     0.68798   0.87430   0.25541   0.00000  Uiso   1.00
C445   C     0.81695   0.87016   0.04658   0.00000  Uiso   1.00
C446   C     0.81706   0.79605   0.45315   0.00000  Uiso   1.00
C447   C     0.85017   0.87012   0.45336   0.00000  Uiso   1.00
C448   C     0.85006   0.79608   0.04692   0.00000  Uiso   1.00
C449   C     0.81676   0.87035   0.09252   0.00000  Uiso   1.00
C450   C     0.81684   0.79604   0.40720   0.00000  Uiso   1.00
C451   C     0.85019   0.87033   0.40743   0.00000  Uiso   1.00
C452   C     0.85011   0.79606   0.09287   0.00000  Uiso   1.00
C453   C     0.83341   0.83326   0.11586   0.00000  Uiso   1.00
C454   C     0.83344   0.83325   0.38414   0.00000  Uiso   1.00
C455   C     0.83355   0.83309   0.02394   0.00000  Uiso   1.00
C456   C     0.83364   0.83306   0.47606   0.00000  Uiso   1.00
C457   C     0.95753   0.83333   0.25005   0.00000  Uiso   1.00
C458   C     0.70913   0.83334   0.24995   0.00000  Uiso   1.00
H459   H     0.80371   0.89859   0.02860   0.00000  Uiso   1.00
H460   H     0.80382   0.76757   0.47090   0.00000  Uiso   1.00
H461   H     0.86346   0.89856   0.47129   0.00000  Uiso   1.00
H462   H     0.86334   0.76759   0.02920   0.00000  Uiso   1.00
H463   H     0.70408   0.76048   0.24007   0.00000  Uiso   1.00
H464   H     0.96259   0.90618   0.25993   0.00000  Uiso   1.00
H465   H     0.96249   0.76047   0.24017   0.00000  Uiso   1.00
H466   H     0.70417   0.90620   0.25981   0.00000  Uiso   1.00
N467   N     0.83333   0.95240   0.25000   0.00000  Uiso   1.00
N468   N     0.83333   0.71427   0.25000   0.00000  Uiso   1.00
O469   O     0.77226   0.87154   0.25000   0.00000  Uiso   1.00
O470   O     0.89441   0.79513   0.25001   0.00000  Uiso   1.00
O471   O     0.89441   0.87154   0.25001   0.00000  Uiso   1.00
O472   O     0.77226   0.79513   0.24999   0.00000  Uiso   1.00
O473   O     0.83333   0.87155   0.18453   0.00000  Uiso   1.00
O474   O     0.83334   0.79511   0.31547   0.00000  Uiso   1.00
O475   O     0.83334   0.87155   0.31547   0.00000  Uiso   1.00
O476   O     0.83333   0.79511   0.18453   0.00000  Uiso   1.00
Zn477  Zn    0.83333   0.88437   0.25000   0.00000  Uiso   1.00
Zn478  Zn    0.83333   0.78229   0.25000   0.00000  Uiso   1.00
F479   F     0.88750   0.71339   0.30290   0.00000  Uiso   1.00
F480   F     0.77889   0.95332   0.19743   0.00000  Uiso   1.00
F481   F     0.77920   0.71339   0.19706   0.00000  Uiso   1.00
F482   F     0.88776   0.95332   0.30259   0.00000  Uiso   1.00
F483   F     0.79950   0.90620   0.11390   0.00000  Uiso   1.00
F484   F     0.79958   0.76025   0.38550   0.00000  Uiso   1.00
F485   F     0.86737   0.90619   0.38598   0.00000  Uiso   1.00
F486   F     0.86729   0.76026   0.11462   0.00000  Uiso   1.00
C487   C     0.08662   0.16667   0.74995   0.00000  Uiso   1.00
C488   C     0.24672   0.16667   0.75004   0.00000  Uiso   1.00
C489   C     0.16666   0.16666   0.66386   0.00000  Uiso   1.00
C490   C     0.16670   0.16666   0.83614   0.00000  Uiso   1.00
C491   C     0.19376   0.02400   0.77639   0.00000  Uiso   1.00
C492   C     0.13952   0.30935   0.72369   0.00000  Uiso   1.00
C493   C     0.13958   0.02399   0.72360   0.00000  Uiso   1.00
C494   C     0.19382   0.30935   0.77632   0.00000  Uiso   1.00
C495   C     0.02126   0.12571   0.74452   0.00000  Uiso   1.00
C496   C     0.31207   0.20763   0.75547   0.00000  Uiso   1.00
C497   C     0.31202   0.12570   0.74458   0.00000  Uiso   1.00
C498   C     0.02131   0.20763   0.75541   0.00000  Uiso   1.00
C499   C     0.15029   0.20349   0.54658   0.00000  Uiso   1.00
C500   C     0.15039   0.12938   0.95315   0.00000  Uiso   1.00
C501   C     0.18350   0.20346   0.95336   0.00000  Uiso   1.00
C502   C     0.18339   0.12942   0.54692   0.00000  Uiso   1.00
C503   C     0.15010   0.20368   0.59252   0.00000  Uiso   1.00
C504   C     0.15017   0.12937   0.90720   0.00000  Uiso   1.00
C505   C     0.18352   0.20366   0.90743   0.00000  Uiso   1.00
C506   C     0.18344   0.12939   0.59287   0.00000  Uiso   1.00
C507   C     0.16674   0.16659   0.61586   0.00000  Uiso   1.00
C508   C     0.16678   0.16658   0.88414   0.00000  Uiso   1.00
C509   C     0.16689   0.16642   0.52394   0.00000  Uiso   1.00
C510   C     0.16697   0.16639   0.97606   0.00000  Uiso   1.00
C511   C     0.29087   0.16666   0.75005   0.00000  Uiso   1.00
C512   C     0.04247   0.16667   0.74995   0.00000  Uiso   1.00
H513   H     0.13704   0.23192   0.52860   0.00000  Uiso   1.00
H514   H     0.13715   0.10090   0.97090   0.00000  Uiso   1.00
H515   H     0.19679   0.23189   0.97129   0.00000  Uiso   1.00
H516   H     0.19668   0.10093   0.52920   0.00000  Uiso   1.00
H517   H     0.03741   0.09381   0.74007   0.00000  Uiso   1.00
H518   H     0.29592   0.23952   0.75993   0.00000  Uiso   1.00
H519   H     0.29582   0.09381   0.74017   0.00000  Uiso   1.00
H520   H     0.03751   0.23953   0.75981   0.00000  Uiso   1.00
N521   N     0.16667   0.28573   0.75000   0.00000  Uiso   1.00
N522   N     0.16667   0.04760   0.75000   0.00000  Uiso   1.00
O523   O     0.10559   0.20487   0.75000   0.00000  Uiso   1.00
O524   O     0.22774   0.12846   0.75001   0.00000  Uiso   1.00
O525   O     0.22774   0.20487   0.75001   0.00000  Uiso   1.00
O526   O     0.10559   0.12846   0.74999   0.00000  Uiso   1.00
O527   O     0.16666   0.20489   0.68453   0.00000  Uiso   1.00
O528   O     0.16667   0.12845   0.81547   0.00000  Uiso   1.00
O529   O     0.16667   0.20489   0.81547   0.00000  Uiso   1.00
O530   O     0.16666   0.12845   0.68453   0.00000  Uiso   1.00
Zn531  Zn    0.16667   0.21771   0.75000   0.00000  Uiso   1.00
Zn532  Zn    0.16667   0.11563   0.75000   0.00000  Uiso   1.00
F533   F     0.22083   0.04672   0.80290   0.00000  Uiso   1.00
F534   F     0.11222   0.28665   0.69743   0.00000  Uiso   1.00
F535   F     0.11253   0.04672   0.69706   0.00000  Uiso   1.00
F536   F     0.22110   0.28665   0.80259   0.00000  Uiso   1.00
F537   F     0.13283   0.23954   0.61390   0.00000  Uiso   1.00
F538   F     0.13292   0.09358   0.88550   0.00000  Uiso   1.00
F539   F     0.20071   0.23952   0.88598   0.00000  Uiso   1.00
F540   F     0.20062   0.09360   0.61462   0.00000  Uiso   1.00
C541   C     0.41995   0.16667   0.74995   0.00000  Uiso   1.00
C542   C     0.58005   0.16667   0.75004   0.00000  Uiso   1.00
C543   C     0.49999   0.16666   0.66386   0.00000  Uiso   1.00
C544   C     0.50003   0.16666   0.83614   0.00000  Uiso   1.00
C545   C     0.52709   0.02400   0.77639   0.00000  Uiso   1.00
C546   C     0.47285   0.30935   0.72369   0.00000  Uiso   1.00
C547   C     0.47292   0.02399   0.72360   0.00000  Uiso   1.00
C548   C     0.52715   0.30935   0.77632   0.00000  Uiso   1.00
C549   C     0.35459   0.12571   0.74452   0.00000  Uiso   1.00
C550   C     0.64541   0.20763   0.75547   0.00000  Uiso   1.00
C551   C     0.64535   0.12570   0.74458   0.00000  Uiso   1.00
C552   C     0.35465   0.20763   0.75541   0.00000  Uiso   1.00
C553   C     0.48362   0.20349   0.54658   0.00000  Uiso   1.00
C554   C     0.48373   0.12938   0.95315   0.00000  Uiso   1.00
C555   C     0.51684   0.20346   0.95336   0.00000  Uiso   1.00
C556   C     0.51673   0.12942   0.54692   0.00000  Uiso   1.00
C557   C     0.48343   0.20368   0.59252   0.00000  Uiso   1.00
C558   C     0.48351   0.12937   0.90720   0.00000  Uiso   1.00
C559   C     0.51685   0.20366   0.90743   0.00000  Uiso   1.00
C560   C     0.51678   0.12939   0.59287   0.00000  Uiso   1.00
C561   C     0.50007   0.16659   0.61586   0.00000  Uiso   1.00
C562   C     0.50011   0.16658   0.88414   0.00000  Uiso   1.00
C563   C     0.50022   0.16642   0.52394   0.00000  Uiso   1.00
C564   C     0.50030   0.16639   0.97606   0.00000  Uiso   1.00
C565   C     0.62420   0.16666   0.75005   0.00000  Uiso   1.00
C566   C     0.37580   0.16667   0.74995   0.00000  Uiso   1.00
H567   H     0.47038   0.23192   0.52860   0.00000  Uiso   1.00
H568   H     0.47048   0.10090   0.97090   0.00000  Uiso   1.00
H569   H     0.53012   0.23189   0.97129   0.00000  Uiso   1.00
H570   H     0.53001   0.10093   0.52920   0.00000  Uiso   1.00
H571   H     0.37074   0.09381   0.74007   0.00000  Uiso   1.00
H572   H     0.62926   0.23952   0.75993   0.00000  Uiso   1.00
H573   H     0.62916   0.09381   0.74017   0.00000  Uiso   1.00
H574   H     0.37084   0.23953   0.75981   0.00000  Uiso   1.00
N575   N     0.50000   0.28573   0.75000   0.00000  Uiso   1.00
N576   N     0.50000   0.04760   0.75000   0.00000  Uiso   1.00
O577   O     0.43892   0.20487   0.75000   0.00000  Uiso   1.00
O578   O     0.56108   0.12846   0.75001   0.00000  Uiso   1.00
O579   O     0.56108   0.20487   0.75001   0.00000  Uiso   1.00
O580   O     0.43892   0.12846   0.74999   0.00000  Uiso   1.00
O581   O     0.50000   0.20489   0.68453   0.00000  Uiso   1.00
O582   O     0.50000   0.12845   0.81547   0.00000  Uiso   1.00
O583   O     0.50000   0.20489   0.81547   0.00000  Uiso   1.00
O584   O     0.50000   0.12845   0.68453   0.00000  Uiso   1.00
Zn585  Zn    0.50000   0.21771   0.75000   0.00000  Uiso   1.00
Zn586  Zn    0.50000   0.11563   0.75000   0.00000  Uiso   1.00
F587   F     0.55416   0.04672   0.80290   0.00000  Uiso   1.00
F588   F     0.44555   0.28665   0.69743   0.00000  Uiso   1.00
F589   F     0.44586   0.04672   0.69706   0.00000  Uiso   1.00
F590   F     0.55443   0.28665   0.80259   0.00000  Uiso   1.00
F591   F     0.46617   0.23954   0.61390   0.00000  Uiso   1.00
F592   F     0.46625   0.09358   0.88550   0.00000  Uiso   1.00
F593   F     0.53404   0.23952   0.88598   0.00000  Uiso   1.00
F594   F     0.53395   0.09360   0.61462   0.00000  Uiso   1.00
C595   C     0.75328   0.16667   0.74995   0.00000  Uiso   1.00
C596   C     0.91339   0.16667   0.75004   0.00000  Uiso   1.00
C597   C     0.83333   0.16666   0.66386   0.00000  Uiso   1.00
C598   C     0.83337   0.16666   0.83614   0.00000  Uiso   1.00
C599   C     0.86042   0.02400   0.77639   0.00000  Uiso   1.00
C600   C     0.80618   0.30935   0.72369   0.00000  Uiso   1.00
C601   C     0.80625   0.02399   0.72360   0.00000  Uiso   1.00
C602   C     0.86048   0.30935   0.77632   0.00000  Uiso   1.00
C603   C     0.68793   0.12571   0.74452   0.00000  Uiso   1.00
C604   C     0.97874   0.20763   0.75547   0.00000  Uiso   1.00
C605   C     0.97869   0.12570   0.74458   0.00000  Uiso   1.00
C606   C     0.68798   0.20763   0.75541   0.00000  Uiso   1.00
C607   C     0.81695   0.20349   0.54658   0.00000  Uiso   1.00
C608   C     0.81706   0.12938   0.95315   0.00000  Uiso   1.00
C609   C     0.85017   0.20346   0.95336   0.00000  Uiso   1.00
C610   C     0.85006   0.12942   0.54692   0.00000  Uiso   1.00
C611   C     0.81676   0.20368   0.59252   0.00000  Uiso   1.00
C612   C     0.81684   0.12937   0.90720   0.00000  Uiso   1.00
C613   C     0.85019   0.20366   0.90743   0.00000  Uiso   1.00
C614   C     0.85011   0.12939   0.59287   0.00000  Uiso   1.00
C615   C     0.83341   0.16659   0.61586   0.00000  Uiso   1.00
C616   C     0.83344   0.16658   0.88414   0.00000  Uiso   1.00
C617   C     0.83355   0.16642   0.52394   0.00000  Uiso   1.00
C618   C     0.83364   0.16639   0.97606   0.00000  Uiso   1.00
C619   C     0.95753   0.16666   0.75005   0.00000  Uiso   1.00
C620   C     0.70913   0.16667   0.74995   0.00000  Uiso   1.00
H621   H     0.80371   0.23192   0.52860   0.00000  Uiso   1.00
H622   H     0.80382   0.10090   0.97090   0.00000  Uiso   1.00
H623   H     0.86346   0.23189   0.97129   0.00000  Uiso   1.00
H624   H     0.86334   0.10093   0.52920   0.00000  Uiso   1.00
H625   H     0.70408   0.09381   0.74007   0.00000  Uiso   1.00
H626   H     0.96259   0.23952   0.75993   0.00000  Uiso   1.00
H627   H     0.96249   0.09381   0.74017   0.00000  Uiso   1.00
H628   H     0.70417   0.23953   0.75981   0.00000  Uiso   1.00
N629   N     0.83333   0.28573   0.75000   0.00000  Uiso   1.00
N630   N     0.83333   0.04760   0.75000   0.00000  Uiso   1.00
O631   O     0.77226   0.20487   0.75000   0.00000  Uiso   1.00
O632   O     0.89441   0.12846   0.75001   0.00000  Uiso   1.00
O633   O     0.89441   0.20487   0.75001   0.00000  Uiso   1.00
O634   O     0.77226   0.12846   0.74999   0.00000  Uiso   1.00
O635   O     0.83333   0.20489   0.68453   0.00000  Uiso   1.00
O636   O     0.83334   0.12845   0.81547   0.00000  Uiso   1.00
O637   O     0.83334   0.20489   0.81547   0.00000  Uiso   1.00
O638   O     0.83333   0.12845   0.68453   0.00000  Uiso   1.00
Zn639  Zn    0.83333   0.21771   0.75000   0.00000  Uiso   1.00
Zn640  Zn    0.83333   0.11563   0.75000   0.00000  Uiso   1.00
F641   F     0.88750   0.04672   0.80290   0.00000  Uiso   1.00
F642   F     0.77889   0.28665   0.69743   0.00000  Uiso   1.00
F643   F     0.77920   0.04672   0.69706   0.00000  Uiso   1.00
F644   F     0.88776   0.28665   0.80259   0.00000  Uiso   1.00
F645   F     0.79950   0.23954   0.61390   0.00000  Uiso   1.00
F646   F     0.79958   0.09358   0.88550   0.00000  Uiso   1.00
F647   F     0.86737   0.23952   0.88598   0.00000  Uiso   1.00
F648   F     0.86729   0.09360   0.61462   0.00000  Uiso   1.00
C649   C     0.08662   0.50000   0.74995   0.00000  Uiso   1.00
C650   C     0.24672   0.50000   0.75004   0.00000  Uiso   1.00
C651   C     0.16666   0.49999   0.66386   0.00000  Uiso   1.00
C652   C     0.16670   0.49999   0.83614   0.00000  Uiso   1.00
C653   C     0.19376   0.35733   0.77639   0.00000  Uiso   1.00
C654   C     0.13952   0.64268   0.72369   0.00000  Uiso   1.00
C655   C     0.13958   0.35733   0.72360   0.00000  Uiso   1.00
C656   C     0.19382   0.64269   0.77632   0.00000  Uiso   1.00
C657   C     0.02126   0.45904   0.74452   0.00000  Uiso   1.00
C658   C     0.31207   0.54096   0.75547   0.00000  Uiso   1.00
C659   C     0.31202   0.45903   0.74458   0.00000  Uiso   1.00
C660   C     0.02131   0.54097   0.75541   0.00000  Uiso   1.00
C661   C     0.15029   0.53682   0.54658   0.00000  Uiso   1.00
C662   C     0.15039   0.46272   0.95315   0.00000  Uiso   1.00
C663   C     0.18350   0.53679   0.95336   0.00000  Uiso   1.00
C664   C     0.18339   0.46275   0.54692   0.00000  Uiso   1.00
C665   C     0.15010   0.53702   0.59252   0.00000  Uiso   1.00
C666   C     0.15017   0.46270   0.90720   0.00000  Uiso   1.00
C667   C     0.18352   0.53700   0.90743   0.00000  Uiso   1.00
C668   C     0.18344   0.46272   0.59287   0.00000  Uiso   1.00
C669   C     0.16674   0.49992   0.61586   0.00000  Uiso   1.00
C670   C     0.16678   0.49992   0.88414   0.00000  Uiso   1.00
C671   C     0.16689   0.49976   0.52394   0.00000  Uiso   1.00
C672   C     0.16697   0.49972   0.97606   0.00000  Uiso   1.00
C673   C     0.29087   0.50000   0.75005   0.00000  Uiso   1.00
C674   C     0.04247   0.50000   0.74995   0.00000  Uiso   1.00
H675   H     0.13704   0.56525   0.52860   0.00000  Uiso   1.00
H676   H     0.13715   0.43423   0.97090   0.00000  Uiso   1.00
H677   H     0.19679   0.56522   0.97129   0.00000  Uiso   1.00
H678   H     0.19668   0.43426   0.52920   0.00000  Uiso   1.00
H679   H     0.03741   0.42715   0.74007   0.00000  Uiso   1.00
H680   H     0.29592   0.57285   0.75993   0.00000  Uiso   1.00
H681   H     0.29582   0.42714   0.74017   0.00000  Uiso   1.00
H682   H     0.03751   0.57286   0.75981   0.00000  Uiso   1.00
N683   N     0.16667   0.61907   0.75000   0.00000  Uiso   1.00
N684   N     0.16667   0.38093   0.75000   0.00000  Uiso   1.00
O685   O     0.10559   0.53821   0.75000   0.00000  Uiso   1.00
O686   O     0.22774   0.46179   0.75001   0.00000  Uiso   1.00
O687   O     0.22774   0.53821   0.75001   0.00000  Uiso   1.00
O688   O     0.10559   0.46179   0.74999   0.00000  Uiso   1.00
O689   O     0.16666   0.53822   0.68453   0.00000  Uiso   1.00
O690   O     0.16667   0.46178   0.81547   0.00000  Uiso   1.00
O691   O     0.16667   0.53822   0.81547   0.00000  Uiso   1.00
O692   O     0.16666   0.46178   0.68453   0.00000  Uiso   1.00
Zn693  Zn    0.16667   0.55104   0.75000   0.00000  Uiso   1.00
Zn694  Zn    0.16667   0.44896   0.75000   0.00000  Uiso   1.00
F695   F     0.22083   0.38006   0.80290   0.00000  Uiso   1.00
F696   F     0.11222   0.61998   0.69743   0.00000  Uiso   1.00
F697   F     0.11253   0.38005   0.69706   0.00000  Uiso   1.00
F698   F     0.22110   0.61999   0.80259   0.00000  Uiso   1.00
F699   F     0.13283   0.57287   0.61390   0.00000  Uiso   1.00
F700   F     0.13292   0.42692   0.88550   0.00000  Uiso   1.00
F701   F     0.20071   0.57285   0.88598   0.00000  Uiso   1.00
F702   F     0.20062   0.42693   0.61462   0.00000  Uiso   1.00
C703   C     0.41995   0.50000   0.74995   0.00000  Uiso   1.00
C704   C     0.58005   0.50000   0.75004   0.00000  Uiso   1.00
C705   C     0.49999   0.49999   0.66386   0.00000  Uiso   1.00
C706   C     0.50003   0.49999   0.83614   0.00000  Uiso   1.00
C707   C     0.52709   0.35733   0.77639   0.00000  Uiso   1.00
C708   C     0.47285   0.64268   0.72369   0.00000  Uiso   1.00
C709   C     0.47292   0.35733   0.72360   0.00000  Uiso   1.00
C710   C     0.52715   0.64269   0.77632   0.00000  Uiso   1.00
C711   C     0.35459   0.45904   0.74452   0.00000  Uiso   1.00
C712   C     0.64541   0.54096   0.75547   0.00000  Uiso   1.00
C713   C     0.64535   0.45903   0.74458   0.00000  Uiso   1.00
C714   C     0.35465   0.54097   0.75541   0.00000  Uiso   1.00
C715   C     0.48362   0.53682   0.54658   0.00000  Uiso   1.00
C716   C     0.48373   0.46272   0.95315   0.00000  Uiso   1.00
C717   C     0.51684   0.53679   0.95336   0.00000  Uiso   1.00
C718   C     0.51673   0.46275   0.54692   0.00000  Uiso   1.00
C719   C     0.48343   0.53702   0.59252   0.00000  Uiso   1.00
C720   C     0.48351   0.46270   0.90720   0.00000  Uiso   1.00
C721   C     0.51685   0.53700   0.90743   0.00000  Uiso   1.00
C722   C     0.51678   0.46272   0.59287   0.00000  Uiso   1.00
C723   C     0.50007   0.49992   0.61586   0.00000  Uiso   1.00
C724   C     0.50011   0.49992   0.88414   0.00000  Uiso   1.00
C725   C     0.50022   0.49976   0.52394   0.00000  Uiso   1.00
C726   C     0.50030   0.49972   0.97606   0.00000  Uiso   1.00
C727   C     0.62420   0.50000   0.75005   0.00000  Uiso   1.00
C728   C     0.37580   0.50000   0.74995   0.00000  Uiso   1.00
H729   H     0.47038   0.56525   0.52860   0.00000  Uiso   1.00
H730   H     0.47048   0.43423   0.97090   0.00000  Uiso   1.00
H731   H     0.53012   0.56522   0.97129   0.00000  Uiso   1.00
H732   H     0.53001   0.43426   0.52920   0.00000  Uiso   1.00
H733   H     0.37074   0.42715   0.74007   0.00000  Uiso   1.00
H734   H     0.62926   0.57285   0.75993   0.00000  Uiso   1.00
H735   H     0.62916   0.42714   0.74017   0.00000  Uiso   1.00
H736   H     0.37084   0.57286   0.75981   0.00000  Uiso   1.00
N737   N     0.50000   0.61907   0.75000   0.00000  Uiso   1.00
N738   N     0.50000   0.38093   0.75000   0.00000  Uiso   1.00
O739   O     0.43892   0.53821   0.75000   0.00000  Uiso   1.00
O740   O     0.56108   0.46179   0.75001   0.00000  Uiso   1.00
O741   O     0.56108   0.53821   0.75001   0.00000  Uiso   1.00
O742   O     0.43892   0.46179   0.74999   0.00000  Uiso   1.00
O743   O     0.50000   0.53822   0.68453   0.00000  Uiso   1.00
O744   O     0.50000   0.46178   0.81547   0.00000  Uiso   1.00
O745   O     0.50000   0.53822   0.81547   0.00000  Uiso   1.00
O746   O     0.50000   0.46178   0.68453   0.00000  Uiso   1.00
Zn747  Zn    0.50000   0.55104   0.75000   0.00000  Uiso   1.00
Zn748  Zn    0.50000   0.44896   0.75000   0.00000  Uiso   1.00
F749   F     0.55416   0.38006   0.80290   0.00000  Uiso   1.00
F750   F     0.44555   0.61998   0.69743   0.00000  Uiso   1.00
F751   F     0.44586   0.38005   0.69706   0.00000  Uiso   1.00
F752   F     0.55443   0.61999   0.80259   0.00000  Uiso   1.00
F753   F     0.46617   0.57287   0.61390   0.00000  Uiso   1.00
F754   F     0.46625   0.42692   0.88550   0.00000  Uiso   1.00
F755   F     0.53404   0.57285   0.88598   0.00000  Uiso   1.00
F756   F     0.53395   0.42693   0.61462   0.00000  Uiso   1.00
C757   C     0.75328   0.50000   0.74995   0.00000  Uiso   1.00
C758   C     0.91339   0.50000   0.75004   0.00000  Uiso   1.00
C759   C     0.83333   0.49999   0.66386   0.00000  Uiso   1.00
C760   C     0.83337   0.49999   0.83614   0.00000  Uiso   1.00
C761   C     0.86042   0.35733   0.77639   0.00000  Uiso   1.00
C762   C     0.80618   0.64268   0.72369   0.00000  Uiso   1.00
C763   C     0.80625   0.35733   0.72360   0.00000  Uiso   1.00
C764   C     0.86048   0.64269   0.77632   0.00000  Uiso   1.00
C765   C     0.68793   0.45904   0.74452   0.00000  Uiso   1.00
C766   C     0.97874   0.54096   0.75547   0.00000  Uiso   1.00
C767   C     0.97869   0.45903   0.74458   0.00000  Uiso   1.00
C768   C     0.68798   0.54097   0.75541   0.00000  Uiso   1.00
C769   C     0.81695   0.53682   0.54658   0.00000  Uiso   1.00
C770   C     0.81706   0.46272   0.95315   0.00000  Uiso   1.00
C771   C     0.85017   0.53679   0.95336   0.00000  Uiso   1.00
C772   C     0.85006   0.46275   0.54692   0.00000  Uiso   1.00
C773   C     0.81676   0.53702   0.59252   0.00000  Uiso   1.00
C774   C     0.81684   0.46270   0.90720   0.00000  Uiso   1.00
C775   C     0.85019   0.53700   0.90743   0.00000  Uiso   1.00
C776   C     0.85011   0.46272   0.59287   0.00000  Uiso   1.00
C777   C     0.83341   0.49992   0.61586   0.00000  Uiso   1.00
C778   C     0.83344   0.49992   0.88414   0.00000  Uiso   1.00
C779   C     0.83355   0.49976   0.52394   0.00000  Uiso   1.00
C780   C     0.83364   0.49972   0.97606   0.00000  Uiso   1.00
C781   C     0.95753   0.50000   0.75005   0.00000  Uiso   1.00
C782   C     0.70913   0.50000   0.74995   0.00000  Uiso   1.00
H783   H     0.80371   0.56525   0.52860   0.00000  Uiso   1.00
H784   H     0.80382   0.43423   0.97090   0.00000  Uiso   1.00
H785   H     0.86346   0.56522   0.97129   0.00000  Uiso   1.00
H786   H     0.86334   0.43426   0.52920   0.00000  Uiso   1.00
H787   H     0.70408   0.42715   0.74007   0.00000  Uiso   1.00
H788   H     0.96259   0.57285   0.75993   0.00000  Uiso   1.00
H789   H     0.96249   0.42714   0.74017   0.00000  Uiso   1.00
H790   H     0.70417   0.57286   0.75981   0.00000  Uiso   1.00
N791   N     0.83333   0.61907   0.75000   0.00000  Uiso   1.00
N792   N     0.83333   0.38093   0.75000   0.00000  Uiso   1.00
O793   O     0.77226   0.53821   0.75000   0.00000  Uiso   1.00
O794   O     0.89441   0.46179   0.75001   0.00000  Uiso   1.00
O795   O     0.89441   0.53821   0.75001   0.00000  Uiso   1.00
O796   O     0.77226   0.46179   0.74999   0.00000  Uiso   1.00
O797   O     0.83333   0.53822   0.68453   0.00000  Uiso   1.00
O798   O     0.83334   0.46178   0.81547   0.00000  Uiso   1.00
O799   O     0.83334   0.53822   0.81547   0.00000  Uiso   1.00
O800   O     0.83333   0.46178   0.68453   0.00000  Uiso   1.00
Zn801  Zn    0.83333   0.55104   0.75000   0.00000  Uiso   1.00
Zn802  Zn    0.83333   0.44896   0.75000   0.00000  Uiso   1.00
F803   F     0.88750   0.38006   0.80290   0.00000  Uiso   1.00
F804   F     0.77889   0.61998   0.69743   0.00000  Uiso   1.00
F805   F     0.77920   0.38005   0.69706   0.00000  Uiso   1.00
F806   F     0.88776   0.61999   0.80259   0.00000  Uiso   1.00
F807   F     0.79950   0.57287   0.61390   0.00000  Uiso   1.00
F808   F     0.79958   0.42692   0.88550   0.00000  Uiso   1.00
F809   F     0.86737   0.57285   0.88598   0.00000  Uiso   1.00
F810   F     0.86729   0.42693   0.61462   0.00000  Uiso   1.00
C811   C     0.08662   0.83333   0.74995   0.00000  Uiso   1.00
C812   C     0.24672   0.83333   0.75004   0.00000  Uiso   1.00
C813   C     0.16666   0.83332   0.66386   0.00000  Uiso   1.00
C814   C     0.16670   0.83332   0.83614   0.00000  Uiso   1.00
C815   C     0.19376   0.69066   0.77639   0.00000  Uiso   1.00
C816   C     0.13952   0.97602   0.72369   0.00000  Uiso   1.00
C817   C     0.13958   0.69066   0.72360   0.00000  Uiso   1.00
C818   C     0.19382   0.97602   0.77632   0.00000  Uiso   1.00
C819   C     0.02126   0.79237   0.74452   0.00000  Uiso   1.00
C820   C     0.31207   0.87429   0.75547   0.00000  Uiso   1.00
C821   C     0.31202   0.79237   0.74458   0.00000  Uiso   1.00
C822   C     0.02131   0.87430   0.75541   0.00000  Uiso   1.00
C823   C     0.15029   0.87016   0.54658   0.00000  Uiso   1.00
C824   C     0.15039   0.79605   0.95315   0.00000  Uiso   1.00
C825   C     0.18350   0.87012   0.95336   0.00000  Uiso   1.00
C826   C     0.18339   0.79608   0.54692   0.00000  Uiso   1.00
C827   C     0.15010   0.87035   0.59252   0.00000  Uiso   1.00
C828   C     0.15017   0.79604   0.90720   0.00000  Uiso   1.00
C829   C     0.18352   0.87033   0.90743   0.00000  Uiso   1.00
C830   C     0.18344   0.79606   0.59287   0.00000  Uiso   1.00
C831   C     0.16674   0.83326   0.61586   0.00000  Uiso   1.00
C832   C     0.16678   0.83325   0.88414   0.00000  Uiso   1.00
C833   C     0.16689   0.83309   0.52394   0.00000  Uiso   1.00
C834   C     0.16697   0.83306   0.97606   0.00000  Uiso   1.00
C835   C     0.29087   0.83333   0.75005   0.00000  Uiso   1.00
C836   C     0.04247   0.83334   0.74995   0.00000  Uiso   1.00
H837   H     0.13704   0.89859   0.52860   0.00000  Uiso   1.00
H838   H     0.13715   0.76757   0.97090   0.00000  Uiso   1.00
H839   H     0.19679   0.89856   0.97129   0.00000  Uiso   1.00
H840   H     0.19668   0.76759   0.52920   0.00000  Uiso   1.00
H841   H     0.03741   0.76048   0.74007   0.00000  Uiso   1.00
H842   H     0.29592   0.90618   0.75993   0.00000  Uiso   1.00
H843   H     0.29582   0.76047   0.74017   0.00000  Uiso   1.00
H844   H     0.03751   0.90620   0.75981   0.00000  Uiso   1.00
N845   N     0.16667   0.95240   0.75000   0.00000  Uiso   1.00
N846   N     0.16667   0.71427   0.75000   0.00000  Uiso   1.00
O847   O     0.10559   0.87154   0.75000   0.00000  Uiso   1.00
O848   O     0.22774   0.79513   0.75001   0.00000  Uiso   1.00
O849   O     0.22774   0.87154   0.75001   0.00000  Uiso   1.00
O850   O     0.10559   0.79513   0.74999   0.00000  Uiso   1.00
O851   O     0.16666   0.87155   0.68453   0.00000  Uiso   1.00
O852   O     0.16667   0.79511   0.81547   0.00000  Uiso   1.00
O853   O     0.16667   0.87155   0.81547   0.00000  Uiso   1.00
O854   O     0.16666   0.79511   0.68453   0.00000  Uiso   1.00
Zn855  Zn    0.16667   0.88437   0.75000   0.00000  Uiso   1.00
Zn856  Zn    0.16667   0.78229   0.75000   0.00000  Uiso   1.00
F857   F     0.22083   0.71339   0.80290   0.00000  Uiso   1.00
F858   F     0.11222   0.95332   0.69743   0.00000  Uiso   1.00
F859   F     0.11253   0.71339   0.69706   0.00000  Uiso   1.00
F860   F     0.22110   0.95332   0.80259   0.00000  Uiso   1.00
F861   F     0.13283   0.90620   0.61390   0.00000  Uiso   1.00
F862   F     0.13292   0.76025   0.88550   0.00000  Uiso   1.00
F863   F     0.20071   0.90619   0.88598   0.00000  Uiso   1.00
F864   F     0.20062   0.76026   0.61462   0.00000  Uiso   1.00
C865   C     0.41995   0.83333   0.74995   0.00000  Uiso   1.00
C866   C     0.58005   0.83333   0.75004   0.00000  Uiso   1.00
C867   C     0.49999   0.83332   0.66386   0.00000  Uiso   1.00
C868   C     0.50003   0.83332   0.83614   0.00000  Uiso   1.00
C869   C     0.52709   0.69066   0.77639   0.00000  Uiso   1.00
C870   C     0.47285   0.97602   0.72369   0.00000  Uiso   1.00
C871   C     0.47292   0.69066   0.72360   0.00000  Uiso   1.00
C872   C     0.52715   0.97602   0.77632   0.00000  Uiso   1.00
C873   C     0.35459   0.79237   0.74452   0.00000  Uiso   1.00
C874   C     0.64541   0.87429   0.75547   0.00000  Uiso   1.00
C875   C     0.64535   0.79237   0.74458   0.00000  Uiso   1.00
C876   C     0.35465   0.87430   0.75541   0.00000  Uiso   1.00
C877   C     0.48362   0.87016   0.54658   0.00000  Uiso   1.00
C878   C     0.48373   0.79605   0.95315   0.00000  Uiso   1.00
C879   C     0.51684   0.87012   0.95336   0.00000  Uiso   1.00
C880   C     0.51673   0.79608   0.54692   0.00000  Uiso   1.00
C881   C     0.48343   0.87035   0.59252   0.00000  Uiso   1.00
C882   C     0.48351   0.79604   0.90720   0.00000  Uiso   1.00
C883   C     0.51685   0.87033   0.90743   0.00000  Uiso   1.00
C884   C     0.51678   0.79606   0.59287   0.00000  Uiso   1.00
C885   C     0.50007   0.83326   0.61586   0.00000  Uiso   1.00
C886   C     0.50011   0.83325   0.88414   0.00000  Uiso   1.00
C887   C     0.50022   0.83309   0.52394   0.00000  Uiso   1.00
C888   C     0.50030   0.83306   0.97606   0.00000  Uiso   1.00
C889   C     0.62420   0.83333   0.75005   0.00000  Uiso   1.00
C890   C     0.37580   0.83334   0.74995   0.00000  Uiso   1.00
H891   H     0.47038   0.89859   0.52860   0.00000  Uiso   1.00
H892   H     0.47048   0.76757   0.97090   0.00000  Uiso   1.00
H893   H     0.53012   0.89856   0.97129   0.00000  Uiso   1.00
H894   H     0.53001   0.76759   0.52920   0.00000  Uiso   1.00
H895   H     0.37074   0.76048   0.74007   0.00000  Uiso   1.00
H896   H     0.62926   0.90618   0.75993   0.00000  Uiso   1.00
H897   H     0.62916   0.76047   0.74017   0.00000  Uiso   1.00
H898   H     0.37084   0.90620   0.75981   0.00000  Uiso   1.00
N899   N     0.50000   0.95240   0.75000   0.00000  Uiso   1.00
N900   N     0.50000   0.71427   0.75000   0.00000  Uiso   1.00
O901   O     0.43892   0.87154   0.75000   0.00000  Uiso   1.00
O902   O     0.56108   0.79513   0.75001   0.00000  Uiso   1.00
O903   O     0.56108   0.87154   0.75001   0.00000  Uiso   1.00
O904   O     0.43892   0.79513   0.74999   0.00000  Uiso   1.00
O905   O     0.50000   0.87155   0.68453   0.00000  Uiso   1.00
O906   O     0.50000   0.79511   0.81547   0.00000  Uiso   1.00
O907   O     0.50000   0.87155   0.81547   0.00000  Uiso   1.00
O908   O     0.50000   0.79511   0.68453   0.00000  Uiso   1.00
Zn909  Zn    0.50000   0.88437   0.75000   0.00000  Uiso   1.00
Zn910  Zn    0.50000   0.78229   0.75000   0.00000  Uiso   1.00
F911   F     0.55416   0.71339   0.80290   0.00000  Uiso   1.00
F912   F     0.44555   0.95332   0.69743   0.00000  Uiso   1.00
F913   F     0.44586   0.71339   0.69706   0.00000  Uiso   1.00
F914   F     0.55443   0.95332   0.80259   0.00000  Uiso   1.00
F915   F     0.46617   0.90620   0.61390   0.00000  Uiso   1.00
F916   F     0.46625   0.76025   0.88550   0.00000  Uiso   1.00
F917   F     0.53404   0.90619   0.88598   0.00000  Uiso   1.00
F918   F     0.53395   0.76026   0.61462   0.00000  Uiso   1.00
C919   C     0.75328   0.83333   0.74995   0.00000  Uiso   1.00
C920   C     0.91339   0.83333   0.75004   0.00000  Uiso   1.00
C921   C     0.83333   0.83332   0.66386   0.00000  Uiso   1.00
C922   C     0.83337   0.83332   0.83614   0.00000  Uiso   1.00
C923   C     0.86042   0.69066   0.77639   0.00000  Uiso   1.00
C924   C     0.80618   0.97602   0.72369   0.00000  Uiso   1.00
C925   C     0.80625   0.69066   0.72360   0.00000  Uiso   1.00
C926   C     0.86048   0.97602   0.77632   0.00000  Uiso   1.00
C927   C     0.68793   0.79237   0.74452   0.00000  Uiso   1.00
C928   C     0.97874   0.87429   0.75547   0.00000  Uiso   1.00
C929   C     0.97869   0.79237   0.74458   0.00000  Uiso   1.00
C930   C     0.68798   0.87430   0.75541   0.00000  Uiso   1.00
C931   C     0.81695   0.87016   0.54658   0.00000  Uiso   1.00
C932   C     0.81706   0.79605   0.95315   0.00000  Uiso   1.00
C933   C     0.85017   0.87012   0.95336   0.00000  Uiso   1.00
C934   C     0.85006   0.79608   0.54692   0.00000  Uiso   1.00
C935   C     0.81676   0.87035   0.59252   0.00000  Uiso   1.00
C936   C     0.81684   0.79604   0.90720   0.00000  Uiso   1.00
C937   C     0.85019   0.87033   0.90743   0.00000  Uiso   1.00
C938   C     0.85011   0.79606   0.59287   0.00000  Uiso   1.00
C939   C     0.83341   0.83326   0.61586   0.00000  Uiso   1.00
C940   C     0.83344   0.83325   0.88414   0.00000  Uiso   1.00
C941   C     0.83355   0.83309   0.52394   0.00000  Uiso   1.00
C942   C     0.83364   0.83306   0.97606   0.00000  Uiso   1.00
C943   C     0.95753   0.83333   0.75005   0.00000  Uiso   1.00
C944   C     0.70913   0.83334   0.74995   0.00000  Uiso   1.00
H945   H     0.80371   0.89859   0.52860   0.00000  Uiso   1.00
H946   H     0.80382   0.76757   0.97090   0.00000  Uiso   1.00
H947   H     0.86346   0.89856   0.97129   0.00000  Uiso   1.00
H948   H     0.86334   0.76759   0.52920   0.00000  Uiso   1.00
H949   H     0.70408   0.76048   0.74007   0.00000  Uiso   1.00
H950   H     0.96259   0.90618   0.75993   0.00000  Uiso   1.00
H951   H     0.96249   0.76047   0.74017   0.00000  Uiso   1.00
H952   H     0.70417   0.90620   0.75981   0.00000  Uiso   1.00
N953   N     0.83333   0.95240   0.75000   0.00000  Uiso   1.00
N954   N     0.83333   0.71427   0.75000   0.00000  Uiso   1.00
O955   O     0.77226   0.87154   0.75000   0.00000  Uiso   1.00
O956   O     0.89441   0.79513   0.75001   0.00000  Uiso   1.00
O957   O     0.89441   0.87154   0.75001   0.00000  Uiso   1.00
O958   O     0.77226   0.79513   0.74999   0.00000  Uiso   1.00
O959   O     0.83333   0.87155   0.68453   0.00000  Uiso   1.00
O960   O     0.83334   0.79511   0.81547   0.00000  Uiso   1.00
O961   O     0.83334   0.87155   0.81547   0.00000  Uiso   1.00
O962   O     0.83333   0.79511   0.68453   0.00000  Uiso   1.00
Zn963  Zn    0.83333   0.88437   0.75000   0.00000  Uiso   1.00
Zn964  Zn    0.83333   0.78229   0.75000   0.00000  Uiso   1.00
F965   F     0.88750   0.71339   0.80290   0.00000  Uiso   1.00
F966   F     0.77889   0.95332   0.69743   0.00000  Uiso   1.00
F967   F     0.77920   0.71339   0.69706   0.00000  Uiso   1.00
F968   F     0.88776   0.95332   0.80259   0.00000  Uiso   1.00
F969   F     0.79950   0.90620   0.61390   0.00000  Uiso   1.00
F970   F     0.79958   0.76025   0.88550   0.00000  Uiso   1.00
F971   F     0.86737   0.90619   0.88598   0.00000  Uiso   1.00
F972   F     0.86729   0.76026   0.61462   0.00000  Uiso   1.00
loop_
_geom_bond_atom_site_label_1
_geom_bond_atom_site_label_2
_geom_bond_distance
_geom_bond_site_symmetry_2
_ccdc_geom_bond_type
C1     O37     1.282   .     A
C1     C26     1.420   .     S
C1     O40     1.282   .     A
C2     O38     1.282   .     A
C2     C25     1.420   .     S
C2     O39     1.282   .     A
C3     O44     1.287   .     A
C3     C21     1.442   .     S
C3     O41     1.288   .     A
C4     O43     1.288   .     A
C4     C22     1.442   .     S
C4     O42     1.287   .     A
C5     F47     1.355   .     S
C5     N36     1.366   .     A
C5     C332    1.416   1_545 S
C6     N35     1.367   .     A
C6     F48     1.355   .     S
C6     C169    1.416   .     S
C7     N36     1.366   .     A
C7     F49     1.355   .     S
C7     C330    1.416   1_545 S
C8     F50     1.355   .     S
C8     N35     1.367   .     A
C8     C167    1.416   .     S
C9     C26     1.397   .     A
C9     H31     1.084   .     S
C9     C119    1.370   1_455 S
C10    C25     1.397   .     A
C10    H32     1.084   .     S
C10    C66     1.370   .     S
C11    C25     1.397   .     A
C11    H33     1.084   .     S
C11    C63     1.370   .     S
C12    H34     1.084   .     S
C12    C26     1.397   .     A
C12    C118    1.370   1_455 S
C13    C17     1.380   .     A
C13    C23     1.396   .     A
C13    H27     1.084   .     S
C14    C24     1.396   .     A
C14    C18     1.381   .     A
C14    H28     1.084   .     S
C15    C24     1.396   .     A
C15    C19     1.380   .     A
C15    H29     1.084   .     S
C16    C23     1.396   .     A
C16    C20     1.381   .     A
C16    H30     1.084   .     S
C17    F51     1.358   .     S
C17    C21     1.405   .     A
C18    F52     1.358   .     S
C18    C22     1.405   .     A
C19    F53     1.358   .     S
C19    C22     1.405   .     A
C20    C21     1.405   .     A
C20    F54     1.358   .     S
C23    C510    1.439   1_554 S
C24    C509    1.439   .     S
N35    Zn45    2.007   .     S
N36    Zn46    2.007   .     S
O37    Zn45    2.001   .     S
O38    Zn46    2.001   .     S
O39    Zn45    2.001   .     S
O40    Zn46    2.001   .     S
O41    Zn45    2.003   .     S
O42    Zn46    2.003   .     S
O43    Zn45    2.003   .     S
O44    Zn46    2.003   .     S
C55    O91     1.282   .     A
C55    C80     1.420   .     S
C55    O94     1.282   .     A
C56    O92     1.282   .     A
C56    C79     1.420   .     S
C56    O93     1.282   .     A
C57    O98     1.287   .     A
C57    C75     1.442   .     S
C57    O95     1.288   .     A
C58    O97     1.288   .     A
C58    C76     1.442   .     S
C58    O96     1.287   .     A
C59    F101    1.355   .     S
C59    N90     1.366   .     A
C59    C386    1.416   1_545 S
C60    N89     1.367   .     A
C60    F102    1.355   .     S
C60    C223    1.416   .     S
C61    N90     1.366   .     A
C61    F103    1.355   .     S
C61    C384    1.416   1_545 S
C62    F104    1.355   .     S
C62    N89     1.367   .     A
C62    C221    1.416   .     S
C63    C80     1.397   .     A
C63    H85     1.084   .     S
C64    C79     1.397   .     A
C64    H86     1.084   .     S
C64    C120    1.370   .     S
C65    C79     1.397   .     A
C65    H87     1.084   .     S
C65    C117    1.370   .     S
C66    H88     1.084   .     S
C66    C80     1.397   .     A
C67    C71     1.380   .     A
C67    C77     1.396   .     A
C67    H81     1.084   .     S
C68    C78     1.396   .     A
C68    C72     1.381   .     A
C68    H82     1.084   .     S
C69    C78     1.396   .     A
C69    C73     1.380   .     A
C69    H83     1.084   .     S
C70    C77     1.396   .     A
C70    C74     1.381   .     A
C70    H84     1.084   .     S
C71    F105    1.358   .     S
C71    C75     1.405   .     A
C72    F106    1.358   .     S
C72    C76     1.405   .     A
C73    F107    1.358   .     S
C73    C76     1.405   .     A
C74    C75     1.405   .     A
C74    F108    1.358   .     S
C77    C564    1.439   1_554 S
C78    C563    1.439   .     S
N89    Zn99    2.007   .     S
N90    Zn100   2.007   .     S
O91    Zn99    2.001   .     S
O92    Zn100   2.001   .     S
O93    Zn99    2.001   .     S
O94    Zn100   2.001   .     S
O95    Zn99    2.003   .     S
O96    Zn100   2.003   .     S
O97    Zn99    2.003   .     S
O98    Zn100   2.003   .     S
C109   O145    1.282   .     A
C109   C134    1.420   .     S
C109   O148    1.282   .     A
C110   O146    1.282   .     A
C110   C133    1.420   .     S
C110   O147    1.282   .     A
C111   O152    1.287   .     A
C111   C129    1.442   .     S
C111   O149    1.288   .     A
C112   O151    1.288   .     A
C112   C130    1.442   .     S
C112   O150    1.287   .     A
C113   F155    1.355   .     S
C113   N144    1.366   .     A
C113   C440    1.416   1_545 S
C114   N143    1.367   .     A
C114   F156    1.355   .     S
C114   C277    1.416   .     S
C115   N144    1.366   .     A
C115   F157    1.355   .     S
C115   C438    1.416   1_545 S
C116   F158    1.355   .     S
C116   N143    1.367   .     A
C116   C275    1.416   .     S
C117   C134    1.397   .     A
C117   H139    1.084   .     S
C118   C133    1.397   .     A
C118   H140    1.084   .     S
C118   C12     1.370   1_655 S
C119   C133    1.397   .     A
C119   H141    1.084   .     S
C119   C9      1.370   1_655 S
C120   H142    1.084   .     S
C120   C134    1.397   .     A
C121   C125    1.380   .     A
C121   C131    1.396   .     A
C121   H135    1.084   .     S
C122   C132    1.396   .     A
C122   C126    1.381   .     A
C122   H136    1.084   .     S
C123   C132    1.396   .     A
C123   C127    1.380   .     A
C123   H137    1.084   .     S
C124   C131    1.396   .     A
C124   C128    1.381   .     A
C124   H138    1.084   .     S
C125   F159    1.358   .     S
C125   C129    1.405   .     A
C126   F160    1.358   .     S
C126   C130    1.405   .     A
C127   F161    1.358   .     S
C127   C130    1.405   .     A
C128   C129    1.405   .     A
C128   F162    1.358   .     S
C131   C618    1.439   1_554 S
C132   C617    1.439   .     S
N143   Zn153   2.007   .     S
N144   Zn154   2.007   .     S
O145   Zn153   2.001   .     S
O146   Zn154   2.001   .     S
O147   Zn153   2.001   .     S
O148   Zn154   2.001   .     S
O149   Zn153   2.003   .     S
O150   Zn154   2.003   .     S
O151   Zn153   2.003   .     S
O152   Zn154   2.003   .     S
C163   O199    1.282   .     A
C163   C188    1.420   .     S
C163   O202    1.282   .     A
C164   O200    1.282   .     A
C164   C187    1.420   .     S
C164   O201    1.282   .     A
C165   O206    1.287   .     A
C165   C183    1.442   .     S
C165   O203    1.288   .     A
C166   O205    1.288   .     A
C166   C184    1.442   .     S
C166   O204    1.287   .     A
C167   F209    1.355   .     S
C167   N198    1.366   .     A
C168   N197    1.367   .     A
C168   F210    1.355   .     S
C168   C331    1.416   .     S
C169   N198    1.366   .     A
C169   F211    1.355   .     S
C170   F212    1.355   .     S
C170   N197    1.367   .     A
C170   C329    1.416   .     S
C171   C188    1.397   .     A
C171   H193    1.084   .     S
C171   C281    1.370   1_455 S
C172   C187    1.397   .     A
C172   H194    1.084   .     S
C172   C228    1.370   .     S
C173   C187    1.397   .     A
C173   H195    1.084   .     S
C173   C225    1.370   .     S
C174   H196    1.084   .     S
C174   C188    1.397   .     A
C174   C280    1.370   1_455 S
C175   C179    1.380   .     A
C175   C185    1.396   .     A
C175   H189    1.084   .     S
C176   C186    1.396   .     A
C176   C180    1.381   .     A
C176   H190    1.084   .     S
C177   C186    1.396   .     A
C177   C181    1.380   .     A
C177   H191    1.084   .     S
C178   C185    1.396   .     A
C178   C182    1.381   .     A
C178   H192    1.084   .     S
C179   F213    1.358   .     S
C179   C183    1.405   .     A
C180   F214    1.358   .     S
C180   C184    1.405   .     A
C181   F215    1.358   .     S
C181   C184    1.405   .     A
C182   C183    1.405   .     A
C182   F216    1.358   .     S
C185   C672    1.439   1_554 S
C186   C671    1.439   .     S
N197   Zn207   2.007   .     S
N198   Zn208   2.007   .     S
O199   Zn207   2.001   .     S
O200   Zn208   2.001   .     S
O201   Zn207   2.001   .     S
O202   Zn208   2.001   .     S
O203   Zn207   2.003   .     S
O204   Zn208   2.003   .     S
O205   Zn207   2.003   .     S
O206   Zn208   2.003   .     S
C217   O253    1.282   .     A
C217   C242    1.420   .     S
C217   O256    1.282   .     A
C218   O254    1.282   .     A
C218   C241    1.420   .     S
C218   O255    1.282   .     A
C219   O260    1.287   .     A
C219   C237    1.442   .     S
C219   O257    1.288   .     A
C220   O259    1.288   .     A
C220   C238    1.442   .     S
C220   O258    1.287   .     A
C221   F263    1.355   .     S
C221   N252    1.366   .     A
C222   N251    1.367   .     A
C222   F264    1.355   .     S
C222   C385    1.416   .     S
C223   N252    1.366   .     A
C223   F265    1.355   .     S
C224   F266    1.355   .     S
C224   N251    1.367   .     A
C224   C383    1.416   .     S
C225   C242    1.397   .     A
C225   H247    1.084   .     S
C226   C241    1.397   .     A
C226   H248    1.084   .     S
C226   C282    1.370   .     S
C227   C241    1.397   .     A
C227   H249    1.084   .     S
C227   C279    1.370   .     S
C228   H250    1.084   .     S
C228   C242    1.397   .     A
C229   C233    1.380   .     A
C229   C239    1.396   .     A
C229   H243    1.084   .     S
C230   C240    1.396   .     A
C230   C234    1.381   .     A
C230   H244    1.084   .     S
C231   C240    1.396   .     A
C231   C235    1.380   .     A
C231   H245    1.084   .     S
C232   C239    1.396   .     A
C232   C236    1.381   .     A
C232   H246    1.084   .     S
C233   F267    1.358   .     S
C233   C237    1.405   .     A
C234   F268    1.358   .     S
C234   C238    1.405   .     A
C235   F269    1.358   .     S
C235   C238    1.405   .     A
C236   C237    1.405   .     A
C236   F270    1.358   .     S
C239   C726    1.439   1_554 S
C240   C725    1.439   .     S
N251   Zn261   2.007   .     S
N252   Zn262   2.007   .     S
O253   Zn261   2.001   .     S
O254   Zn262   2.001   .     S
O255   Zn261   2.001   .     S
O256   Zn262   2.001   .     S
O257   Zn261   2.003   .     S
O258   Zn262   2.003   .     S
O259   Zn261   2.003   .     S
O260   Zn262   2.003   .     S
C271   O307    1.282   .     A
C271   C296    1.420   .     S
C271   O310    1.282   .     A
C272   O308    1.282   .     A
C272   C295    1.420   .     S
C272   O309    1.282   .     A
C273   O314    1.287   .     A
C273   C291    1.442   .     S
C273   O311    1.288   .     A
C274   O313    1.288   .     A
C274   C292    1.442   .     S
C274   O312    1.287   .     A
C275   F317    1.355   .     S
C275   N306    1.366   .     A
C276   N305    1.367   .     A
C276   F318    1.355   .     S
C276   C439    1.416   .     S
C277   N306    1.366   .     A
C277   F319    1.355   .     S
C278   F320    1.355   .     S
C278   N305    1.367   .     A
C278   C437    1.416   .     S
C279   C296    1.397   .     A
C279   H301    1.084   .     S
C280   C295    1.397   .     A
C280   H302    1.084   .     S
C280   C174    1.370   1_655 S
C281   C295    1.397   .     A
C281   H303    1.084   .     S
C281   C171    1.370   1_655 S
C282   H304    1.084   .     S
C282   C296    1.397   .     A
C283   C287    1.380   .     A
C283   C293    1.396   .     A
C283   H297    1.084   .     S
C284   C294    1.396   .     A
C284   C288    1.381   .     A
C284   H298    1.084   .     S
C285   C294    1.396   .     A
C285   C289    1.380   .     A
C285   H299    1.084   .     S
C286   C293    1.396   .     A
C286   C290    1.381   .     A
C286   H300    1.084   .     S
C287   F321    1.358   .     S
C287   C291    1.405   .     A
C288   F322    1.358   .     S
C288   C292    1.405   .     A
C289   F323    1.358   .     S
C289   C292    1.405   .     A
C290   C291    1.405   .     A
C290   F324    1.358   .     S
C293   C780    1.439   1_554 S
C294   C779    1.439   .     S
N305   Zn315   2.007   .     S
N306   Zn316   2.007   .     S
O307   Zn315   2.001   .     S
O308   Zn316   2.001   .     S
O309   Zn315   2.001   .     S
O310   Zn316   2.001   .     S
O311   Zn315   2.003   .     S
O312   Zn316   2.003   .     S
O313   Zn315   2.003   .     S
O314   Zn316   2.003   .     S
C325   O361    1.282   .     A
C325   C350    1.420   .     S
C325   O364    1.282   .     A
C326   O362    1.282   .     A
C326   C349    1.420   .     S
C326   O363    1.282   .     A
C327   O368    1.287   .     A
C327   C345    1.442   .     S
C327   O365    1.288   .     A
C328   O367    1.288   .     A
C328   C346    1.442   .     S
C328   O366    1.287   .     A
C329   F371    1.355   .     S
C329   N360    1.366   .     A
C330   N359    1.367   .     A
C330   F372    1.355   .     S
C330   C7      1.416   1_565 S
C331   N360    1.366   .     A
C331   F373    1.355   .     S
C332   F374    1.355   .     S
C332   N359    1.367   .     A
C332   C5      1.416   1_565 S
C333   C350    1.397   .     A
C333   H355    1.084   .     S
C333   C443    1.370   1_455 S
C334   C349    1.397   .     A
C334   H356    1.084   .     S
C334   C390    1.370   .     S
C335   C349    1.397   .     A
C335   H357    1.084   .     S
C335   C387    1.370   .     S
C336   H358    1.084   .     S
C336   C350    1.397   .     A
C336   C442    1.370   1_455 S
C337   C341    1.380   .     A
C337   C347    1.396   .     A
C337   H351    1.084   .     S
C338   C348    1.396   .     A
C338   C342    1.381   .     A
C338   H352    1.084   .     S
C339   C348    1.396   .     A
C339   C343    1.380   .     A
C339   H353    1.084   .     S
C340   C347    1.396   .     A
C340   C344    1.381   .     A
C340   H354    1.084   .     S
C341   F375    1.358   .     S
C341   C345    1.405   .     A
C342   F376    1.358   .     S
C342   C346    1.405   .     A
C343   F377    1.358   .     S
C343   C346    1.405   .     A
C344   C345    1.405   .     A
C344   F378    1.358   .     S
C347   C834    1.439   1_554 S
C348   C833    1.439   .     S
N359   Zn369   2.007   .     S
N360   Zn370   2.007   .     S
O361   Zn369   2.001   .     S
O362   Zn370   2.001   .     S
O363   Zn369   2.001   .     S
O364   Zn370   2.001   .     S
O365   Zn369   2.003   .     S
O366   Zn370   2.003   .     S
O367   Zn369   2.003   .     S
O368   Zn370   2.003   .     S
C379   O415    1.282   .     A
C379   C404    1.420   .     S
C379   O418    1.282   .     A
C380   O416    1.282   .     A
C380   C403    1.420   .     S
C380   O417    1.282   .     A
C381   O422    1.287   .     A
C381   C399    1.442   .     S
C381   O419    1.288   .     A
C382   O421    1.288   .     A
C382   C400    1.442   .     S
C382   O420    1.287   .     A
C383   F425    1.355   .     S
C383   N414    1.366   .     A
C384   N413    1.367   .     A
C384   F426    1.355   .     S
C384   C61     1.416   1_565 S
C385   N414    1.366   .     A
C385   F427    1.355   .     S
C386   F428    1.355   .     S
C386   N413    1.367   .     A
C386   C59     1.416   1_565 S
C387   C404    1.397   .     A
C387   H409    1.084   .     S
C388   C403    1.397   .     A
C388   H410    1.084   .     S
C388   C444    1.370   .     S
C389   C403    1.397   .     A
C389   H411    1.084   .     S
C389   C441    1.370   .     S
C390   H412    1.084   .     S
C390   C404    1.397   .     A
C391   C395    1.380   .     A
C391   C401    1.396   .     A
C391   H405    1.084   .     S
C392   C402    1.396   .     A
C392   C396    1.381   .     A
C392   H406    1.084   .     S
C393   C402    1.396   .     A
C393   C397    1.380   .     A
C393   H407    1.084   .     S
C394   C401    1.396   .     A
C394   C398    1.381   .     A
C394   H408    1.084   .     S
C395   F429    1.358   .     S
C395   C399    1.405   .     A
C396   F430    1.358   .     S
C396   C400    1.405   .     A
C397   F431    1.358   .     S
C397   C400    1.405   .     A
C398   C399    1.405   .     A
C398   F432    1.358   .     S
C401   C888    1.439   1_554 S
C402   C887    1.439   .     S
N413   Zn423   2.007   .     S
N414   Zn424   2.007   .     S
O415   Zn423   2.001   .     S
O416   Zn424   2.001   .     S
O417   Zn423   2.001   .     S
O418   Zn424   2.001   .     S
O419   Zn423   2.003   .     S
O420   Zn424   2.003   .     S
O421   Zn423   2.003   .     S
O422   Zn424   2.003   .     S
C433   O469    1.282   .     A
C433   C458    1.420   .     S
C433   O472    1.282   .     A
C434   O470    1.282   .     A
C434   C457    1.420   .     S
C434   O471    1.282   .     A
C435   O476    1.287   .     A
C435   C453    1.442   .     S
C435   O473    1.288   .     A
C436   O475    1.288   .     A
C436   C454    1.442   .     S
C436   O474    1.287   .     A
C437   F479    1.355   .     S
C437   N468    1.366   .     A
C438   N467    1.367   .     A
C438   F480    1.355   .     S
C438   C115    1.416   1_565 S
C439   N468    1.366   .     A
C439   F481    1.355   .     S
C440   F482    1.355   .     S
C440   N467    1.367   .     A
C440   C113    1.416   1_565 S
C441   C458    1.397   .     A
C441   H463    1.084   .     S
C442   C457    1.397   .     A
C442   H464    1.084   .     S
C442   C336    1.370   1_655 S
C443   C457    1.397   .     A
C443   H465    1.084   .     S
C443   C333    1.370   1_655 S
C444   H466    1.084   .     S
C444   C458    1.397   .     A
C445   C449    1.380   .     A
C445   C455    1.396   .     A
C445   H459    1.084   .     S
C446   C456    1.396   .     A
C446   C450    1.381   .     A
C446   H460    1.084   .     S
C447   C456    1.396   .     A
C447   C451    1.380   .     A
C447   H461    1.084   .     S
C448   C455    1.396   .     A
C448   C452    1.381   .     A
C448   H462    1.084   .     S
C449   F483    1.358   .     S
C449   C453    1.405   .     A
C450   F484    1.358   .     S
C450   C454    1.405   .     A
C451   F485    1.358   .     S
C451   C454    1.405   .     A
C452   C453    1.405   .     A
C452   F486    1.358   .     S
C455   C942    1.439   1_554 S
C456   C941    1.439   .     S
N467   Zn477   2.007   .     S
N468   Zn478   2.007   .     S
O469   Zn477   2.001   .     S
O470   Zn478   2.001   .     S
O471   Zn477   2.001   .     S
O472   Zn478   2.001   .     S
O473   Zn477   2.003   .     S
O474   Zn478   2.003   .     S
O475   Zn477   2.003   .     S
O476   Zn478   2.003   .     S
C487   O523    1.282   .     A
C487   C512    1.420   .     S
C487   O526    1.282   .     A
C488   O524    1.282   .     A
C488   C511    1.420   .     S
C488   O525    1.282   .     A
C489   O530    1.287   .     A
C489   C507    1.442   .     S
C489   O527    1.288   .     A
C490   O529    1.288   .     A
C490   C508    1.442   .     S
C490   O528    1.287   .     A
C491   F533    1.355   .     S
C491   N522    1.366   .     A
C491   C818    1.416   1_545 S
C492   N521    1.367   .     A
C492   F534    1.355   .     S
C492   C655    1.416   .     S
C493   N522    1.366   .     A
C493   F535    1.355   .     S
C493   C816    1.416   1_545 S
C494   F536    1.355   .     S
C494   N521    1.367   .     A
C494   C653    1.416   .     S
C495   C512    1.397   .     A
C495   H517    1.084   .     S
C495   C605    1.370   1_455 S
C496   C511    1.397   .     A
C496   H518    1.084   .     S
C496   C552    1.370   .     S
C497   C511    1.397   .     A
C497   H519    1.084   .     S
C497   C549    1.370   .     S
C498   H520    1.084   .     S
C498   C512    1.397   .     A
C498   C604    1.370   1_455 S
C499   C503    1.380   .     A
C499   C509    1.396   .     A
C499   H513    1.084   .     S
C500   C510    1.396   .     A
C500   C504    1.381   .     A
C500   H514    1.084   .     S
C501   C510    1.396   .     A
C501   C505    1.380   .     A
C501   H515    1.084   .     S
C502   C509    1.396   .     A
C502   C506    1.381   .     A
C502   H516    1.084   .     S
C503   F537    1.358   .     S
C503   C507    1.405   .     A
C504   F538    1.358   .     S
C504   C508    1.405   .     A
C505   F539    1.358   .     S
C505   C508    1.405   .     A
C506   C507    1.405   .     A
C506   F540    1.358   .     S
C510   C23     1.439   1_556 S
N521   Zn531   2.007   .     S
N522   Zn532   2.007   .     S
O523   Zn531   2.001   .     S
O524   Zn532   2.001   .     S
O525   Zn531   2.001   .     S
O526   Zn532   2.001   .     S
O527   Zn531   2.003   .     S
O528   Zn532   2.003   .     S
O529   Zn531   2.003   .     S
O530   Zn532   2.003   .     S
C541   O577    1.282   .     A
C541   C566    1.420   .     S
C541   O580    1.282   .     A
C542   O578    1.282   .     A
C542   C565    1.420   .     S
C542   O579    1.282   .     A
C543   O584    1.287   .     A
C543   C561    1.442   .     S
C543   O581    1.288   .     A
C544   O583    1.288   .     A
C544   C562    1.442   .     S
C544   O582    1.287   .     A
C545   F587    1.355   .     S
C545   N576    1.366   .     A
C545   C872    1.416   1_545 S
C546   N575    1.367   .     A
C546   F588    1.355   .     S
C546   C709    1.416   .     S
C547   N576    1.366   .     A
C547   F589    1.355   .     S
C547   C870    1.416   1_545 S
C548   F590    1.355   .     S
C548   N575    1.367   .     A
C548   C707    1.416   .     S
C549   C566    1.397   .     A
C549   H571    1.084   .     S
C550   C565    1.397   .     A
C550   H572    1.084   .     S
C550   C606    1.370   .     S
C551   C565    1.397   .     A
C551   H573    1.084   .     S
C551   C603    1.370   .     S
C552   H574    1.084   .     S
C552   C566    1.397   .     A
C553   C557    1.380   .     A
C553   C563    1.396   .     A
C553   H567    1.084   .     S
C554   C564    1.396   .     A
C554   C558    1.381   .     A
C554   H568    1.084   .     S
C555   C564    1.396   .     A
C555   C559    1.380   .     A
C555   H569    1.084   .     S
C556   C563    1.396   .     A
C556   C560    1.381   .     A
C556   H570    1.084   .     S
C557   F591    1.358   .     S
C557   C561    1.405   .     A
C558   F592    1.358   .     S
C558   C562    1.405   .     A
C559   F593    1.358   .     S
C559   C562    1.405   .     A
C560   C561    1.405   .     A
C560   F594    1.358   .     S
C564   C77     1.439   1_556 S
N575   Zn585   2.007   .     S
N576   Zn586   2.007   .     S
O577   Zn585   2.001   .     S
O578   Zn586   2.001   .     S
O579   Zn585   2.001   .     S
O580   Zn586   2.001   .     S
O581   Zn585   2.003   .     S
O582   Zn586   2.003   .     S
O583   Zn585   2.003   .     S
O584   Zn586   2.003   .     S
C595   O631    1.282   .     A
C595   C620    1.420   .     S
C595   O634    1.282   .     A
C596   O632    1.282   .     A
C596   C619    1.420   .     S
C596   O633    1.282   .     A
C597   O638    1.287   .     A
C597   C615    1.442   .     S
C597   O635    1.288   .     A
C598   O637    1.288   .     A
C598   C616    1.442   .     S
C598   O636    1.287   .     A
C599   F641    1.355   .     S
C599   N630    1.366   .     A
C599   C926    1.416   1_545 S
C600   N629    1.367   .     A
C600   F642    1.355   .     S
C600   C763    1.416   .     S
C601   N630    1.366   .     A
C601   F643    1.355   .     S
C601   C924    1.416   1_545 S
C602   F644    1.355   .     S
C602   N629    1.367   .     A
C602   C761    1.416   .     S
C603   C620    1.397   .     A
C603   H625    1.084   .     S
C604   C619    1.397   .     A
C604   H626    1.084   .     S
C604   C498    1.370   1_655 S
C605   C619    1.397   .     A
C605   H627    1.084   .     S
C605   C495    1.370   1_655 S
C606   H628    1.084   .     S
C606   C620    1.397   .     A
C607   C611    1.380   .     A
C607   C617    1.396   .     A
C607   H621    1.084   .     S
C608   C618    1.396   .     A
C608   C612    1.381   .     A
C608   H622    1.084   .     S
C609   C618    1.396   .     A
C609   C613    1.380   .     A
C609   H623    1.084   .     S
C610   C617    1.396   .     A
C610   C614    1.381   .     A
C610   H624    1.084   .     S
C611   F645    1.358   .     S
C611   C615    1.405   .     A
C612   F646    1.358   .     S
C612   C616    1.405   .     A
C613   F647    1.358   .     S
C613   C616    1.405   .     A
C614   C615    1.405   .     A
C614   F648    1.358   .     S
C618   C131    1.439   1_556 S
N629   Zn639   2.007   .     S
N630   Zn640   2.007   .     S
O631   Zn639   2.001   .     S
O632   Zn640   2.001   .     S
O633   Zn639   2.001   .     S
O634   Zn640   2.001   .     S
O635   Zn639   2.003   .     S
O636   Zn640   2.003   .     S
O637   Zn639   2.003   .     S
O638   Zn640   2.003   .     S
C649   O685    1.282   .     A
C649   C674    1.420   .     S
C649   O688    1.282   .     A
C650   O686    1.282   .     A
C650   C673    1.420   .     S
C650   O687    1.282   .     A
C651   O692    1.287   .     A
C651   C669    1.442   .     S
C651   O689    1.288   .     A
C652   O691    1.288   .     A
C652   C670    1.442   .     S
C652   O690    1.287   .     A
C653   F695    1.355   .     S
C653   N684    1.366   .     A
C654   N683    1.367   .     A
C654   F696    1.355   .     S
C654   C817    1.416   .     S
C655   N684    1.366   .     A
C655   F697    1.355   .     S
C656   F698    1.355   .     S
C656   N683    1.367   .     A
C656   C815    1.416   .     S
C657   C674    1.397   .     A
C657   H679    1.084   .     S
C657   C767    1.370   1_455 S
C658   C673    1.397   .     A
C658   H680    1.084   .     S
C658   C714    1.370   .     S
C659   C673    1.397   .     A
C659   H681    1.084   .     S
C659   C711    1.370   .     S
C660   H682    1.084   .     S
C660   C674    1.397   .     A
C660   C766    1.370   1_455 S
C661   C665    1.380   .     A
C661   C671    1.396   .     A
C661   H675    1.084   .     S
C662   C672    1.396   .     A
C662   C666    1.381   .     A
C662   H676    1.084   .     S
C663   C672    1.396   .     A
C663   C667    1.380   .     A
C663   H677    1.084   .     S
C664   C671    1.396   .     A
C664   C668    1.381   .     A
C664   H678    1.084   .     S
C665   F699    1.358   .     S
C665   C669    1.405   .     A
C666   F700    1.358   .     S
C666   C670    1.405   .     A
C667   F701    1.358   .     S
C667   C670    1.405   .     A
C668   C669    1.405   .     A
C668   F702    1.358   .     S
C672   C185    1.439   1_556 S
N683   Zn693   2.007   .     S
N684   Zn694   2.007   .     S
O685   Zn693   2.001   .     S
O686   Zn694   2.001   .     S
O687   Zn693   2.001   .     S
O688   Zn694   2.001   .     S
O689   Zn693   2.003   .     S
O690   Zn694   2.003   .     S
O691   Zn693   2.003   .     S
O692   Zn694   2.003   .     S
C703   O739    1.282   .     A
C703   C728    1.420   .     S
C703   O742    1.282   .     A
C704   O740    1.282   .     A
C704   C727    1.420   .     S
C704   O741    1.282   .     A
C705   O746    1.287   .     A
C705   C723    1.442   .     S
C705   O743    1.288   .     A
C706   O745    1.288   .     A
C706   C724    1.442   .     S
C706   O744    1.287   .     A
C707   F749    1.355   .     S
C707   N738    1.366   .     A
C708   N737    1.367   .     A
C708   F750    1.355   .     S
C708   C871    1.416   .     S
C709   N738    1.366   .     A
C709   F751    1.355   .     S
C710   F752    1.355   .     S
C710   N737    1.367   .     A
C710   C869    1.416   .     S
C711   C728    1.397   .     A
C711   H733    1.084   .     S
C712   C727    1.397   .     A
C712   H734    1.084   .     S
C712   C768    1.370   .     S
C713   C727    1.397   .     A
C713   H735    1.084   .     S
C713   C765    1.370   .     S
C714   H736    1.084   .     S
C714   C728    1.397   .     A
C715   C719    1.380   .     A
C715   C725    1.396   .     A
C715   H729    1.084   .     S
C716   C726    1.396   .     A
C716   C720    1.381   .     A
C716   H730    1.084   .     S
C717   C726    1.396   .     A
C717   C721    1.380   .     A
C717   H731    1.084   .     S
C718   C725    1.396   .     A
C718   C722    1.381   .     A
C718   H732    1.084   .     S
C719   F753    1.358   .     S
C719   C723    1.405   .     A
C720   F754    1.358   .     S
C720   C724    1.405   .     A
C721   F755    1.358   .     S
C721   C724    1.405   .     A
C722   C723    1.405   .     A
C722   F756    1.358   .     S
C726   C239    1.439   1_556 S
N737   Zn747   2.007   .     S
N738   Zn748   2.007   .     S
O739   Zn747   2.001   .     S
O740   Zn748   2.001   .     S
O741   Zn747   2.001   .     S
O742   Zn748   2.001   .     S
O743   Zn747   2.003   .     S
O744   Zn748   2.003   .     S
O745   Zn747   2.003   .     S
O746   Zn748   2.003   .     S
C757   O793    1.282   .     A
C757   C782    1.420   .     S
C757   O796    1.282   .     A
C758   O794    1.282   .     A
C758   C781    1.420   .     S
C758   O795    1.282   .     A
C759   O800    1.287   .     A
C759   C777    1.442   .     S
C759   O797    1.288   .     A
C760   O799    1.288   .     A
C760   C778    1.442   .     S
C760   O798    1.287   .     A
C761   F803    1.355   .     S
C761   N792    1.366   .     A
C762   N791    1.367   .     A
C762   F804    1.355   .     S
C762   C925    1.416   .     S
C763   N792    1.366   .     A
C763   F805    1.355   .     S
C764   F806    1.355   .     S
C764   N791    1.367   .     A
C764   C923    1.416   .     S
C765   C782    1.397   .     A
C765   H787    1.084   .     S
C766   C781    1.397   .     A
C766   H788    1.084   .     S
C766   C660    1.370   1_655 S
C767   C781    1.397   .     A
C767   H789    1.084   .     S
C767   C657    1.370   1_655 S
C768   H790    1.084   .     S
C768   C782    1.397   .     A
C769   C773    1.380   .     A
C769   C779    1.396   .     A
C769   H783    1.084   .     S
C770   C780    1.396   .     A
C770   C774    1.381   .     A
C770   H784    1.084   .     S
C771   C780    1.396   .     A
C771   C775    1.380   .     A
C771   H785    1.084   .     S
C772   C779    1.396   .     A
C772   C776    1.381   .     A
C772   H786    1.084   .     S
C773   F807    1.358   .     S
C773   C777    1.405   .     A
C774   F808    1.358   .     S
C774   C778    1.405   .     A
C775   F809    1.358   .     S
C775   C778    1.405   .     A
C776   C777    1.405   .     A
C776   F810    1.358   .     S
C780   C293    1.439   1_556 S
N791   Zn801   2.007   .     S
N792   Zn802   2.007   .     S
O793   Zn801   2.001   .     S
O794   Zn802   2.001   .     S
O795   Zn801   2.001   .     S
O796   Zn802   2.001   .     S
O797   Zn801   2.003   .     S
O798   Zn802   2.003   .     S
O799   Zn801   2.003   .     S
O800   Zn802   2.003   .     S
C811   O847    1.282   .     A
C811   C836    1.420   .     S
C811   O850    1.282   .     A
C812   O848    1.282   .     A
C812   C835    1.420   .     S
C812   O849    1.282   .     A
C813   O854    1.287   .     A
C813   C831    1.442   .     S
C813   O851    1.288   .     A
C814   O853    1.288   .     A
C814   C832    1.442   .     S
C814   O852    1.287   .     A
C815   F857    1.355   .     S
C815   N846    1.366   .     A
C816   N845    1.367   .     A
C816   F858    1.355   .     S
C816   C493    1.416   1_565 S
C817   N846    1.366   .     A
C817   F859    1.355   .     S
C818   F860    1.355   .     S
C818   N845    1.367   .     A
C818   C491    1.416   1_565 S
C819   C836    1.397   .     A
C819   H841    1.084   .     S
C819   C929    1.370   1_455 S
C820   C835    1.397   .     A
C820   H842    1.084   .     S
C820   C876    1.370   .     S
C821   C835    1.397   .     A
C821   H843    1.084   .     S
C821   C873    1.370   .     S
C822   H844    1.084   .     S
C822   C836    1.397   .     A
C822   C928    1.370   1_455 S
C823   C827    1.380   .     A
C823   C833    1.396   .     A
C823   H837    1.084   .     S
C824   C834    1.396   .     A
C824   C828    1.381   .     A
C824   H838    1.084   .     S
C825   C834    1.396   .     A
C825   C829    1.380   .     A
C825   H839    1.084   .     S
C826   C833    1.396   .     A
C826   C830    1.381   .     A
C826   H840    1.084   .     S
C827   F861    1.358   .     S
C827   C831    1.405   .     A
C828   F862    1.358   .     S
C828   C832    1.405   .     A
C829   F863    1.358   .     S
C829   C832    1.405   .     A
C830   C831    1.405   .     A
C830   F864    1.358   .     S
C834   C347    1.439   1_556 S
N845   Zn855   2.007   .     S
N846   Zn856   2.007   .     S
O847   Zn855   2.001   .     S
O848   Zn856   2.001   .     S
O849   Zn855   2.001   .     S
O850   Zn856   2.001   .     S
O851   Zn855   2.003   .     S
O852   Zn856   2.003   .     S
O853   Zn855   2.003   .     S
O854   Zn856   2.003   .     S
C865   O901    1.282   .     A
C865   C890    1.420   .     S
C865   O904    1.282   .     A
C866   O902    1.282   .     A
C866   C889    1.420   .     S
C866   O903    1.282   .     A
C867   O908    1.287   .     A
C867   C885    1.442   .     S
C867   O905    1.288   .     A
C868   O907    1.288   .     A
C868   C886    1.442   .     S
C868   O906    1.287   .     A
C869   F911    1.355   .     S
C869   N900    1.366   .     A
C870   N899    1.367   .     A
C870   F912    1.355   .     S
C870   C547    1.416   1_565 S
C871   N900    1.366   .     A
C871   F913    1.355   .     S
C872   F914    1.355   .     S
C872   N899    1.367   .     A
C872   C545    1.416   1_565 S
C873   C890    1.397   .     A
C873   H895    1.084   .     S
C874   C889    1.397   .     A
C874   H896    1.084   .     S
C874   C930    1.370   .     S
C875   C889    1.397   .     A
C875   H897    1.084   .     S
C875   C927    1.370   .     S
C876   H898    1.084   .     S
C876   C890    1.397   .     A
C877   C881    1.380   .     A
C877   C887    1.396   .     A
C877   H891    1.084   .     S
C878   C888    1.396   .     A
C878   C882    1.381   .     A
C878   H892    1.084   .     S
C879   C888    1.396   .     A
C879   C883    1.380   .     A
C879   H893    1.084   .     S
C880   C887    1.396   .     A
C880   C884    1.381   .     A
C880   H894    1.084   .     S
C881   F915    1.358   .     S
C881   C885    1.405   .     A
C882   F916    1.358   .     S
C882   C886    1.405   .     A
C883   F917    1.358   .     S
C883   C886    1.405   .     A
C884   C885    1.405   .     A
C884   F918    1.358   .     S
C888   C401    1.439   1_556 S
N899   Zn909   2.007   .     S
N900   Zn910   2.007   .     S
O901   Zn909   2.001   .     S
O902   Zn910   2.001   .     S
O903   Zn909   2.001   .     S
O904   Zn910   2.001   .     S
O905   Zn909   2.003   .     S
O906   Zn910   2.003   .     S
O907   Zn909   2.003   .     S
O908   Zn910   2.003   .     S
C919   O955    1.282   .     A
C919   C944    1.420   .     S
C919   O958    1.282   .     A
C920   O956    1.282   .     A
C920   C943    1.420   .     S
C920   O957    1.282   .     A
C921   O962    1.287   .     A
C921   C939    1.442   .     S
C921   O959    1.288   .     A
C922   O961    1.288   .     A
C922   C940    1.442   .     S
C922   O960    1.287   .     A
C923   F965    1.355   .     S
C923   N954    1.366   .     A
C924   N953    1.367   .     A
C924   F966    1.355   .     S
C924   C601    1.416   1_565 S
C925   N954    1.366   .     A
C925   F967    1.355   .     S
C926   F968    1.355   .     S
C926   N953    1.367   .     A
C926   C599    1.416   1_565 S
C927   C944    1.397   .     A
C927   H949    1.084   .     S
C928   C943    1.397   .     A
C928   H950    1.084   .     S
C928   C822    1.370   1_655 S
C929   C943    1.397   .     A
C929   H951    1.084   .     S
C929   C819    1.370   1_655 S
C930   H952    1.084   .     S
C930   C944    1.397   .     A
C931   C935    1.380   .     A
C931   C941    1.396   .     A
C931   H945    1.084   .     S
C932   C942    1.396   .     A
C932   C936    1.381   .     A
C932   H946    1.084   .     S
C933   C942    1.396   .     A
C933   C937    1.380   .     A
C933   H947    1.084   .     S
C934   C941    1.396   .     A
C934   C938    1.381   .     A
C934   H948    1.084   .     S
C935   F969    1.358   .     S
C935   C939    1.405   .     A
C936   F970    1.358   .     S
C936   C940    1.405   .     A
C937   F971    1.358   .     S
C937   C940    1.405   .     A
C938   C939    1.405   .     A
C938   F972    1.358   .     S
C942   C455    1.439   1_556 S
N953   Zn963   2.007   .     S
N954   Zn964   2.007   .     S
O955   Zn963   2.001   .     S
O956   Zn964   2.001   .     S
O957   Zn963   2.001   .     S
O958   Zn964   2.001   .     S
O959   Zn963   2.003   .     S
O960   Zn964   2.003   .     S
O961   Zn963   2.003   .     S
O962   Zn964   2.003   .     S
