data_str_m3_o2_o5_pcu_sym.97
_audit_creation_date              2020-01-03
_audit_creation_method            'Materials Studio'
_symmetry_space_group_name_H-M    'P1'
_symmetry_Int_Tables_number       1
_symmetry_cell_setting            triclinic
loop_
_symmetry_equiv_pos_as_xyz
  x,y,z
_cell_length_a                    29.8886
_cell_length_b                    28.6840
_cell_length_c                    26.6149
_cell_angle_alpha                 90.1840
_cell_angle_beta                  92.2349
_cell_angle_gamma                 90.0891
loop_
_atom_site_label
_atom_site_type_symbol
_atom_site_fract_x
_atom_site_fract_y
_atom_site_fract_z
_atom_site_U_iso_or_equiv
_atom_site_adp_type
_atom_site_occupancy
C1     C     0.16411   0.24996   0.16609   0.00000  Uiso   1.00
C2     C     0.22894   0.44765   0.12773   0.00000  Uiso   1.00
C3     C     0.24982   0.24995   0.07300   0.00000  Uiso   1.00
C4     C     0.25013   0.25005   0.26033   0.00000  Uiso   1.00
C5     C     0.25034   0.02647   0.16645   0.00000  Uiso   1.00
C6     C     0.25043   0.47349   0.16642   0.00000  Uiso   1.00
C7     C     0.24989   0.24994   0.02184   0.00000  Uiso   1.00
C8     C     0.25001   0.25008   0.31149   0.00000  Uiso   1.00
C9     C     0.04538   0.27952   0.13648   0.00000  Uiso   1.00
C10    C     0.45324   0.21180   0.15038   0.00000  Uiso   1.00
C11    C     0.45442   0.28916   0.19116   0.00000  Uiso   1.00
C12    C     0.33606   0.25006   0.16718   0.00000  Uiso   1.00
C13    C     0.04932   0.22143   0.20383   0.00000  Uiso   1.00
C14    C     0.09172   0.28011   0.13582   0.00000  Uiso   1.00
C15    C     0.40683   0.21169   0.15056   0.00000  Uiso   1.00
C16    C     0.40745   0.28882   0.18872   0.00000  Uiso   1.00
C17    C     0.09555   0.21997   0.20012   0.00000  Uiso   1.00
C18    C     0.11637   0.24982   0.16699   0.00000  Uiso   1.00
C19    C     0.38424   0.25023   0.16877   0.00000  Uiso   1.00
C20    C     0.02452   0.25037   0.17084   0.00000  Uiso   1.00
C21    C     0.47636   0.25006   0.17178   0.00000  Uiso   1.00
C22    C     0.17856   0.12499   0.11317   0.00000  Uiso   1.00
C23    C     0.21654   0.10130   0.14132   0.00000  Uiso   1.00
C24    C     0.29600   0.37480   0.24814   0.00000  Uiso   1.00
C25    C     0.32135   0.12563   0.22073   0.00000  Uiso   1.00
C26    C     0.20338   0.37432   0.08558   0.00000  Uiso   1.00
C27    C     0.01495   0.28833   0.05763   0.00000  Uiso   1.00
C28    C     0.48073   0.31573   0.02548   0.00000  Uiso   1.00
C29    C     0.43394   0.31298   0.04643   0.00000  Uiso   1.00
C30    C     0.46278   0.16093   0.08328   0.00000  Uiso   1.00
C31    C     0.44357   0.11146   0.08308   0.00000  Uiso   1.00
C32    C     0.42848   0.09625   0.03007   0.00000  Uiso   1.00
C33    C     0.45854   0.36403   0.23087   0.00000  Uiso   1.00
C34    C     0.27204   0.39862   0.20475   0.00000  Uiso   1.00
C35    C     0.44312   0.39826   0.18948   0.00000  Uiso   1.00
C36    C     0.41850   0.43974   0.21133   0.00000  Uiso   1.00
C37    C     0.04095   0.20617   0.28802   0.00000  Uiso   1.00
C38    C     0.06472   0.16506   0.31405   0.00000  Uiso   1.00
C39    C     0.08759   0.17965   0.03064   0.00000  Uiso   1.00
C40    C     0.28357   0.10165   0.19207   0.00000  Uiso   1.00
C41    C     0.22814   0.39837   0.12850   0.00000  Uiso   1.00
C42    C     0.21609   0.05199   0.14188   0.00000  Uiso   1.00
C43    C     0.27179   0.44793   0.20520   0.00000  Uiso   1.00
C44    C     0.28439   0.05236   0.19119   0.00000  Uiso   1.00
H45    H     0.10829   0.30329   0.11036   0.00000  Uiso   1.00
H46    H     0.16177   0.10078   0.08574   0.00000  Uiso   1.00
H47    H     0.15299   0.13608   0.13980   0.00000  Uiso   1.00
H48    H     0.31638   0.34541   0.23518   0.00000  Uiso   1.00
H49    H     0.31947   0.39890   0.26863   0.00000  Uiso   1.00
H50    H     0.27140   0.36321   0.27561   0.00000  Uiso   1.00
H51    H     0.30951   0.15578   0.24221   0.00000  Uiso   1.00
H52    H     0.33763   0.10190   0.24883   0.00000  Uiso   1.00
H53    H     0.34738   0.13605   0.19450   0.00000  Uiso   1.00
H54    H     0.18356   0.34467   0.09884   0.00000  Uiso   1.00
H55    H     0.17913   0.39820   0.06623   0.00000  Uiso   1.00
H56    H     0.38836   0.18203   0.13547   0.00000  Uiso   1.00
H57    H     0.22738   0.36304   0.05724   0.00000  Uiso   1.00
H58    H     0.00291   0.25165   0.06008   0.00000  Uiso   1.00
H59    H     0.04736   0.28869   0.03839   0.00000  Uiso   1.00
H60    H     0.49133   0.35282   0.02343   0.00000  Uiso   1.00
H61    H     0.47951   0.30109   0.32008   0.00000  Uiso   1.00
H62    H     0.42273   0.27611   0.04851   0.00000  Uiso   1.00
H63    H     0.40994   0.33232   0.02139   0.00000  Uiso   1.00
H64    H     0.43378   0.32881   0.08453   0.00000  Uiso   1.00
H65    H     0.49262   0.16096   0.05988   0.00000  Uiso   1.00
H66    H     0.43848   0.18551   0.06461   0.00000  Uiso   1.00
H67    H     0.38823   0.31777   0.20211   0.00000  Uiso   1.00
H68    H     0.46958   0.08692   0.09796   0.00000  Uiso   1.00
H69    H     0.41456   0.10970   0.10782   0.00000  Uiso   1.00
H70    H     0.40169   0.11969   0.01489   0.00000  Uiso   1.00
H71    H     0.41509   0.06015   0.03106   0.00000  Uiso   1.00
H72    H     0.45717   0.09698   0.00476   0.00000  Uiso   1.00
H73    H     0.48298   0.38271   0.25622   0.00000  Uiso   1.00
H74    H     0.43131   0.35340   0.25573   0.00000  Uiso   1.00
H75    H     0.47284   0.41111   0.16980   0.00000  Uiso   1.00
H76    H     0.42060   0.38072   0.16118   0.00000  Uiso   1.00
H77    H     0.38817   0.42772   0.23032   0.00000  Uiso   1.00
H78    H     0.11536   0.19686   0.22410   0.00000  Uiso   1.00
H79    H     0.40802   0.46396   0.18063   0.00000  Uiso   1.00
H80    H     0.44071   0.45884   0.23881   0.00000  Uiso   1.00
H81    H     0.01018   0.21409   0.30849   0.00000  Uiso   1.00
H82    H     0.06234   0.23815   0.29122   0.00000  Uiso   1.00
H83    H     0.03993   0.13708   0.32081   0.00000  Uiso   1.00
H84    H     0.09044   0.15046   0.28948   0.00000  Uiso   1.00
H85    H     0.11536   0.20442   0.02406   0.00000  Uiso   1.00
H86    H     0.10148   0.14836   0.04987   0.00000  Uiso   1.00
H87    H     0.06350   0.19636   0.05566   0.00000  Uiso   1.00
H88    H     0.18821   0.03376   0.12359   0.00000  Uiso   1.00
H89    H     0.28770   0.46613   0.23678   0.00000  Uiso   1.00
H90    H     0.31236   0.03443   0.20945   0.00000  Uiso   1.00
H91    H     0.21316   0.46561   0.09607   0.00000  Uiso   1.00
H92    H     0.19039   0.15470   0.09108   0.00000  Uiso   1.00
N93    N     0.25000   0.12623   0.16667   0.00000  Uiso   1.00
N94    N     0.25000   0.37376   0.16667   0.00000  Uiso   1.00
O95    O     0.18453   0.28974   0.16667   0.00000  Uiso   1.00
O96    O     0.47701   0.17380   0.13288   0.00000  Uiso   1.00
O97    O     0.48135   0.32566   0.21042   0.00000  Uiso   1.00
O98    O     0.02774   0.19367   0.23799   0.00000  Uiso   1.00
O99    O     0.31547   0.21026   0.16666   0.00000  Uiso   1.00
O100   O     0.31547   0.28974   0.16666   0.00000  Uiso   1.00
O101   O     0.18453   0.21026   0.16667   0.00000  Uiso   1.00
O102   O     0.25000   0.28973   0.09511   0.00000  Uiso   1.00
O103   O     0.25000   0.21027   0.23822   0.00000  Uiso   1.00
O104   O     0.25000   0.28973   0.23822   0.00000  Uiso   1.00
O105   O     0.25000   0.21027   0.09511   0.00000  Uiso   1.00
O106   O     0.02036   0.30914   0.10564   0.00000  Uiso   1.00
Zn107  Zn    0.25000   0.30307   0.16667   0.00000  Uiso   1.00
Zn108  Zn    0.25000   0.19693   0.16667   0.00000  Uiso   1.00
C109   C     0.66411   0.24996   0.16609   0.00000  Uiso   1.00
C110   C     0.72894   0.44765   0.12773   0.00000  Uiso   1.00
C111   C     0.74982   0.24995   0.07300   0.00000  Uiso   1.00
C112   C     0.75013   0.25005   0.26033   0.00000  Uiso   1.00
C113   C     0.75034   0.02647   0.16645   0.00000  Uiso   1.00
C114   C     0.75043   0.47349   0.16642   0.00000  Uiso   1.00
C115   C     0.74989   0.24994   0.02184   0.00000  Uiso   1.00
C116   C     0.75001   0.25008   0.31149   0.00000  Uiso   1.00
C117   C     0.54538   0.27952   0.13648   0.00000  Uiso   1.00
C118   C     0.95324   0.21180   0.15038   0.00000  Uiso   1.00
C119   C     0.95442   0.28916   0.19116   0.00000  Uiso   1.00
C120   C     0.83606   0.25006   0.16718   0.00000  Uiso   1.00
C121   C     0.54932   0.22143   0.20383   0.00000  Uiso   1.00
C122   C     0.59172   0.28011   0.13582   0.00000  Uiso   1.00
C123   C     0.90683   0.21169   0.15056   0.00000  Uiso   1.00
C124   C     0.90745   0.28882   0.18872   0.00000  Uiso   1.00
C125   C     0.59555   0.21997   0.20012   0.00000  Uiso   1.00
C126   C     0.61637   0.24982   0.16699   0.00000  Uiso   1.00
C127   C     0.88424   0.25023   0.16877   0.00000  Uiso   1.00
C128   C     0.52452   0.25037   0.17084   0.00000  Uiso   1.00
C129   C     0.97636   0.25006   0.17178   0.00000  Uiso   1.00
C130   C     0.67856   0.12499   0.11317   0.00000  Uiso   1.00
C131   C     0.71654   0.10130   0.14132   0.00000  Uiso   1.00
C132   C     0.79600   0.37480   0.24814   0.00000  Uiso   1.00
C133   C     0.82135   0.12563   0.22073   0.00000  Uiso   1.00
C134   C     0.70338   0.37432   0.08558   0.00000  Uiso   1.00
C135   C     0.51495   0.28833   0.05763   0.00000  Uiso   1.00
C136   C     0.98073   0.31573   0.02548   0.00000  Uiso   1.00
C137   C     0.93394   0.31298   0.04643   0.00000  Uiso   1.00
C138   C     0.96278   0.16093   0.08328   0.00000  Uiso   1.00
C139   C     0.94357   0.11146   0.08308   0.00000  Uiso   1.00
C140   C     0.92848   0.09625   0.03007   0.00000  Uiso   1.00
C141   C     0.95854   0.36403   0.23087   0.00000  Uiso   1.00
C142   C     0.77204   0.39862   0.20475   0.00000  Uiso   1.00
C143   C     0.94312   0.39826   0.18948   0.00000  Uiso   1.00
C144   C     0.91850   0.43974   0.21133   0.00000  Uiso   1.00
C145   C     0.54095   0.20617   0.28802   0.00000  Uiso   1.00
C146   C     0.56472   0.16506   0.31405   0.00000  Uiso   1.00
C147   C     0.58759   0.17965   0.03064   0.00000  Uiso   1.00
C148   C     0.78357   0.10165   0.19207   0.00000  Uiso   1.00
C149   C     0.72814   0.39837   0.12850   0.00000  Uiso   1.00
C150   C     0.71609   0.05199   0.14188   0.00000  Uiso   1.00
C151   C     0.77179   0.44793   0.20520   0.00000  Uiso   1.00
C152   C     0.78439   0.05236   0.19119   0.00000  Uiso   1.00
H153   H     0.60829   0.30329   0.11036   0.00000  Uiso   1.00
H154   H     0.66177   0.10078   0.08574   0.00000  Uiso   1.00
H155   H     0.65299   0.13608   0.13980   0.00000  Uiso   1.00
H156   H     0.81638   0.34541   0.23518   0.00000  Uiso   1.00
H157   H     0.81947   0.39890   0.26863   0.00000  Uiso   1.00
H158   H     0.77140   0.36321   0.27561   0.00000  Uiso   1.00
H159   H     0.80951   0.15578   0.24221   0.00000  Uiso   1.00
H160   H     0.83763   0.10190   0.24883   0.00000  Uiso   1.00
H161   H     0.84738   0.13605   0.19450   0.00000  Uiso   1.00
H162   H     0.68356   0.34467   0.09884   0.00000  Uiso   1.00
H163   H     0.67913   0.39820   0.06623   0.00000  Uiso   1.00
H164   H     0.88836   0.18203   0.13547   0.00000  Uiso   1.00
H165   H     0.72738   0.36304   0.05724   0.00000  Uiso   1.00
H166   H     0.50291   0.25165   0.06008   0.00000  Uiso   1.00
H167   H     0.54736   0.28869   0.03839   0.00000  Uiso   1.00
H168   H     0.99133   0.35282   0.02343   0.00000  Uiso   1.00
H169   H     0.97951   0.30109   0.32008   0.00000  Uiso   1.00
H170   H     0.92273   0.27611   0.04851   0.00000  Uiso   1.00
H171   H     0.90994   0.33232   0.02139   0.00000  Uiso   1.00
H172   H     0.93378   0.32881   0.08453   0.00000  Uiso   1.00
H173   H     0.99262   0.16096   0.05988   0.00000  Uiso   1.00
H174   H     0.93848   0.18551   0.06461   0.00000  Uiso   1.00
H175   H     0.88823   0.31777   0.20211   0.00000  Uiso   1.00
H176   H     0.96958   0.08692   0.09796   0.00000  Uiso   1.00
H177   H     0.91456   0.10970   0.10782   0.00000  Uiso   1.00
H178   H     0.90169   0.11969   0.01489   0.00000  Uiso   1.00
H179   H     0.91509   0.06015   0.03106   0.00000  Uiso   1.00
H180   H     0.95717   0.09698   0.00476   0.00000  Uiso   1.00
H181   H     0.98298   0.38271   0.25622   0.00000  Uiso   1.00
H182   H     0.93131   0.35340   0.25573   0.00000  Uiso   1.00
H183   H     0.97284   0.41111   0.16980   0.00000  Uiso   1.00
H184   H     0.92060   0.38072   0.16118   0.00000  Uiso   1.00
H185   H     0.88817   0.42772   0.23032   0.00000  Uiso   1.00
H186   H     0.61536   0.19686   0.22410   0.00000  Uiso   1.00
H187   H     0.90802   0.46396   0.18063   0.00000  Uiso   1.00
H188   H     0.94071   0.45884   0.23881   0.00000  Uiso   1.00
H189   H     0.51018   0.21409   0.30849   0.00000  Uiso   1.00
H190   H     0.56234   0.23815   0.29122   0.00000  Uiso   1.00
H191   H     0.53993   0.13708   0.32081   0.00000  Uiso   1.00
H192   H     0.59044   0.15046   0.28948   0.00000  Uiso   1.00
H193   H     0.61536   0.20442   0.02406   0.00000  Uiso   1.00
H194   H     0.60148   0.14836   0.04987   0.00000  Uiso   1.00
H195   H     0.56350   0.19636   0.05566   0.00000  Uiso   1.00
H196   H     0.68821   0.03376   0.12359   0.00000  Uiso   1.00
H197   H     0.78770   0.46613   0.23678   0.00000  Uiso   1.00
H198   H     0.81236   0.03443   0.20945   0.00000  Uiso   1.00
H199   H     0.71316   0.46561   0.09607   0.00000  Uiso   1.00
H200   H     0.69039   0.15470   0.09108   0.00000  Uiso   1.00
N201   N     0.75000   0.12623   0.16667   0.00000  Uiso   1.00
N202   N     0.75000   0.37376   0.16667   0.00000  Uiso   1.00
O203   O     0.68453   0.28974   0.16667   0.00000  Uiso   1.00
O204   O     0.97701   0.17380   0.13288   0.00000  Uiso   1.00
O205   O     0.98135   0.32566   0.21042   0.00000  Uiso   1.00
O206   O     0.52774   0.19367   0.23799   0.00000  Uiso   1.00
O207   O     0.81547   0.21026   0.16666   0.00000  Uiso   1.00
O208   O     0.81547   0.28974   0.16666   0.00000  Uiso   1.00
O209   O     0.68453   0.21026   0.16667   0.00000  Uiso   1.00
O210   O     0.75000   0.28973   0.09511   0.00000  Uiso   1.00
O211   O     0.75000   0.21027   0.23822   0.00000  Uiso   1.00
O212   O     0.75000   0.28973   0.23822   0.00000  Uiso   1.00
O213   O     0.75000   0.21027   0.09511   0.00000  Uiso   1.00
O214   O     0.52036   0.30914   0.10564   0.00000  Uiso   1.00
Zn215  Zn    0.75000   0.30307   0.16667   0.00000  Uiso   1.00
Zn216  Zn    0.75000   0.19693   0.16667   0.00000  Uiso   1.00
C217   C     0.16411   0.74996   0.16609   0.00000  Uiso   1.00
C218   C     0.22894   0.94765   0.12773   0.00000  Uiso   1.00
C219   C     0.24982   0.74995   0.07300   0.00000  Uiso   1.00
C220   C     0.25013   0.75005   0.26033   0.00000  Uiso   1.00
C221   C     0.25034   0.52647   0.16645   0.00000  Uiso   1.00
C222   C     0.25043   0.97349   0.16642   0.00000  Uiso   1.00
C223   C     0.24989   0.74994   0.02184   0.00000  Uiso   1.00
C224   C     0.25001   0.75008   0.31149   0.00000  Uiso   1.00
C225   C     0.04538   0.77952   0.13648   0.00000  Uiso   1.00
C226   C     0.45324   0.71180   0.15038   0.00000  Uiso   1.00
C227   C     0.45442   0.78916   0.19116   0.00000  Uiso   1.00
C228   C     0.33606   0.75006   0.16718   0.00000  Uiso   1.00
C229   C     0.04932   0.72143   0.20383   0.00000  Uiso   1.00
C230   C     0.09172   0.78011   0.13582   0.00000  Uiso   1.00
C231   C     0.40683   0.71169   0.15056   0.00000  Uiso   1.00
C232   C     0.40745   0.78882   0.18872   0.00000  Uiso   1.00
C233   C     0.09555   0.71997   0.20012   0.00000  Uiso   1.00
C234   C     0.11637   0.74982   0.16699   0.00000  Uiso   1.00
C235   C     0.38424   0.75023   0.16877   0.00000  Uiso   1.00
C236   C     0.02452   0.75037   0.17084   0.00000  Uiso   1.00
C237   C     0.47636   0.75006   0.17178   0.00000  Uiso   1.00
C238   C     0.17856   0.62499   0.11317   0.00000  Uiso   1.00
C239   C     0.21654   0.60130   0.14132   0.00000  Uiso   1.00
C240   C     0.29600   0.87480   0.24814   0.00000  Uiso   1.00
C241   C     0.32135   0.62563   0.22073   0.00000  Uiso   1.00
C242   C     0.20338   0.87432   0.08558   0.00000  Uiso   1.00
C243   C     0.01495   0.78833   0.05763   0.00000  Uiso   1.00
C244   C     0.48073   0.81573   0.02548   0.00000  Uiso   1.00
C245   C     0.43394   0.81298   0.04643   0.00000  Uiso   1.00
C246   C     0.46278   0.66093   0.08328   0.00000  Uiso   1.00
C247   C     0.44357   0.61146   0.08308   0.00000  Uiso   1.00
C248   C     0.42848   0.59625   0.03007   0.00000  Uiso   1.00
C249   C     0.45854   0.86403   0.23087   0.00000  Uiso   1.00
C250   C     0.27204   0.89862   0.20475   0.00000  Uiso   1.00
C251   C     0.44312   0.89826   0.18948   0.00000  Uiso   1.00
C252   C     0.41850   0.93974   0.21133   0.00000  Uiso   1.00
C253   C     0.04095   0.70617   0.28802   0.00000  Uiso   1.00
C254   C     0.06472   0.66506   0.31405   0.00000  Uiso   1.00
C255   C     0.08759   0.67965   0.03064   0.00000  Uiso   1.00
C256   C     0.28357   0.60165   0.19207   0.00000  Uiso   1.00
C257   C     0.22814   0.89837   0.12850   0.00000  Uiso   1.00
C258   C     0.21609   0.55199   0.14188   0.00000  Uiso   1.00
C259   C     0.27179   0.94793   0.20520   0.00000  Uiso   1.00
C260   C     0.28439   0.55236   0.19119   0.00000  Uiso   1.00
H261   H     0.10829   0.80329   0.11036   0.00000  Uiso   1.00
H262   H     0.16177   0.60078   0.08574   0.00000  Uiso   1.00
H263   H     0.15299   0.63608   0.13980   0.00000  Uiso   1.00
H264   H     0.31638   0.84541   0.23518   0.00000  Uiso   1.00
H265   H     0.31947   0.89890   0.26863   0.00000  Uiso   1.00
H266   H     0.27140   0.86321   0.27561   0.00000  Uiso   1.00
H267   H     0.30951   0.65578   0.24221   0.00000  Uiso   1.00
H268   H     0.33763   0.60190   0.24883   0.00000  Uiso   1.00
H269   H     0.34738   0.63605   0.19450   0.00000  Uiso   1.00
H270   H     0.18356   0.84467   0.09884   0.00000  Uiso   1.00
H271   H     0.17913   0.89820   0.06623   0.00000  Uiso   1.00
H272   H     0.38836   0.68203   0.13547   0.00000  Uiso   1.00
H273   H     0.22738   0.86304   0.05724   0.00000  Uiso   1.00
H274   H     0.00291   0.75165   0.06008   0.00000  Uiso   1.00
H275   H     0.04736   0.78869   0.03839   0.00000  Uiso   1.00
H276   H     0.49133   0.85282   0.02343   0.00000  Uiso   1.00
H277   H     0.47951   0.80109   0.32008   0.00000  Uiso   1.00
H278   H     0.42273   0.77611   0.04851   0.00000  Uiso   1.00
H279   H     0.40994   0.83232   0.02139   0.00000  Uiso   1.00
H280   H     0.43378   0.82881   0.08453   0.00000  Uiso   1.00
H281   H     0.49262   0.66096   0.05988   0.00000  Uiso   1.00
H282   H     0.43848   0.68551   0.06461   0.00000  Uiso   1.00
H283   H     0.38823   0.81777   0.20211   0.00000  Uiso   1.00
H284   H     0.46958   0.58692   0.09796   0.00000  Uiso   1.00
H285   H     0.41456   0.60970   0.10782   0.00000  Uiso   1.00
H286   H     0.40169   0.61969   0.01489   0.00000  Uiso   1.00
H287   H     0.41509   0.56015   0.03106   0.00000  Uiso   1.00
H288   H     0.45717   0.59698   0.00476   0.00000  Uiso   1.00
H289   H     0.48298   0.88271   0.25622   0.00000  Uiso   1.00
H290   H     0.43131   0.85340   0.25573   0.00000  Uiso   1.00
H291   H     0.47284   0.91111   0.16980   0.00000  Uiso   1.00
H292   H     0.42060   0.88072   0.16118   0.00000  Uiso   1.00
H293   H     0.38817   0.92772   0.23032   0.00000  Uiso   1.00
H294   H     0.11536   0.69686   0.22410   0.00000  Uiso   1.00
H295   H     0.40802   0.96396   0.18063   0.00000  Uiso   1.00
H296   H     0.44071   0.95884   0.23881   0.00000  Uiso   1.00
H297   H     0.01018   0.71409   0.30849   0.00000  Uiso   1.00
H298   H     0.06234   0.73815   0.29122   0.00000  Uiso   1.00
H299   H     0.03993   0.63708   0.32081   0.00000  Uiso   1.00
H300   H     0.09044   0.65046   0.28948   0.00000  Uiso   1.00
H301   H     0.11536   0.70442   0.02406   0.00000  Uiso   1.00
H302   H     0.10148   0.64836   0.04987   0.00000  Uiso   1.00
H303   H     0.06350   0.69636   0.05566   0.00000  Uiso   1.00
H304   H     0.18821   0.53376   0.12359   0.00000  Uiso   1.00
H305   H     0.28770   0.96613   0.23678   0.00000  Uiso   1.00
H306   H     0.31236   0.53443   0.20945   0.00000  Uiso   1.00
H307   H     0.21316   0.96561   0.09607   0.00000  Uiso   1.00
H308   H     0.19039   0.65470   0.09108   0.00000  Uiso   1.00
N309   N     0.25000   0.62623   0.16667   0.00000  Uiso   1.00
N310   N     0.25000   0.87376   0.16667   0.00000  Uiso   1.00
O311   O     0.18453   0.78974   0.16667   0.00000  Uiso   1.00
O312   O     0.47701   0.67380   0.13288   0.00000  Uiso   1.00
O313   O     0.48135   0.82566   0.21042   0.00000  Uiso   1.00
O314   O     0.02774   0.69367   0.23799   0.00000  Uiso   1.00
O315   O     0.31547   0.71026   0.16666   0.00000  Uiso   1.00
O316   O     0.31547   0.78974   0.16666   0.00000  Uiso   1.00
O317   O     0.18453   0.71026   0.16667   0.00000  Uiso   1.00
O318   O     0.25000   0.78973   0.09511   0.00000  Uiso   1.00
O319   O     0.25000   0.71027   0.23822   0.00000  Uiso   1.00
O320   O     0.25000   0.78973   0.23822   0.00000  Uiso   1.00
O321   O     0.25000   0.71027   0.09511   0.00000  Uiso   1.00
O322   O     0.02036   0.80914   0.10564   0.00000  Uiso   1.00
Zn323  Zn    0.25000   0.80307   0.16667   0.00000  Uiso   1.00
Zn324  Zn    0.25000   0.69693   0.16667   0.00000  Uiso   1.00
C325   C     0.66411   0.74996   0.16609   0.00000  Uiso   1.00
C326   C     0.72894   0.94765   0.12773   0.00000  Uiso   1.00
C327   C     0.74982   0.74995   0.07300   0.00000  Uiso   1.00
C328   C     0.75013   0.75005   0.26033   0.00000  Uiso   1.00
C329   C     0.75034   0.52647   0.16645   0.00000  Uiso   1.00
C330   C     0.75043   0.97349   0.16642   0.00000  Uiso   1.00
C331   C     0.74989   0.74994   0.02184   0.00000  Uiso   1.00
C332   C     0.75001   0.75008   0.31149   0.00000  Uiso   1.00
C333   C     0.54538   0.77952   0.13648   0.00000  Uiso   1.00
C334   C     0.95324   0.71180   0.15038   0.00000  Uiso   1.00
C335   C     0.95442   0.78916   0.19116   0.00000  Uiso   1.00
C336   C     0.83606   0.75006   0.16718   0.00000  Uiso   1.00
C337   C     0.54932   0.72143   0.20383   0.00000  Uiso   1.00
C338   C     0.59172   0.78011   0.13582   0.00000  Uiso   1.00
C339   C     0.90683   0.71169   0.15056   0.00000  Uiso   1.00
C340   C     0.90745   0.78882   0.18872   0.00000  Uiso   1.00
C341   C     0.59555   0.71997   0.20012   0.00000  Uiso   1.00
C342   C     0.61637   0.74982   0.16699   0.00000  Uiso   1.00
C343   C     0.88424   0.75023   0.16877   0.00000  Uiso   1.00
C344   C     0.52452   0.75037   0.17084   0.00000  Uiso   1.00
C345   C     0.97636   0.75006   0.17178   0.00000  Uiso   1.00
C346   C     0.67856   0.62499   0.11317   0.00000  Uiso   1.00
C347   C     0.71654   0.60130   0.14132   0.00000  Uiso   1.00
C348   C     0.79600   0.87480   0.24814   0.00000  Uiso   1.00
C349   C     0.82135   0.62563   0.22073   0.00000  Uiso   1.00
C350   C     0.70338   0.87432   0.08558   0.00000  Uiso   1.00
C351   C     0.51495   0.78833   0.05763   0.00000  Uiso   1.00
C352   C     0.98073   0.81573   0.02548   0.00000  Uiso   1.00
C353   C     0.93394   0.81298   0.04643   0.00000  Uiso   1.00
C354   C     0.96278   0.66093   0.08328   0.00000  Uiso   1.00
C355   C     0.94357   0.61146   0.08308   0.00000  Uiso   1.00
C356   C     0.92848   0.59625   0.03007   0.00000  Uiso   1.00
C357   C     0.95854   0.86403   0.23087   0.00000  Uiso   1.00
C358   C     0.77204   0.89862   0.20475   0.00000  Uiso   1.00
C359   C     0.94312   0.89826   0.18948   0.00000  Uiso   1.00
C360   C     0.91850   0.93974   0.21133   0.00000  Uiso   1.00
C361   C     0.54095   0.70617   0.28802   0.00000  Uiso   1.00
C362   C     0.56472   0.66506   0.31405   0.00000  Uiso   1.00
C363   C     0.58759   0.67965   0.03064   0.00000  Uiso   1.00
C364   C     0.78357   0.60165   0.19207   0.00000  Uiso   1.00
C365   C     0.72814   0.89837   0.12850   0.00000  Uiso   1.00
C366   C     0.71609   0.55199   0.14188   0.00000  Uiso   1.00
C367   C     0.77179   0.94793   0.20520   0.00000  Uiso   1.00
C368   C     0.78439   0.55236   0.19119   0.00000  Uiso   1.00
H369   H     0.60829   0.80329   0.11036   0.00000  Uiso   1.00
H370   H     0.66177   0.60078   0.08574   0.00000  Uiso   1.00
H371   H     0.65299   0.63608   0.13980   0.00000  Uiso   1.00
H372   H     0.81638   0.84541   0.23518   0.00000  Uiso   1.00
H373   H     0.81947   0.89890   0.26863   0.00000  Uiso   1.00
H374   H     0.77140   0.86321   0.27561   0.00000  Uiso   1.00
H375   H     0.80951   0.65578   0.24221   0.00000  Uiso   1.00
H376   H     0.83763   0.60190   0.24883   0.00000  Uiso   1.00
H377   H     0.84738   0.63605   0.19450   0.00000  Uiso   1.00
H378   H     0.68356   0.84467   0.09884   0.00000  Uiso   1.00
H379   H     0.67913   0.89820   0.06623   0.00000  Uiso   1.00
H380   H     0.88836   0.68203   0.13547   0.00000  Uiso   1.00
H381   H     0.72738   0.86304   0.05724   0.00000  Uiso   1.00
H382   H     0.50291   0.75165   0.06008   0.00000  Uiso   1.00
H383   H     0.54736   0.78869   0.03839   0.00000  Uiso   1.00
H384   H     0.99133   0.85282   0.02343   0.00000  Uiso   1.00
H385   H     0.97951   0.80109   0.32008   0.00000  Uiso   1.00
H386   H     0.92273   0.77611   0.04851   0.00000  Uiso   1.00
H387   H     0.90994   0.83232   0.02139   0.00000  Uiso   1.00
H388   H     0.93378   0.82881   0.08453   0.00000  Uiso   1.00
H389   H     0.99262   0.66096   0.05988   0.00000  Uiso   1.00
H390   H     0.93848   0.68551   0.06461   0.00000  Uiso   1.00
H391   H     0.88823   0.81777   0.20211   0.00000  Uiso   1.00
H392   H     0.96958   0.58692   0.09796   0.00000  Uiso   1.00
H393   H     0.91456   0.60970   0.10782   0.00000  Uiso   1.00
H394   H     0.90169   0.61969   0.01489   0.00000  Uiso   1.00
H395   H     0.91509   0.56015   0.03106   0.00000  Uiso   1.00
H396   H     0.95717   0.59698   0.00476   0.00000  Uiso   1.00
H397   H     0.98298   0.88271   0.25622   0.00000  Uiso   1.00
H398   H     0.93131   0.85340   0.25573   0.00000  Uiso   1.00
H399   H     0.97284   0.91111   0.16980   0.00000  Uiso   1.00
H400   H     0.92060   0.88072   0.16118   0.00000  Uiso   1.00
H401   H     0.88817   0.92772   0.23032   0.00000  Uiso   1.00
H402   H     0.61536   0.69686   0.22410   0.00000  Uiso   1.00
H403   H     0.90802   0.96396   0.18063   0.00000  Uiso   1.00
H404   H     0.94071   0.95884   0.23881   0.00000  Uiso   1.00
H405   H     0.51018   0.71409   0.30849   0.00000  Uiso   1.00
H406   H     0.56234   0.73815   0.29122   0.00000  Uiso   1.00
H407   H     0.53993   0.63708   0.32081   0.00000  Uiso   1.00
H408   H     0.59044   0.65046   0.28948   0.00000  Uiso   1.00
H409   H     0.61536   0.70442   0.02406   0.00000  Uiso   1.00
H410   H     0.60148   0.64836   0.04987   0.00000  Uiso   1.00
H411   H     0.56350   0.69636   0.05566   0.00000  Uiso   1.00
H412   H     0.68821   0.53376   0.12359   0.00000  Uiso   1.00
H413   H     0.78770   0.96613   0.23678   0.00000  Uiso   1.00
H414   H     0.81236   0.53443   0.20945   0.00000  Uiso   1.00
H415   H     0.71316   0.96561   0.09607   0.00000  Uiso   1.00
H416   H     0.69039   0.65470   0.09108   0.00000  Uiso   1.00
N417   N     0.75000   0.62623   0.16667   0.00000  Uiso   1.00
N418   N     0.75000   0.87376   0.16667   0.00000  Uiso   1.00
O419   O     0.68453   0.78974   0.16667   0.00000  Uiso   1.00
O420   O     0.97701   0.67380   0.13288   0.00000  Uiso   1.00
O421   O     0.98135   0.82566   0.21042   0.00000  Uiso   1.00
O422   O     0.52774   0.69367   0.23799   0.00000  Uiso   1.00
O423   O     0.81547   0.71026   0.16666   0.00000  Uiso   1.00
O424   O     0.81547   0.78974   0.16666   0.00000  Uiso   1.00
O425   O     0.68453   0.71026   0.16667   0.00000  Uiso   1.00
O426   O     0.75000   0.78973   0.09511   0.00000  Uiso   1.00
O427   O     0.75000   0.71027   0.23822   0.00000  Uiso   1.00
O428   O     0.75000   0.78973   0.23822   0.00000  Uiso   1.00
O429   O     0.75000   0.71027   0.09511   0.00000  Uiso   1.00
O430   O     0.52036   0.80914   0.10564   0.00000  Uiso   1.00
Zn431  Zn    0.75000   0.80307   0.16667   0.00000  Uiso   1.00
Zn432  Zn    0.75000   0.69693   0.16667   0.00000  Uiso   1.00
C433   C     0.16411   0.24996   0.49943   0.00000  Uiso   1.00
C434   C     0.22894   0.44765   0.46107   0.00000  Uiso   1.00
C435   C     0.24982   0.24995   0.40633   0.00000  Uiso   1.00
C436   C     0.25013   0.25005   0.59367   0.00000  Uiso   1.00
C437   C     0.25034   0.02647   0.49978   0.00000  Uiso   1.00
C438   C     0.25043   0.47349   0.49976   0.00000  Uiso   1.00
C439   C     0.24989   0.24994   0.35517   0.00000  Uiso   1.00
C440   C     0.25001   0.25008   0.64482   0.00000  Uiso   1.00
C441   C     0.04538   0.27952   0.46982   0.00000  Uiso   1.00
C442   C     0.45324   0.21180   0.48371   0.00000  Uiso   1.00
C443   C     0.45442   0.28916   0.52449   0.00000  Uiso   1.00
C444   C     0.33606   0.25006   0.50051   0.00000  Uiso   1.00
C445   C     0.04932   0.22143   0.53716   0.00000  Uiso   1.00
C446   C     0.09172   0.28011   0.46915   0.00000  Uiso   1.00
C447   C     0.40683   0.21169   0.48390   0.00000  Uiso   1.00
C448   C     0.40745   0.28882   0.52205   0.00000  Uiso   1.00
C449   C     0.09555   0.21997   0.53345   0.00000  Uiso   1.00
C450   C     0.11637   0.24982   0.50033   0.00000  Uiso   1.00
C451   C     0.38424   0.25023   0.50210   0.00000  Uiso   1.00
C452   C     0.02452   0.25037   0.50418   0.00000  Uiso   1.00
C453   C     0.47636   0.25006   0.50512   0.00000  Uiso   1.00
C454   C     0.17856   0.12499   0.44651   0.00000  Uiso   1.00
C455   C     0.21654   0.10130   0.47466   0.00000  Uiso   1.00
C456   C     0.29600   0.37480   0.58147   0.00000  Uiso   1.00
C457   C     0.32135   0.12563   0.55407   0.00000  Uiso   1.00
C458   C     0.20338   0.37432   0.41892   0.00000  Uiso   1.00
C459   C     0.01495   0.28833   0.39097   0.00000  Uiso   1.00
C460   C     0.48073   0.31573   0.35882   0.00000  Uiso   1.00
C461   C     0.43394   0.31298   0.37977   0.00000  Uiso   1.00
C462   C     0.46278   0.16093   0.41661   0.00000  Uiso   1.00
C463   C     0.44357   0.11146   0.41641   0.00000  Uiso   1.00
C464   C     0.42848   0.09625   0.36341   0.00000  Uiso   1.00
C465   C     0.45854   0.36403   0.56420   0.00000  Uiso   1.00
C466   C     0.27204   0.39862   0.53808   0.00000  Uiso   1.00
C467   C     0.44312   0.39826   0.52281   0.00000  Uiso   1.00
C468   C     0.41850   0.43974   0.54467   0.00000  Uiso   1.00
C469   C     0.04095   0.20617   0.62136   0.00000  Uiso   1.00
C470   C     0.06472   0.16506   0.64739   0.00000  Uiso   1.00
C471   C     0.08759   0.17965   0.36397   0.00000  Uiso   1.00
C472   C     0.28357   0.10165   0.52540   0.00000  Uiso   1.00
C473   C     0.22814   0.39837   0.46184   0.00000  Uiso   1.00
C474   C     0.21609   0.05199   0.47521   0.00000  Uiso   1.00
C475   C     0.27179   0.44793   0.53853   0.00000  Uiso   1.00
C476   C     0.28439   0.05236   0.52452   0.00000  Uiso   1.00
H477   H     0.10829   0.30329   0.44370   0.00000  Uiso   1.00
H478   H     0.16177   0.10078   0.41908   0.00000  Uiso   1.00
H479   H     0.15299   0.13608   0.47313   0.00000  Uiso   1.00
H480   H     0.31638   0.34541   0.56851   0.00000  Uiso   1.00
H481   H     0.31947   0.39890   0.60196   0.00000  Uiso   1.00
H482   H     0.27140   0.36321   0.60894   0.00000  Uiso   1.00
H483   H     0.30951   0.15578   0.57554   0.00000  Uiso   1.00
H484   H     0.33763   0.10190   0.58216   0.00000  Uiso   1.00
H485   H     0.34738   0.13605   0.52783   0.00000  Uiso   1.00
H486   H     0.18356   0.34467   0.43218   0.00000  Uiso   1.00
H487   H     0.17913   0.39820   0.39956   0.00000  Uiso   1.00
H488   H     0.38836   0.18203   0.46880   0.00000  Uiso   1.00
H489   H     0.22738   0.36304   0.39057   0.00000  Uiso   1.00
H490   H     0.00291   0.25165   0.39341   0.00000  Uiso   1.00
H491   H     0.04736   0.28869   0.37172   0.00000  Uiso   1.00
H492   H     0.49133   0.35282   0.35677   0.00000  Uiso   1.00
H493   H     0.47951   0.30109   0.65341   0.00000  Uiso   1.00
H494   H     0.42273   0.27611   0.38184   0.00000  Uiso   1.00
H495   H     0.40994   0.33232   0.35472   0.00000  Uiso   1.00
H496   H     0.43378   0.32881   0.41787   0.00000  Uiso   1.00
H497   H     0.49262   0.16096   0.39321   0.00000  Uiso   1.00
H498   H     0.43848   0.18551   0.39795   0.00000  Uiso   1.00
H499   H     0.38823   0.31777   0.53544   0.00000  Uiso   1.00
H500   H     0.46958   0.08692   0.43129   0.00000  Uiso   1.00
H501   H     0.41456   0.10970   0.44115   0.00000  Uiso   1.00
H502   H     0.40169   0.11969   0.34822   0.00000  Uiso   1.00
H503   H     0.41509   0.06015   0.36440   0.00000  Uiso   1.00
H504   H     0.45717   0.09698   0.33810   0.00000  Uiso   1.00
H505   H     0.48298   0.38271   0.58955   0.00000  Uiso   1.00
H506   H     0.43131   0.35340   0.58906   0.00000  Uiso   1.00
H507   H     0.47284   0.41111   0.50313   0.00000  Uiso   1.00
H508   H     0.42060   0.38072   0.49451   0.00000  Uiso   1.00
H509   H     0.38817   0.42772   0.56365   0.00000  Uiso   1.00
H510   H     0.11536   0.19686   0.55743   0.00000  Uiso   1.00
H511   H     0.40802   0.46396   0.51396   0.00000  Uiso   1.00
H512   H     0.44071   0.45884   0.57214   0.00000  Uiso   1.00
H513   H     0.01018   0.21409   0.64182   0.00000  Uiso   1.00
H514   H     0.06234   0.23815   0.62456   0.00000  Uiso   1.00
H515   H     0.03993   0.13708   0.65414   0.00000  Uiso   1.00
H516   H     0.09044   0.15046   0.62282   0.00000  Uiso   1.00
H517   H     0.11536   0.20442   0.35740   0.00000  Uiso   1.00
H518   H     0.10148   0.14836   0.38320   0.00000  Uiso   1.00
H519   H     0.06350   0.19636   0.38900   0.00000  Uiso   1.00
H520   H     0.18821   0.03376   0.45693   0.00000  Uiso   1.00
H521   H     0.28770   0.46613   0.57011   0.00000  Uiso   1.00
H522   H     0.31236   0.03443   0.54279   0.00000  Uiso   1.00
H523   H     0.21316   0.46561   0.42940   0.00000  Uiso   1.00
H524   H     0.19039   0.15470   0.42441   0.00000  Uiso   1.00
N525   N     0.25000   0.12623   0.50000   0.00000  Uiso   1.00
N526   N     0.25000   0.37376   0.50000   0.00000  Uiso   1.00
O527   O     0.18453   0.28974   0.50000   0.00000  Uiso   1.00
O528   O     0.47701   0.17380   0.46621   0.00000  Uiso   1.00
O529   O     0.48135   0.32566   0.54375   0.00000  Uiso   1.00
O530   O     0.02774   0.19367   0.57132   0.00000  Uiso   1.00
O531   O     0.31547   0.21026   0.50000   0.00000  Uiso   1.00
O532   O     0.31547   0.28974   0.50000   0.00000  Uiso   1.00
O533   O     0.18453   0.21026   0.50000   0.00000  Uiso   1.00
O534   O     0.25000   0.28973   0.42845   0.00000  Uiso   1.00
O535   O     0.25000   0.21027   0.57155   0.00000  Uiso   1.00
O536   O     0.25000   0.28973   0.57155   0.00000  Uiso   1.00
O537   O     0.25000   0.21027   0.42845   0.00000  Uiso   1.00
O538   O     0.02036   0.30914   0.43898   0.00000  Uiso   1.00
Zn539  Zn    0.25000   0.30307   0.50000   0.00000  Uiso   1.00
Zn540  Zn    0.25000   0.19693   0.50000   0.00000  Uiso   1.00
C541   C     0.66411   0.24996   0.49943   0.00000  Uiso   1.00
C542   C     0.72894   0.44765   0.46107   0.00000  Uiso   1.00
C543   C     0.74982   0.24995   0.40633   0.00000  Uiso   1.00
C544   C     0.75013   0.25005   0.59367   0.00000  Uiso   1.00
C545   C     0.75034   0.02647   0.49978   0.00000  Uiso   1.00
C546   C     0.75043   0.47349   0.49976   0.00000  Uiso   1.00
C547   C     0.74989   0.24994   0.35517   0.00000  Uiso   1.00
C548   C     0.75001   0.25008   0.64482   0.00000  Uiso   1.00
C549   C     0.54538   0.27952   0.46982   0.00000  Uiso   1.00
C550   C     0.95324   0.21180   0.48371   0.00000  Uiso   1.00
C551   C     0.95442   0.28916   0.52449   0.00000  Uiso   1.00
C552   C     0.83606   0.25006   0.50051   0.00000  Uiso   1.00
C553   C     0.54932   0.22143   0.53716   0.00000  Uiso   1.00
C554   C     0.59172   0.28011   0.46915   0.00000  Uiso   1.00
C555   C     0.90683   0.21169   0.48390   0.00000  Uiso   1.00
C556   C     0.90745   0.28882   0.52205   0.00000  Uiso   1.00
C557   C     0.59555   0.21997   0.53345   0.00000  Uiso   1.00
C558   C     0.61637   0.24982   0.50033   0.00000  Uiso   1.00
C559   C     0.88424   0.25023   0.50210   0.00000  Uiso   1.00
C560   C     0.52452   0.25037   0.50418   0.00000  Uiso   1.00
C561   C     0.97636   0.25006   0.50512   0.00000  Uiso   1.00
C562   C     0.67856   0.12499   0.44651   0.00000  Uiso   1.00
C563   C     0.71654   0.10130   0.47466   0.00000  Uiso   1.00
C564   C     0.79600   0.37480   0.58147   0.00000  Uiso   1.00
C565   C     0.82135   0.12563   0.55407   0.00000  Uiso   1.00
C566   C     0.70338   0.37432   0.41892   0.00000  Uiso   1.00
C567   C     0.51495   0.28833   0.39097   0.00000  Uiso   1.00
C568   C     0.98073   0.31573   0.35882   0.00000  Uiso   1.00
C569   C     0.93394   0.31298   0.37977   0.00000  Uiso   1.00
C570   C     0.96278   0.16093   0.41661   0.00000  Uiso   1.00
C571   C     0.94357   0.11146   0.41641   0.00000  Uiso   1.00
C572   C     0.92848   0.09625   0.36341   0.00000  Uiso   1.00
C573   C     0.95854   0.36403   0.56420   0.00000  Uiso   1.00
C574   C     0.77204   0.39862   0.53808   0.00000  Uiso   1.00
C575   C     0.94312   0.39826   0.52281   0.00000  Uiso   1.00
C576   C     0.91850   0.43974   0.54467   0.00000  Uiso   1.00
C577   C     0.54095   0.20617   0.62136   0.00000  Uiso   1.00
C578   C     0.56472   0.16506   0.64739   0.00000  Uiso   1.00
C579   C     0.58759   0.17965   0.36397   0.00000  Uiso   1.00
C580   C     0.78357   0.10165   0.52540   0.00000  Uiso   1.00
C581   C     0.72814   0.39837   0.46184   0.00000  Uiso   1.00
C582   C     0.71609   0.05199   0.47521   0.00000  Uiso   1.00
C583   C     0.77179   0.44793   0.53853   0.00000  Uiso   1.00
C584   C     0.78439   0.05236   0.52452   0.00000  Uiso   1.00
H585   H     0.60829   0.30329   0.44370   0.00000  Uiso   1.00
H586   H     0.66177   0.10078   0.41908   0.00000  Uiso   1.00
H587   H     0.65299   0.13608   0.47313   0.00000  Uiso   1.00
H588   H     0.81638   0.34541   0.56851   0.00000  Uiso   1.00
H589   H     0.81947   0.39890   0.60196   0.00000  Uiso   1.00
H590   H     0.77140   0.36321   0.60894   0.00000  Uiso   1.00
H591   H     0.80951   0.15578   0.57554   0.00000  Uiso   1.00
H592   H     0.83763   0.10190   0.58216   0.00000  Uiso   1.00
H593   H     0.84738   0.13605   0.52783   0.00000  Uiso   1.00
H594   H     0.68356   0.34467   0.43218   0.00000  Uiso   1.00
H595   H     0.67913   0.39820   0.39956   0.00000  Uiso   1.00
H596   H     0.88836   0.18203   0.46880   0.00000  Uiso   1.00
H597   H     0.72738   0.36304   0.39057   0.00000  Uiso   1.00
H598   H     0.50291   0.25165   0.39341   0.00000  Uiso   1.00
H599   H     0.54736   0.28869   0.37172   0.00000  Uiso   1.00
H600   H     0.99133   0.35282   0.35677   0.00000  Uiso   1.00
H601   H     0.97951   0.30109   0.65341   0.00000  Uiso   1.00
H602   H     0.92273   0.27611   0.38184   0.00000  Uiso   1.00
H603   H     0.90994   0.33232   0.35472   0.00000  Uiso   1.00
H604   H     0.93378   0.32881   0.41787   0.00000  Uiso   1.00
H605   H     0.99262   0.16096   0.39321   0.00000  Uiso   1.00
H606   H     0.93848   0.18551   0.39795   0.00000  Uiso   1.00
H607   H     0.88823   0.31777   0.53544   0.00000  Uiso   1.00
H608   H     0.96958   0.08692   0.43129   0.00000  Uiso   1.00
H609   H     0.91456   0.10970   0.44115   0.00000  Uiso   1.00
H610   H     0.90169   0.11969   0.34822   0.00000  Uiso   1.00
H611   H     0.91509   0.06015   0.36440   0.00000  Uiso   1.00
H612   H     0.95717   0.09698   0.33810   0.00000  Uiso   1.00
H613   H     0.98298   0.38271   0.58955   0.00000  Uiso   1.00
H614   H     0.93131   0.35340   0.58906   0.00000  Uiso   1.00
H615   H     0.97284   0.41111   0.50313   0.00000  Uiso   1.00
H616   H     0.92060   0.38072   0.49451   0.00000  Uiso   1.00
H617   H     0.88817   0.42772   0.56365   0.00000  Uiso   1.00
H618   H     0.61536   0.19686   0.55743   0.00000  Uiso   1.00
H619   H     0.90802   0.46396   0.51396   0.00000  Uiso   1.00
H620   H     0.94071   0.45884   0.57214   0.00000  Uiso   1.00
H621   H     0.51018   0.21409   0.64182   0.00000  Uiso   1.00
H622   H     0.56234   0.23815   0.62456   0.00000  Uiso   1.00
H623   H     0.53993   0.13708   0.65414   0.00000  Uiso   1.00
H624   H     0.59044   0.15046   0.62282   0.00000  Uiso   1.00
H625   H     0.61536   0.20442   0.35740   0.00000  Uiso   1.00
H626   H     0.60148   0.14836   0.38320   0.00000  Uiso   1.00
H627   H     0.56350   0.19636   0.38900   0.00000  Uiso   1.00
H628   H     0.68821   0.03376   0.45693   0.00000  Uiso   1.00
H629   H     0.78770   0.46613   0.57011   0.00000  Uiso   1.00
H630   H     0.81236   0.03443   0.54279   0.00000  Uiso   1.00
H631   H     0.71316   0.46561   0.42940   0.00000  Uiso   1.00
H632   H     0.69039   0.15470   0.42441   0.00000  Uiso   1.00
N633   N     0.75000   0.12623   0.50000   0.00000  Uiso   1.00
N634   N     0.75000   0.37376   0.50000   0.00000  Uiso   1.00
O635   O     0.68453   0.28974   0.50000   0.00000  Uiso   1.00
O636   O     0.97701   0.17380   0.46621   0.00000  Uiso   1.00
O637   O     0.98135   0.32566   0.54375   0.00000  Uiso   1.00
O638   O     0.52774   0.19367   0.57132   0.00000  Uiso   1.00
O639   O     0.81547   0.21026   0.50000   0.00000  Uiso   1.00
O640   O     0.81547   0.28974   0.50000   0.00000  Uiso   1.00
O641   O     0.68453   0.21026   0.50000   0.00000  Uiso   1.00
O642   O     0.75000   0.28973   0.42845   0.00000  Uiso   1.00
O643   O     0.75000   0.21027   0.57155   0.00000  Uiso   1.00
O644   O     0.75000   0.28973   0.57155   0.00000  Uiso   1.00
O645   O     0.75000   0.21027   0.42845   0.00000  Uiso   1.00
O646   O     0.52036   0.30914   0.43898   0.00000  Uiso   1.00
Zn647  Zn    0.75000   0.30307   0.50000   0.00000  Uiso   1.00
Zn648  Zn    0.75000   0.19693   0.50000   0.00000  Uiso   1.00
C649   C     0.16411   0.74996   0.49943   0.00000  Uiso   1.00
C650   C     0.22894   0.94765   0.46107   0.00000  Uiso   1.00
C651   C     0.24982   0.74995   0.40633   0.00000  Uiso   1.00
C652   C     0.25013   0.75005   0.59367   0.00000  Uiso   1.00
C653   C     0.25034   0.52647   0.49978   0.00000  Uiso   1.00
C654   C     0.25043   0.97349   0.49976   0.00000  Uiso   1.00
C655   C     0.24989   0.74994   0.35517   0.00000  Uiso   1.00
C656   C     0.25001   0.75008   0.64482   0.00000  Uiso   1.00
C657   C     0.04538   0.77952   0.46982   0.00000  Uiso   1.00
C658   C     0.45324   0.71180   0.48371   0.00000  Uiso   1.00
C659   C     0.45442   0.78916   0.52449   0.00000  Uiso   1.00
C660   C     0.33606   0.75006   0.50051   0.00000  Uiso   1.00
C661   C     0.04932   0.72143   0.53716   0.00000  Uiso   1.00
C662   C     0.09172   0.78011   0.46915   0.00000  Uiso   1.00
C663   C     0.40683   0.71169   0.48390   0.00000  Uiso   1.00
C664   C     0.40745   0.78882   0.52205   0.00000  Uiso   1.00
C665   C     0.09555   0.71997   0.53345   0.00000  Uiso   1.00
C666   C     0.11637   0.74982   0.50033   0.00000  Uiso   1.00
C667   C     0.38424   0.75023   0.50210   0.00000  Uiso   1.00
C668   C     0.02452   0.75037   0.50418   0.00000  Uiso   1.00
C669   C     0.47636   0.75006   0.50512   0.00000  Uiso   1.00
C670   C     0.17856   0.62499   0.44651   0.00000  Uiso   1.00
C671   C     0.21654   0.60130   0.47466   0.00000  Uiso   1.00
C672   C     0.29600   0.87480   0.58147   0.00000  Uiso   1.00
C673   C     0.32135   0.62563   0.55407   0.00000  Uiso   1.00
C674   C     0.20338   0.87432   0.41892   0.00000  Uiso   1.00
C675   C     0.01495   0.78833   0.39097   0.00000  Uiso   1.00
C676   C     0.48073   0.81573   0.35882   0.00000  Uiso   1.00
C677   C     0.43394   0.81298   0.37977   0.00000  Uiso   1.00
C678   C     0.46278   0.66093   0.41661   0.00000  Uiso   1.00
C679   C     0.44357   0.61146   0.41641   0.00000  Uiso   1.00
C680   C     0.42848   0.59625   0.36341   0.00000  Uiso   1.00
C681   C     0.45854   0.86403   0.56420   0.00000  Uiso   1.00
C682   C     0.27204   0.89862   0.53808   0.00000  Uiso   1.00
C683   C     0.44312   0.89826   0.52281   0.00000  Uiso   1.00
C684   C     0.41850   0.93974   0.54467   0.00000  Uiso   1.00
C685   C     0.04095   0.70617   0.62136   0.00000  Uiso   1.00
C686   C     0.06472   0.66506   0.64739   0.00000  Uiso   1.00
C687   C     0.08759   0.67965   0.36397   0.00000  Uiso   1.00
C688   C     0.28357   0.60165   0.52540   0.00000  Uiso   1.00
C689   C     0.22814   0.89837   0.46184   0.00000  Uiso   1.00
C690   C     0.21609   0.55199   0.47521   0.00000  Uiso   1.00
C691   C     0.27179   0.94793   0.53853   0.00000  Uiso   1.00
C692   C     0.28439   0.55236   0.52452   0.00000  Uiso   1.00
H693   H     0.10829   0.80329   0.44370   0.00000  Uiso   1.00
H694   H     0.16177   0.60078   0.41908   0.00000  Uiso   1.00
H695   H     0.15299   0.63608   0.47313   0.00000  Uiso   1.00
H696   H     0.31638   0.84541   0.56851   0.00000  Uiso   1.00
H697   H     0.31947   0.89890   0.60196   0.00000  Uiso   1.00
H698   H     0.27140   0.86321   0.60894   0.00000  Uiso   1.00
H699   H     0.30951   0.65578   0.57554   0.00000  Uiso   1.00
H700   H     0.33763   0.60190   0.58216   0.00000  Uiso   1.00
H701   H     0.34738   0.63605   0.52783   0.00000  Uiso   1.00
H702   H     0.18356   0.84467   0.43218   0.00000  Uiso   1.00
H703   H     0.17913   0.89820   0.39956   0.00000  Uiso   1.00
H704   H     0.38836   0.68203   0.46880   0.00000  Uiso   1.00
H705   H     0.22738   0.86304   0.39057   0.00000  Uiso   1.00
H706   H     0.00291   0.75165   0.39341   0.00000  Uiso   1.00
H707   H     0.04736   0.78869   0.37172   0.00000  Uiso   1.00
H708   H     0.49133   0.85282   0.35677   0.00000  Uiso   1.00
H709   H     0.47951   0.80109   0.65341   0.00000  Uiso   1.00
H710   H     0.42273   0.77611   0.38184   0.00000  Uiso   1.00
H711   H     0.40994   0.83232   0.35472   0.00000  Uiso   1.00
H712   H     0.43378   0.82881   0.41787   0.00000  Uiso   1.00
H713   H     0.49262   0.66096   0.39321   0.00000  Uiso   1.00
H714   H     0.43848   0.68551   0.39795   0.00000  Uiso   1.00
H715   H     0.38823   0.81777   0.53544   0.00000  Uiso   1.00
H716   H     0.46958   0.58692   0.43129   0.00000  Uiso   1.00
H717   H     0.41456   0.60970   0.44115   0.00000  Uiso   1.00
H718   H     0.40169   0.61969   0.34822   0.00000  Uiso   1.00
H719   H     0.41509   0.56015   0.36440   0.00000  Uiso   1.00
H720   H     0.45717   0.59698   0.33810   0.00000  Uiso   1.00
H721   H     0.48298   0.88271   0.58955   0.00000  Uiso   1.00
H722   H     0.43131   0.85340   0.58906   0.00000  Uiso   1.00
H723   H     0.47284   0.91111   0.50313   0.00000  Uiso   1.00
H724   H     0.42060   0.88072   0.49451   0.00000  Uiso   1.00
H725   H     0.38817   0.92772   0.56365   0.00000  Uiso   1.00
H726   H     0.11536   0.69686   0.55743   0.00000  Uiso   1.00
H727   H     0.40802   0.96396   0.51396   0.00000  Uiso   1.00
H728   H     0.44071   0.95884   0.57214   0.00000  Uiso   1.00
H729   H     0.01018   0.71409   0.64182   0.00000  Uiso   1.00
H730   H     0.06234   0.73815   0.62456   0.00000  Uiso   1.00
H731   H     0.03993   0.63708   0.65414   0.00000  Uiso   1.00
H732   H     0.09044   0.65046   0.62282   0.00000  Uiso   1.00
H733   H     0.11536   0.70442   0.35740   0.00000  Uiso   1.00
H734   H     0.10148   0.64836   0.38320   0.00000  Uiso   1.00
H735   H     0.06350   0.69636   0.38900   0.00000  Uiso   1.00
H736   H     0.18821   0.53376   0.45693   0.00000  Uiso   1.00
H737   H     0.28770   0.96613   0.57011   0.00000  Uiso   1.00
H738   H     0.31236   0.53443   0.54279   0.00000  Uiso   1.00
H739   H     0.21316   0.96561   0.42940   0.00000  Uiso   1.00
H740   H     0.19039   0.65470   0.42441   0.00000  Uiso   1.00
N741   N     0.25000   0.62623   0.50000   0.00000  Uiso   1.00
N742   N     0.25000   0.87376   0.50000   0.00000  Uiso   1.00
O743   O     0.18453   0.78974   0.50000   0.00000  Uiso   1.00
O744   O     0.47701   0.67380   0.46621   0.00000  Uiso   1.00
O745   O     0.48135   0.82566   0.54375   0.00000  Uiso   1.00
O746   O     0.02774   0.69367   0.57132   0.00000  Uiso   1.00
O747   O     0.31547   0.71026   0.50000   0.00000  Uiso   1.00
O748   O     0.31547   0.78974   0.50000   0.00000  Uiso   1.00
O749   O     0.18453   0.71026   0.50000   0.00000  Uiso   1.00
O750   O     0.25000   0.78973   0.42845   0.00000  Uiso   1.00
O751   O     0.25000   0.71027   0.57155   0.00000  Uiso   1.00
O752   O     0.25000   0.78973   0.57155   0.00000  Uiso   1.00
O753   O     0.25000   0.71027   0.42845   0.00000  Uiso   1.00
O754   O     0.02036   0.80914   0.43898   0.00000  Uiso   1.00
Zn755  Zn    0.25000   0.80307   0.50000   0.00000  Uiso   1.00
Zn756  Zn    0.25000   0.69693   0.50000   0.00000  Uiso   1.00
C757   C     0.66411   0.74996   0.49943   0.00000  Uiso   1.00
C758   C     0.72894   0.94765   0.46107   0.00000  Uiso   1.00
C759   C     0.74982   0.74995   0.40633   0.00000  Uiso   1.00
C760   C     0.75013   0.75005   0.59367   0.00000  Uiso   1.00
C761   C     0.75034   0.52647   0.49978   0.00000  Uiso   1.00
C762   C     0.75043   0.97349   0.49976   0.00000  Uiso   1.00
C763   C     0.74989   0.74994   0.35517   0.00000  Uiso   1.00
C764   C     0.75001   0.75008   0.64482   0.00000  Uiso   1.00
C765   C     0.54538   0.77952   0.46982   0.00000  Uiso   1.00
C766   C     0.95324   0.71180   0.48371   0.00000  Uiso   1.00
C767   C     0.95442   0.78916   0.52449   0.00000  Uiso   1.00
C768   C     0.83606   0.75006   0.50051   0.00000  Uiso   1.00
C769   C     0.54932   0.72143   0.53716   0.00000  Uiso   1.00
C770   C     0.59172   0.78011   0.46915   0.00000  Uiso   1.00
C771   C     0.90683   0.71169   0.48390   0.00000  Uiso   1.00
C772   C     0.90745   0.78882   0.52205   0.00000  Uiso   1.00
C773   C     0.59555   0.71997   0.53345   0.00000  Uiso   1.00
C774   C     0.61637   0.74982   0.50033   0.00000  Uiso   1.00
C775   C     0.88424   0.75023   0.50210   0.00000  Uiso   1.00
C776   C     0.52452   0.75037   0.50418   0.00000  Uiso   1.00
C777   C     0.97636   0.75006   0.50512   0.00000  Uiso   1.00
C778   C     0.67856   0.62499   0.44651   0.00000  Uiso   1.00
C779   C     0.71654   0.60130   0.47466   0.00000  Uiso   1.00
C780   C     0.79600   0.87480   0.58147   0.00000  Uiso   1.00
C781   C     0.82135   0.62563   0.55407   0.00000  Uiso   1.00
C782   C     0.70338   0.87432   0.41892   0.00000  Uiso   1.00
C783   C     0.51495   0.78833   0.39097   0.00000  Uiso   1.00
C784   C     0.98073   0.81573   0.35882   0.00000  Uiso   1.00
C785   C     0.93394   0.81298   0.37977   0.00000  Uiso   1.00
C786   C     0.96278   0.66093   0.41661   0.00000  Uiso   1.00
C787   C     0.94357   0.61146   0.41641   0.00000  Uiso   1.00
C788   C     0.92848   0.59625   0.36341   0.00000  Uiso   1.00
C789   C     0.95854   0.86403   0.56420   0.00000  Uiso   1.00
C790   C     0.77204   0.89862   0.53808   0.00000  Uiso   1.00
C791   C     0.94312   0.89826   0.52281   0.00000  Uiso   1.00
C792   C     0.91850   0.93974   0.54467   0.00000  Uiso   1.00
C793   C     0.54095   0.70617   0.62136   0.00000  Uiso   1.00
C794   C     0.56472   0.66506   0.64739   0.00000  Uiso   1.00
C795   C     0.58759   0.67965   0.36397   0.00000  Uiso   1.00
C796   C     0.78357   0.60165   0.52540   0.00000  Uiso   1.00
C797   C     0.72814   0.89837   0.46184   0.00000  Uiso   1.00
C798   C     0.71609   0.55199   0.47521   0.00000  Uiso   1.00
C799   C     0.77179   0.94793   0.53853   0.00000  Uiso   1.00
C800   C     0.78439   0.55236   0.52452   0.00000  Uiso   1.00
H801   H     0.60829   0.80329   0.44370   0.00000  Uiso   1.00
H802   H     0.66177   0.60078   0.41908   0.00000  Uiso   1.00
H803   H     0.65299   0.63608   0.47313   0.00000  Uiso   1.00
H804   H     0.81638   0.84541   0.56851   0.00000  Uiso   1.00
H805   H     0.81947   0.89890   0.60196   0.00000  Uiso   1.00
H806   H     0.77140   0.86321   0.60894   0.00000  Uiso   1.00
H807   H     0.80951   0.65578   0.57554   0.00000  Uiso   1.00
H808   H     0.83763   0.60190   0.58216   0.00000  Uiso   1.00
H809   H     0.84738   0.63605   0.52783   0.00000  Uiso   1.00
H810   H     0.68356   0.84467   0.43218   0.00000  Uiso   1.00
H811   H     0.67913   0.89820   0.39956   0.00000  Uiso   1.00
H812   H     0.88836   0.68203   0.46880   0.00000  Uiso   1.00
H813   H     0.72738   0.86304   0.39057   0.00000  Uiso   1.00
H814   H     0.50291   0.75165   0.39341   0.00000  Uiso   1.00
H815   H     0.54736   0.78869   0.37172   0.00000  Uiso   1.00
H816   H     0.99133   0.85282   0.35677   0.00000  Uiso   1.00
H817   H     0.97951   0.80109   0.65341   0.00000  Uiso   1.00
H818   H     0.92273   0.77611   0.38184   0.00000  Uiso   1.00
H819   H     0.90994   0.83232   0.35472   0.00000  Uiso   1.00
H820   H     0.93378   0.82881   0.41787   0.00000  Uiso   1.00
H821   H     0.99262   0.66096   0.39321   0.00000  Uiso   1.00
H822   H     0.93848   0.68551   0.39795   0.00000  Uiso   1.00
H823   H     0.88823   0.81777   0.53544   0.00000  Uiso   1.00
H824   H     0.96958   0.58692   0.43129   0.00000  Uiso   1.00
H825   H     0.91456   0.60970   0.44115   0.00000  Uiso   1.00
H826   H     0.90169   0.61969   0.34822   0.00000  Uiso   1.00
H827   H     0.91509   0.56015   0.36440   0.00000  Uiso   1.00
H828   H     0.95717   0.59698   0.33810   0.00000  Uiso   1.00
H829   H     0.98298   0.88271   0.58955   0.00000  Uiso   1.00
H830   H     0.93131   0.85340   0.58906   0.00000  Uiso   1.00
H831   H     0.97284   0.91111   0.50313   0.00000  Uiso   1.00
H832   H     0.92060   0.88072   0.49451   0.00000  Uiso   1.00
H833   H     0.88817   0.92772   0.56365   0.00000  Uiso   1.00
H834   H     0.61536   0.69686   0.55743   0.00000  Uiso   1.00
H835   H     0.90802   0.96396   0.51396   0.00000  Uiso   1.00
H836   H     0.94071   0.95884   0.57214   0.00000  Uiso   1.00
H837   H     0.51018   0.71409   0.64182   0.00000  Uiso   1.00
H838   H     0.56234   0.73815   0.62456   0.00000  Uiso   1.00
H839   H     0.53993   0.63708   0.65414   0.00000  Uiso   1.00
H840   H     0.59044   0.65046   0.62282   0.00000  Uiso   1.00
H841   H     0.61536   0.70442   0.35740   0.00000  Uiso   1.00
H842   H     0.60148   0.64836   0.38320   0.00000  Uiso   1.00
H843   H     0.56350   0.69636   0.38900   0.00000  Uiso   1.00
H844   H     0.68821   0.53376   0.45693   0.00000  Uiso   1.00
H845   H     0.78770   0.96613   0.57011   0.00000  Uiso   1.00
H846   H     0.81236   0.53443   0.54279   0.00000  Uiso   1.00
H847   H     0.71316   0.96561   0.42940   0.00000  Uiso   1.00
H848   H     0.69039   0.65470   0.42441   0.00000  Uiso   1.00
N849   N     0.75000   0.62623   0.50000   0.00000  Uiso   1.00
N850   N     0.75000   0.87376   0.50000   0.00000  Uiso   1.00
O851   O     0.68453   0.78974   0.50000   0.00000  Uiso   1.00
O852   O     0.97701   0.67380   0.46621   0.00000  Uiso   1.00
O853   O     0.98135   0.82566   0.54375   0.00000  Uiso   1.00
O854   O     0.52774   0.69367   0.57132   0.00000  Uiso   1.00
O855   O     0.81547   0.71026   0.50000   0.00000  Uiso   1.00
O856   O     0.81547   0.78974   0.50000   0.00000  Uiso   1.00
O857   O     0.68453   0.71026   0.50000   0.00000  Uiso   1.00
O858   O     0.75000   0.78973   0.42845   0.00000  Uiso   1.00
O859   O     0.75000   0.71027   0.57155   0.00000  Uiso   1.00
O860   O     0.75000   0.78973   0.57155   0.00000  Uiso   1.00
O861   O     0.75000   0.71027   0.42845   0.00000  Uiso   1.00
O862   O     0.52036   0.80914   0.43898   0.00000  Uiso   1.00
Zn863  Zn    0.75000   0.80307   0.50000   0.00000  Uiso   1.00
Zn864  Zn    0.75000   0.69693   0.50000   0.00000  Uiso   1.00
C865   C     0.16411   0.24996   0.83276   0.00000  Uiso   1.00
C866   C     0.22894   0.44765   0.79440   0.00000  Uiso   1.00
C867   C     0.24982   0.24995   0.73966   0.00000  Uiso   1.00
C868   C     0.25013   0.25005   0.92700   0.00000  Uiso   1.00
C869   C     0.25034   0.02647   0.83312   0.00000  Uiso   1.00
C870   C     0.25043   0.47349   0.83309   0.00000  Uiso   1.00
C871   C     0.24989   0.24994   0.68851   0.00000  Uiso   1.00
C872   C     0.25001   0.25008   0.97816   0.00000  Uiso   1.00
C873   C     0.04538   0.27952   0.80315   0.00000  Uiso   1.00
C874   C     0.45324   0.21180   0.81705   0.00000  Uiso   1.00
C875   C     0.45442   0.28916   0.85783   0.00000  Uiso   1.00
C876   C     0.33606   0.25006   0.83385   0.00000  Uiso   1.00
C877   C     0.04932   0.22143   0.87050   0.00000  Uiso   1.00
C878   C     0.09172   0.28011   0.80249   0.00000  Uiso   1.00
C879   C     0.40683   0.21169   0.81723   0.00000  Uiso   1.00
C880   C     0.40745   0.28882   0.85538   0.00000  Uiso   1.00
C881   C     0.09555   0.21997   0.86679   0.00000  Uiso   1.00
C882   C     0.11637   0.24982   0.83366   0.00000  Uiso   1.00
C883   C     0.38424   0.25023   0.83543   0.00000  Uiso   1.00
C884   C     0.02452   0.25037   0.83751   0.00000  Uiso   1.00
C885   C     0.47636   0.25006   0.83845   0.00000  Uiso   1.00
C886   C     0.17856   0.12499   0.77984   0.00000  Uiso   1.00
C887   C     0.21654   0.10130   0.80799   0.00000  Uiso   1.00
C888   C     0.29600   0.37480   0.91481   0.00000  Uiso   1.00
C889   C     0.32135   0.12563   0.88740   0.00000  Uiso   1.00
C890   C     0.20338   0.37432   0.75225   0.00000  Uiso   1.00
C891   C     0.01495   0.28833   0.72430   0.00000  Uiso   1.00
C892   C     0.48073   0.31573   0.69215   0.00000  Uiso   1.00
C893   C     0.43394   0.31298   0.71310   0.00000  Uiso   1.00
C894   C     0.46278   0.16093   0.74994   0.00000  Uiso   1.00
C895   C     0.44357   0.11146   0.74975   0.00000  Uiso   1.00
C896   C     0.42848   0.09625   0.69674   0.00000  Uiso   1.00
C897   C     0.45854   0.36403   0.89754   0.00000  Uiso   1.00
C898   C     0.27204   0.39862   0.87141   0.00000  Uiso   1.00
C899   C     0.44312   0.39826   0.85615   0.00000  Uiso   1.00
C900   C     0.41850   0.43974   0.87800   0.00000  Uiso   1.00
C901   C     0.04095   0.20617   0.95469   0.00000  Uiso   1.00
C902   C     0.06472   0.16506   0.98072   0.00000  Uiso   1.00
C903   C     0.08759   0.17965   0.69731   0.00000  Uiso   1.00
C904   C     0.28357   0.10165   0.85874   0.00000  Uiso   1.00
C905   C     0.22814   0.39837   0.79517   0.00000  Uiso   1.00
C906   C     0.21609   0.05199   0.80855   0.00000  Uiso   1.00
C907   C     0.27179   0.44793   0.87186   0.00000  Uiso   1.00
C908   C     0.28439   0.05236   0.85786   0.00000  Uiso   1.00
H909   H     0.10829   0.30329   0.77703   0.00000  Uiso   1.00
H910   H     0.16177   0.10078   0.75241   0.00000  Uiso   1.00
H911   H     0.15299   0.13608   0.80647   0.00000  Uiso   1.00
H912   H     0.31638   0.34541   0.90184   0.00000  Uiso   1.00
H913   H     0.31947   0.39890   0.93529   0.00000  Uiso   1.00
H914   H     0.27140   0.36321   0.94227   0.00000  Uiso   1.00
H915   H     0.30951   0.15578   0.90887   0.00000  Uiso   1.00
H916   H     0.33763   0.10190   0.91549   0.00000  Uiso   1.00
H917   H     0.34738   0.13605   0.86116   0.00000  Uiso   1.00
H918   H     0.18356   0.34467   0.76551   0.00000  Uiso   1.00
H919   H     0.17913   0.39820   0.73289   0.00000  Uiso   1.00
H920   H     0.38836   0.18203   0.80214   0.00000  Uiso   1.00
H921   H     0.22738   0.36304   0.72391   0.00000  Uiso   1.00
H922   H     0.00291   0.25165   0.72674   0.00000  Uiso   1.00
H923   H     0.04736   0.28869   0.70505   0.00000  Uiso   1.00
H924   H     0.49133   0.35282   0.69010   0.00000  Uiso   1.00
H925   H     0.47951   0.30109   0.98674   0.00000  Uiso   1.00
H926   H     0.42273   0.27611   0.71517   0.00000  Uiso   1.00
H927   H     0.40994   0.33232   0.68806   0.00000  Uiso   1.00
H928   H     0.43378   0.32881   0.75120   0.00000  Uiso   1.00
H929   H     0.49262   0.16096   0.72654   0.00000  Uiso   1.00
H930   H     0.43848   0.18551   0.73128   0.00000  Uiso   1.00
H931   H     0.38823   0.31777   0.86877   0.00000  Uiso   1.00
H932   H     0.46958   0.08692   0.76462   0.00000  Uiso   1.00
H933   H     0.41456   0.10970   0.77449   0.00000  Uiso   1.00
H934   H     0.40169   0.11969   0.68156   0.00000  Uiso   1.00
H935   H     0.41509   0.06015   0.69773   0.00000  Uiso   1.00
H936   H     0.45717   0.09698   0.67143   0.00000  Uiso   1.00
H937   H     0.48298   0.38271   0.92288   0.00000  Uiso   1.00
H938   H     0.43131   0.35340   0.92239   0.00000  Uiso   1.00
H939   H     0.47284   0.41111   0.83646   0.00000  Uiso   1.00
H940   H     0.42060   0.38072   0.82785   0.00000  Uiso   1.00
H941   H     0.38817   0.42772   0.89698   0.00000  Uiso   1.00
H942   H     0.11536   0.19686   0.89076   0.00000  Uiso   1.00
H943   H     0.40802   0.46396   0.84730   0.00000  Uiso   1.00
H944   H     0.44071   0.45884   0.90547   0.00000  Uiso   1.00
H945   H     0.01018   0.21409   0.97515   0.00000  Uiso   1.00
H946   H     0.06234   0.23815   0.95789   0.00000  Uiso   1.00
H947   H     0.03993   0.13708   0.98748   0.00000  Uiso   1.00
H948   H     0.09044   0.15046   0.95615   0.00000  Uiso   1.00
H949   H     0.11536   0.20442   0.69073   0.00000  Uiso   1.00
H950   H     0.10148   0.14836   0.71654   0.00000  Uiso   1.00
H951   H     0.06350   0.19636   0.72233   0.00000  Uiso   1.00
H952   H     0.18821   0.03376   0.79026   0.00000  Uiso   1.00
H953   H     0.28770   0.46613   0.90345   0.00000  Uiso   1.00
H954   H     0.31236   0.03443   0.87612   0.00000  Uiso   1.00
H955   H     0.21316   0.46561   0.76274   0.00000  Uiso   1.00
H956   H     0.19039   0.15470   0.75774   0.00000  Uiso   1.00
N957   N     0.25000   0.12623   0.83333   0.00000  Uiso   1.00
N958   N     0.25000   0.37376   0.83333   0.00000  Uiso   1.00
O959   O     0.18453   0.28974   0.83334   0.00000  Uiso   1.00
O960   O     0.47701   0.17380   0.79954   0.00000  Uiso   1.00
O961   O     0.48135   0.32566   0.87708   0.00000  Uiso   1.00
O962   O     0.02774   0.19367   0.90466   0.00000  Uiso   1.00
O963   O     0.31547   0.21026   0.83333   0.00000  Uiso   1.00
O964   O     0.31547   0.28974   0.83333   0.00000  Uiso   1.00
O965   O     0.18453   0.21026   0.83334   0.00000  Uiso   1.00
O966   O     0.25000   0.28973   0.76178   0.00000  Uiso   1.00
O967   O     0.25000   0.21027   0.90489   0.00000  Uiso   1.00
O968   O     0.25000   0.28973   0.90489   0.00000  Uiso   1.00
O969   O     0.25000   0.21027   0.76178   0.00000  Uiso   1.00
O970   O     0.02036   0.30914   0.77231   0.00000  Uiso   1.00
Zn971  Zn    0.25000   0.30307   0.83333   0.00000  Uiso   1.00
Zn972  Zn    0.25000   0.19693   0.83333   0.00000  Uiso   1.00
C973   C     0.66411   0.24996   0.83276   0.00000  Uiso   1.00
C974   C     0.72894   0.44765   0.79440   0.00000  Uiso   1.00
C975   C     0.74982   0.24995   0.73966   0.00000  Uiso   1.00
C976   C     0.75013   0.25005   0.92700   0.00000  Uiso   1.00
C977   C     0.75034   0.02647   0.83312   0.00000  Uiso   1.00
C978   C     0.75043   0.47349   0.83309   0.00000  Uiso   1.00
C979   C     0.74989   0.24994   0.68851   0.00000  Uiso   1.00
C980   C     0.75001   0.25008   0.97816   0.00000  Uiso   1.00
C981   C     0.54538   0.27952   0.80315   0.00000  Uiso   1.00
C982   C     0.95324   0.21180   0.81705   0.00000  Uiso   1.00
C983   C     0.95442   0.28916   0.85783   0.00000  Uiso   1.00
C984   C     0.83606   0.25006   0.83385   0.00000  Uiso   1.00
C985   C     0.54932   0.22143   0.87050   0.00000  Uiso   1.00
C986   C     0.59172   0.28011   0.80249   0.00000  Uiso   1.00
C987   C     0.90683   0.21169   0.81723   0.00000  Uiso   1.00
C988   C     0.90745   0.28882   0.85538   0.00000  Uiso   1.00
C989   C     0.59555   0.21997   0.86679   0.00000  Uiso   1.00
C990   C     0.61637   0.24982   0.83366   0.00000  Uiso   1.00
C991   C     0.88424   0.25023   0.83543   0.00000  Uiso   1.00
C992   C     0.52452   0.25037   0.83751   0.00000  Uiso   1.00
C993   C     0.97636   0.25006   0.83845   0.00000  Uiso   1.00
C994   C     0.67856   0.12499   0.77984   0.00000  Uiso   1.00
C995   C     0.71654   0.10130   0.80799   0.00000  Uiso   1.00
C996   C     0.79600   0.37480   0.91481   0.00000  Uiso   1.00
C997   C     0.82135   0.12563   0.88740   0.00000  Uiso   1.00
C998   C     0.70338   0.37432   0.75225   0.00000  Uiso   1.00
C999   C     0.51495   0.28833   0.72430   0.00000  Uiso   1.00
C1000  C     0.98073   0.31573   0.69215   0.00000  Uiso   1.00
C1001  C     0.93394   0.31298   0.71310   0.00000  Uiso   1.00
C1002  C     0.96278   0.16093   0.74994   0.00000  Uiso   1.00
C1003  C     0.94357   0.11146   0.74975   0.00000  Uiso   1.00
C1004  C     0.92848   0.09625   0.69674   0.00000  Uiso   1.00
C1005  C     0.95854   0.36403   0.89754   0.00000  Uiso   1.00
C1006  C     0.77204   0.39862   0.87141   0.00000  Uiso   1.00
C1007  C     0.94312   0.39826   0.85615   0.00000  Uiso   1.00
C1008  C     0.91850   0.43974   0.87800   0.00000  Uiso   1.00
C1009  C     0.54095   0.20617   0.95469   0.00000  Uiso   1.00
C1010  C     0.56472   0.16506   0.98072   0.00000  Uiso   1.00
C1011  C     0.58759   0.17965   0.69731   0.00000  Uiso   1.00
C1012  C     0.78357   0.10165   0.85874   0.00000  Uiso   1.00
C1013  C     0.72814   0.39837   0.79517   0.00000  Uiso   1.00
C1014  C     0.71609   0.05199   0.80855   0.00000  Uiso   1.00
C1015  C     0.77179   0.44793   0.87186   0.00000  Uiso   1.00
C1016  C     0.78439   0.05236   0.85786   0.00000  Uiso   1.00
H1017  H     0.60829   0.30329   0.77703   0.00000  Uiso   1.00
H1018  H     0.66177   0.10078   0.75241   0.00000  Uiso   1.00
H1019  H     0.65299   0.13608   0.80647   0.00000  Uiso   1.00
H1020  H     0.81638   0.34541   0.90184   0.00000  Uiso   1.00
H1021  H     0.81947   0.39890   0.93529   0.00000  Uiso   1.00
H1022  H     0.77140   0.36321   0.94227   0.00000  Uiso   1.00
H1023  H     0.80951   0.15578   0.90887   0.00000  Uiso   1.00
H1024  H     0.83763   0.10190   0.91549   0.00000  Uiso   1.00
H1025  H     0.84738   0.13605   0.86116   0.00000  Uiso   1.00
H1026  H     0.68356   0.34467   0.76551   0.00000  Uiso   1.00
H1027  H     0.67913   0.39820   0.73289   0.00000  Uiso   1.00
H1028  H     0.88836   0.18203   0.80214   0.00000  Uiso   1.00
H1029  H     0.72738   0.36304   0.72391   0.00000  Uiso   1.00
H1030  H     0.50291   0.25165   0.72674   0.00000  Uiso   1.00
H1031  H     0.54736   0.28869   0.70505   0.00000  Uiso   1.00
H1032  H     0.99133   0.35282   0.69010   0.00000  Uiso   1.00
H1033  H     0.97951   0.30109   0.98674   0.00000  Uiso   1.00
H1034  H     0.92273   0.27611   0.71517   0.00000  Uiso   1.00
H1035  H     0.90994   0.33232   0.68806   0.00000  Uiso   1.00
H1036  H     0.93378   0.32881   0.75120   0.00000  Uiso   1.00
H1037  H     0.99262   0.16096   0.72654   0.00000  Uiso   1.00
H1038  H     0.93848   0.18551   0.73128   0.00000  Uiso   1.00
H1039  H     0.88823   0.31777   0.86877   0.00000  Uiso   1.00
H1040  H     0.96958   0.08692   0.76462   0.00000  Uiso   1.00
H1041  H     0.91456   0.10970   0.77449   0.00000  Uiso   1.00
H1042  H     0.90169   0.11969   0.68156   0.00000  Uiso   1.00
H1043  H     0.91509   0.06015   0.69773   0.00000  Uiso   1.00
H1044  H     0.95717   0.09698   0.67143   0.00000  Uiso   1.00
H1045  H     0.98298   0.38271   0.92288   0.00000  Uiso   1.00
H1046  H     0.93131   0.35340   0.92239   0.00000  Uiso   1.00
H1047  H     0.97284   0.41111   0.83646   0.00000  Uiso   1.00
H1048  H     0.92060   0.38072   0.82785   0.00000  Uiso   1.00
H1049  H     0.88817   0.42772   0.89698   0.00000  Uiso   1.00
H1050  H     0.61536   0.19686   0.89076   0.00000  Uiso   1.00
H1051  H     0.90802   0.46396   0.84730   0.00000  Uiso   1.00
H1052  H     0.94071   0.45884   0.90547   0.00000  Uiso   1.00
H1053  H     0.51018   0.21409   0.97515   0.00000  Uiso   1.00
H1054  H     0.56234   0.23815   0.95789   0.00000  Uiso   1.00
H1055  H     0.53993   0.13708   0.98748   0.00000  Uiso   1.00
H1056  H     0.59044   0.15046   0.95615   0.00000  Uiso   1.00
H1057  H     0.61536   0.20442   0.69073   0.00000  Uiso   1.00
H1058  H     0.60148   0.14836   0.71654   0.00000  Uiso   1.00
H1059  H     0.56350   0.19636   0.72233   0.00000  Uiso   1.00
H1060  H     0.68821   0.03376   0.79026   0.00000  Uiso   1.00
H1061  H     0.78770   0.46613   0.90345   0.00000  Uiso   1.00
H1062  H     0.81236   0.03443   0.87612   0.00000  Uiso   1.00
H1063  H     0.71316   0.46561   0.76274   0.00000  Uiso   1.00
H1064  H     0.69039   0.15470   0.75774   0.00000  Uiso   1.00
N1065  N     0.75000   0.12623   0.83333   0.00000  Uiso   1.00
N1066  N     0.75000   0.37376   0.83333   0.00000  Uiso   1.00
O1067  O     0.68453   0.28974   0.83334   0.00000  Uiso   1.00
O1068  O     0.97701   0.17380   0.79954   0.00000  Uiso   1.00
O1069  O     0.98135   0.32566   0.87708   0.00000  Uiso   1.00
O1070  O     0.52774   0.19367   0.90466   0.00000  Uiso   1.00
O1071  O     0.81547   0.21026   0.83333   0.00000  Uiso   1.00
O1072  O     0.81547   0.28974   0.83333   0.00000  Uiso   1.00
O1073  O     0.68453   0.21026   0.83334   0.00000  Uiso   1.00
O1074  O     0.75000   0.28973   0.76178   0.00000  Uiso   1.00
O1075  O     0.75000   0.21027   0.90489   0.00000  Uiso   1.00
O1076  O     0.75000   0.28973   0.90489   0.00000  Uiso   1.00
O1077  O     0.75000   0.21027   0.76178   0.00000  Uiso   1.00
O1078  O     0.52036   0.30914   0.77231   0.00000  Uiso   1.00
Zn1079 Zn    0.75000   0.30307   0.83333   0.00000  Uiso   1.00
Zn1080 Zn    0.75000   0.19693   0.83333   0.00000  Uiso   1.00
C1081  C     0.16411   0.74996   0.83276   0.00000  Uiso   1.00
C1082  C     0.22894   0.94765   0.79440   0.00000  Uiso   1.00
C1083  C     0.24982   0.74995   0.73966   0.00000  Uiso   1.00
C1084  C     0.25013   0.75005   0.92700   0.00000  Uiso   1.00
C1085  C     0.25034   0.52647   0.83312   0.00000  Uiso   1.00
C1086  C     0.25043   0.97349   0.83309   0.00000  Uiso   1.00
C1087  C     0.24989   0.74994   0.68851   0.00000  Uiso   1.00
C1088  C     0.25001   0.75008   0.97816   0.00000  Uiso   1.00
C1089  C     0.04538   0.77952   0.80315   0.00000  Uiso   1.00
C1090  C     0.45324   0.71180   0.81705   0.00000  Uiso   1.00
C1091  C     0.45442   0.78916   0.85783   0.00000  Uiso   1.00
C1092  C     0.33606   0.75006   0.83385   0.00000  Uiso   1.00
C1093  C     0.04932   0.72143   0.87050   0.00000  Uiso   1.00
C1094  C     0.09172   0.78011   0.80249   0.00000  Uiso   1.00
C1095  C     0.40683   0.71169   0.81723   0.00000  Uiso   1.00
C1096  C     0.40745   0.78882   0.85538   0.00000  Uiso   1.00
C1097  C     0.09555   0.71997   0.86679   0.00000  Uiso   1.00
C1098  C     0.11637   0.74982   0.83366   0.00000  Uiso   1.00
C1099  C     0.38424   0.75023   0.83543   0.00000  Uiso   1.00
C1100  C     0.02452   0.75037   0.83751   0.00000  Uiso   1.00
C1101  C     0.47636   0.75006   0.83845   0.00000  Uiso   1.00
C1102  C     0.17856   0.62499   0.77984   0.00000  Uiso   1.00
C1103  C     0.21654   0.60130   0.80799   0.00000  Uiso   1.00
C1104  C     0.29600   0.87480   0.91481   0.00000  Uiso   1.00
C1105  C     0.32135   0.62563   0.88740   0.00000  Uiso   1.00
C1106  C     0.20338   0.87432   0.75225   0.00000  Uiso   1.00
C1107  C     0.01495   0.78833   0.72430   0.00000  Uiso   1.00
C1108  C     0.48073   0.81573   0.69215   0.00000  Uiso   1.00
C1109  C     0.43394   0.81298   0.71310   0.00000  Uiso   1.00
C1110  C     0.46278   0.66093   0.74994   0.00000  Uiso   1.00
C1111  C     0.44357   0.61146   0.74975   0.00000  Uiso   1.00
C1112  C     0.42848   0.59625   0.69674   0.00000  Uiso   1.00
C1113  C     0.45854   0.86403   0.89754   0.00000  Uiso   1.00
C1114  C     0.27204   0.89862   0.87141   0.00000  Uiso   1.00
C1115  C     0.44312   0.89826   0.85615   0.00000  Uiso   1.00
C1116  C     0.41850   0.93974   0.87800   0.00000  Uiso   1.00
C1117  C     0.04095   0.70617   0.95469   0.00000  Uiso   1.00
C1118  C     0.06472   0.66506   0.98072   0.00000  Uiso   1.00
C1119  C     0.08759   0.67965   0.69731   0.00000  Uiso   1.00
C1120  C     0.28357   0.60165   0.85874   0.00000  Uiso   1.00
C1121  C     0.22814   0.89837   0.79517   0.00000  Uiso   1.00
C1122  C     0.21609   0.55199   0.80855   0.00000  Uiso   1.00
C1123  C     0.27179   0.94793   0.87186   0.00000  Uiso   1.00
C1124  C     0.28439   0.55236   0.85786   0.00000  Uiso   1.00
H1125  H     0.10829   0.80329   0.77703   0.00000  Uiso   1.00
H1126  H     0.16177   0.60078   0.75241   0.00000  Uiso   1.00
H1127  H     0.15299   0.63608   0.80647   0.00000  Uiso   1.00
H1128  H     0.31638   0.84541   0.90184   0.00000  Uiso   1.00
H1129  H     0.31947   0.89890   0.93529   0.00000  Uiso   1.00
H1130  H     0.27140   0.86321   0.94227   0.00000  Uiso   1.00
H1131  H     0.30951   0.65578   0.90887   0.00000  Uiso   1.00
H1132  H     0.33763   0.60190   0.91549   0.00000  Uiso   1.00
H1133  H     0.34738   0.63605   0.86116   0.00000  Uiso   1.00
H1134  H     0.18356   0.84467   0.76551   0.00000  Uiso   1.00
H1135  H     0.17913   0.89820   0.73289   0.00000  Uiso   1.00
H1136  H     0.38836   0.68203   0.80214   0.00000  Uiso   1.00
H1137  H     0.22738   0.86304   0.72391   0.00000  Uiso   1.00
H1138  H     0.00291   0.75165   0.72674   0.00000  Uiso   1.00
H1139  H     0.04736   0.78869   0.70505   0.00000  Uiso   1.00
H1140  H     0.49133   0.85282   0.69010   0.00000  Uiso   1.00
H1141  H     0.47951   0.80109   0.98674   0.00000  Uiso   1.00
H1142  H     0.42273   0.77611   0.71517   0.00000  Uiso   1.00
H1143  H     0.40994   0.83232   0.68806   0.00000  Uiso   1.00
H1144  H     0.43378   0.82881   0.75120   0.00000  Uiso   1.00
H1145  H     0.49262   0.66096   0.72654   0.00000  Uiso   1.00
H1146  H     0.43848   0.68551   0.73128   0.00000  Uiso   1.00
H1147  H     0.38823   0.81777   0.86877   0.00000  Uiso   1.00
H1148  H     0.46958   0.58692   0.76462   0.00000  Uiso   1.00
H1149  H     0.41456   0.60970   0.77449   0.00000  Uiso   1.00
H1150  H     0.40169   0.61969   0.68156   0.00000  Uiso   1.00
H1151  H     0.41509   0.56015   0.69773   0.00000  Uiso   1.00
H1152  H     0.45717   0.59698   0.67143   0.00000  Uiso   1.00
H1153  H     0.48298   0.88271   0.92288   0.00000  Uiso   1.00
H1154  H     0.43131   0.85340   0.92239   0.00000  Uiso   1.00
H1155  H     0.47284   0.91111   0.83646   0.00000  Uiso   1.00
H1156  H     0.42060   0.88072   0.82785   0.00000  Uiso   1.00
H1157  H     0.38817   0.92772   0.89698   0.00000  Uiso   1.00
H1158  H     0.11536   0.69686   0.89076   0.00000  Uiso   1.00
H1159  H     0.40802   0.96396   0.84730   0.00000  Uiso   1.00
H1160  H     0.44071   0.95884   0.90547   0.00000  Uiso   1.00
H1161  H     0.01018   0.71409   0.97515   0.00000  Uiso   1.00
H1162  H     0.06234   0.73815   0.95789   0.00000  Uiso   1.00
H1163  H     0.03993   0.63708   0.98748   0.00000  Uiso   1.00
H1164  H     0.09044   0.65046   0.95615   0.00000  Uiso   1.00
H1165  H     0.11536   0.70442   0.69073   0.00000  Uiso   1.00
H1166  H     0.10148   0.64836   0.71654   0.00000  Uiso   1.00
H1167  H     0.06350   0.69636   0.72233   0.00000  Uiso   1.00
H1168  H     0.18821   0.53376   0.79026   0.00000  Uiso   1.00
H1169  H     0.28770   0.96613   0.90345   0.00000  Uiso   1.00
H1170  H     0.31236   0.53443   0.87612   0.00000  Uiso   1.00
H1171  H     0.21316   0.96561   0.76274   0.00000  Uiso   1.00
H1172  H     0.19039   0.65470   0.75774   0.00000  Uiso   1.00
N1173  N     0.25000   0.62623   0.83333   0.00000  Uiso   1.00
N1174  N     0.25000   0.87376   0.83333   0.00000  Uiso   1.00
O1175  O     0.18453   0.78974   0.83334   0.00000  Uiso   1.00
O1176  O     0.47701   0.67380   0.79954   0.00000  Uiso   1.00
O1177  O     0.48135   0.82566   0.87708   0.00000  Uiso   1.00
O1178  O     0.02774   0.69367   0.90466   0.00000  Uiso   1.00
O1179  O     0.31547   0.71026   0.83333   0.00000  Uiso   1.00
O1180  O     0.31547   0.78974   0.83333   0.00000  Uiso   1.00
O1181  O     0.18453   0.71026   0.83334   0.00000  Uiso   1.00
O1182  O     0.25000   0.78973   0.76178   0.00000  Uiso   1.00
O1183  O     0.25000   0.71027   0.90489   0.00000  Uiso   1.00
O1184  O     0.25000   0.78973   0.90489   0.00000  Uiso   1.00
O1185  O     0.25000   0.71027   0.76178   0.00000  Uiso   1.00
O1186  O     0.02036   0.80914   0.77231   0.00000  Uiso   1.00
Zn1187 Zn    0.25000   0.80307   0.83333   0.00000  Uiso   1.00
Zn1188 Zn    0.25000   0.69693   0.83333   0.00000  Uiso   1.00
C1189  C     0.66411   0.74996   0.83276   0.00000  Uiso   1.00
C1190  C     0.72894   0.94765   0.79440   0.00000  Uiso   1.00
C1191  C     0.74982   0.74995   0.73966   0.00000  Uiso   1.00
C1192  C     0.75013   0.75005   0.92700   0.00000  Uiso   1.00
C1193  C     0.75034   0.52647   0.83312   0.00000  Uiso   1.00
C1194  C     0.75043   0.97349   0.83309   0.00000  Uiso   1.00
C1195  C     0.74989   0.74994   0.68851   0.00000  Uiso   1.00
C1196  C     0.75001   0.75008   0.97816   0.00000  Uiso   1.00
C1197  C     0.54538   0.77952   0.80315   0.00000  Uiso   1.00
C1198  C     0.95324   0.71180   0.81705   0.00000  Uiso   1.00
C1199  C     0.95442   0.78916   0.85783   0.00000  Uiso   1.00
C1200  C     0.83606   0.75006   0.83385   0.00000  Uiso   1.00
C1201  C     0.54932   0.72143   0.87050   0.00000  Uiso   1.00
C1202  C     0.59172   0.78011   0.80249   0.00000  Uiso   1.00
C1203  C     0.90683   0.71169   0.81723   0.00000  Uiso   1.00
C1204  C     0.90745   0.78882   0.85538   0.00000  Uiso   1.00
C1205  C     0.59555   0.71997   0.86679   0.00000  Uiso   1.00
C1206  C     0.61637   0.74982   0.83366   0.00000  Uiso   1.00
C1207  C     0.88424   0.75023   0.83543   0.00000  Uiso   1.00
C1208  C     0.52452   0.75037   0.83751   0.00000  Uiso   1.00
C1209  C     0.97636   0.75006   0.83845   0.00000  Uiso   1.00
C1210  C     0.67856   0.62499   0.77984   0.00000  Uiso   1.00
C1211  C     0.71654   0.60130   0.80799   0.00000  Uiso   1.00
C1212  C     0.79600   0.87480   0.91481   0.00000  Uiso   1.00
C1213  C     0.82135   0.62563   0.88740   0.00000  Uiso   1.00
C1214  C     0.70338   0.87432   0.75225   0.00000  Uiso   1.00
C1215  C     0.51495   0.78833   0.72430   0.00000  Uiso   1.00
C1216  C     0.98073   0.81573   0.69215   0.00000  Uiso   1.00
C1217  C     0.93394   0.81298   0.71310   0.00000  Uiso   1.00
C1218  C     0.96278   0.66093   0.74994   0.00000  Uiso   1.00
C1219  C     0.94357   0.61146   0.74975   0.00000  Uiso   1.00
C1220  C     0.92848   0.59625   0.69674   0.00000  Uiso   1.00
C1221  C     0.95854   0.86403   0.89754   0.00000  Uiso   1.00
C1222  C     0.77204   0.89862   0.87141   0.00000  Uiso   1.00
C1223  C     0.94312   0.89826   0.85615   0.00000  Uiso   1.00
C1224  C     0.91850   0.93974   0.87800   0.00000  Uiso   1.00
C1225  C     0.54095   0.70617   0.95469   0.00000  Uiso   1.00
C1226  C     0.56472   0.66506   0.98072   0.00000  Uiso   1.00
C1227  C     0.58759   0.67965   0.69731   0.00000  Uiso   1.00
C1228  C     0.78357   0.60165   0.85874   0.00000  Uiso   1.00
C1229  C     0.72814   0.89837   0.79517   0.00000  Uiso   1.00
C1230  C     0.71609   0.55199   0.80855   0.00000  Uiso   1.00
C1231  C     0.77179   0.94793   0.87186   0.00000  Uiso   1.00
C1232  C     0.78439   0.55236   0.85786   0.00000  Uiso   1.00
H1233  H     0.60829   0.80329   0.77703   0.00000  Uiso   1.00
H1234  H     0.66177   0.60078   0.75241   0.00000  Uiso   1.00
H1235  H     0.65299   0.63608   0.80647   0.00000  Uiso   1.00
H1236  H     0.81638   0.84541   0.90184   0.00000  Uiso   1.00
H1237  H     0.81947   0.89890   0.93529   0.00000  Uiso   1.00
H1238  H     0.77140   0.86321   0.94227   0.00000  Uiso   1.00
H1239  H     0.80951   0.65578   0.90887   0.00000  Uiso   1.00
H1240  H     0.83763   0.60190   0.91549   0.00000  Uiso   1.00
H1241  H     0.84738   0.63605   0.86116   0.00000  Uiso   1.00
H1242  H     0.68356   0.84467   0.76551   0.00000  Uiso   1.00
H1243  H     0.67913   0.89820   0.73289   0.00000  Uiso   1.00
H1244  H     0.88836   0.68203   0.80214   0.00000  Uiso   1.00
H1245  H     0.72738   0.86304   0.72391   0.00000  Uiso   1.00
H1246  H     0.50291   0.75165   0.72674   0.00000  Uiso   1.00
H1247  H     0.54736   0.78869   0.70505   0.00000  Uiso   1.00
H1248  H     0.99133   0.85282   0.69010   0.00000  Uiso   1.00
H1249  H     0.97951   0.80109   0.98674   0.00000  Uiso   1.00
H1250  H     0.92273   0.77611   0.71517   0.00000  Uiso   1.00
H1251  H     0.90994   0.83232   0.68806   0.00000  Uiso   1.00
H1252  H     0.93378   0.82881   0.75120   0.00000  Uiso   1.00
H1253  H     0.99262   0.66096   0.72654   0.00000  Uiso   1.00
H1254  H     0.93848   0.68551   0.73128   0.00000  Uiso   1.00
H1255  H     0.88823   0.81777   0.86877   0.00000  Uiso   1.00
H1256  H     0.96958   0.58692   0.76462   0.00000  Uiso   1.00
H1257  H     0.91456   0.60970   0.77449   0.00000  Uiso   1.00
H1258  H     0.90169   0.61969   0.68156   0.00000  Uiso   1.00
H1259  H     0.91509   0.56015   0.69773   0.00000  Uiso   1.00
H1260  H     0.95717   0.59698   0.67143   0.00000  Uiso   1.00
H1261  H     0.98298   0.88271   0.92288   0.00000  Uiso   1.00
H1262  H     0.93131   0.85340   0.92239   0.00000  Uiso   1.00
H1263  H     0.97284   0.91111   0.83646   0.00000  Uiso   1.00
H1264  H     0.92060   0.88072   0.82785   0.00000  Uiso   1.00
H1265  H     0.88817   0.92772   0.89698   0.00000  Uiso   1.00
H1266  H     0.61536   0.69686   0.89076   0.00000  Uiso   1.00
H1267  H     0.90802   0.96396   0.84730   0.00000  Uiso   1.00
H1268  H     0.94071   0.95884   0.90547   0.00000  Uiso   1.00
H1269  H     0.51018   0.71409   0.97515   0.00000  Uiso   1.00
H1270  H     0.56234   0.73815   0.95789   0.00000  Uiso   1.00
H1271  H     0.53993   0.63708   0.98748   0.00000  Uiso   1.00
H1272  H     0.59044   0.65046   0.95615   0.00000  Uiso   1.00
H1273  H     0.61536   0.70442   0.69073   0.00000  Uiso   1.00
H1274  H     0.60148   0.64836   0.71654   0.00000  Uiso   1.00
H1275  H     0.56350   0.69636   0.72233   0.00000  Uiso   1.00
H1276  H     0.68821   0.53376   0.79026   0.00000  Uiso   1.00
H1277  H     0.78770   0.96613   0.90345   0.00000  Uiso   1.00
H1278  H     0.81236   0.53443   0.87612   0.00000  Uiso   1.00
H1279  H     0.71316   0.96561   0.76274   0.00000  Uiso   1.00
H1280  H     0.69039   0.65470   0.75774   0.00000  Uiso   1.00
N1281  N     0.75000   0.62623   0.83333   0.00000  Uiso   1.00
N1282  N     0.75000   0.87376   0.83333   0.00000  Uiso   1.00
O1283  O     0.68453   0.78974   0.83334   0.00000  Uiso   1.00
O1284  O     0.97701   0.67380   0.79954   0.00000  Uiso   1.00
O1285  O     0.98135   0.82566   0.87708   0.00000  Uiso   1.00
O1286  O     0.52774   0.69367   0.90466   0.00000  Uiso   1.00
O1287  O     0.81547   0.71026   0.83333   0.00000  Uiso   1.00
O1288  O     0.81547   0.78974   0.83333   0.00000  Uiso   1.00
O1289  O     0.68453   0.71026   0.83334   0.00000  Uiso   1.00
O1290  O     0.75000   0.78973   0.76178   0.00000  Uiso   1.00
O1291  O     0.75000   0.71027   0.90489   0.00000  Uiso   1.00
O1292  O     0.75000   0.78973   0.90489   0.00000  Uiso   1.00
O1293  O     0.75000   0.71027   0.76178   0.00000  Uiso   1.00
O1294  O     0.52036   0.80914   0.77231   0.00000  Uiso   1.00
Zn1295 Zn    0.75000   0.80307   0.83333   0.00000  Uiso   1.00
Zn1296 Zn    0.75000   0.69693   0.83333   0.00000  Uiso   1.00
loop_
_geom_bond_atom_site_label_1
_geom_bond_atom_site_label_2
_geom_bond_distance
_geom_bond_site_symmetry_2
_ccdc_geom_bond_type
C1     C18     1.428   .     S
C1     O95     1.293   .     A
C1     O101    1.293   .     A
C2     C41     1.414   .     A
C2     C6      1.401   .     A
C2     H91     1.082   .     S
C3     O105    1.283   .     A
C3     C7      1.362   .     S
C3     O102    1.282   .     A
C4     C8      1.362   .     S
C4     O103    1.282   .     A
C4     O104    1.283   .     A
C5     C42     1.401   .     A
C5     C44     1.401   .     A
C5     C222    1.520   1_545 S
C6     C43     1.402   .     A
C6     C221    1.520   .     S
C7     C872    1.163   1_554 S
C8     C439    1.163   .     S
C9     O106    1.383   .     S
C9     C14     1.386   .     A
C9     C20     1.404   .     A
C10    C21     1.403   .     A
C10    O96     1.391   .     S
C10    C15     1.387   .     A
C11    C21     1.407   .     A
C11    C16     1.403   .     A
C11    O97     1.403   .     S
C12    O99     1.296   .     A
C12    C19     1.439   .     S
C12    O100    1.295   .     A
C13    O98     1.388   .     S
C13    C20     1.402   .     A
C13    C17     1.390   .     A
C14    C18     1.395   .     A
C14    H45     1.084   .     S
C15    C19     1.392   .     A
C15    H56     1.081   .     S
C16    H67     1.078   .     S
C16    C19     1.398   .     A
C17    C18     1.394   .     A
C17    H78     1.082   .     S
C20    C129    1.441   1_455 S
C21    C128    1.441   .     S
C22    H47     1.109   .     S
C22    H46     1.111   .     S
C22    H92     1.103   .     S
C22    C23     1.500   .     S
C23    C42     1.415   .     A
C23    N93     1.382   .     A
C24    H50     1.108   .     S
C24    H48     1.103   .     S
C24    C34     1.502   .     S
C24    H49     1.111   .     S
C25    H53     1.107   .     S
C25    H51     1.102   .     S
C25    H52     1.111   .     S
C25    C40     1.502   .     S
C26    H55     1.111   .     S
C26    H54     1.103   .     S
C26    H57     1.109   .     S
C26    C41     1.502   .     S
C27    O106    1.412   .     S
C27    H59     1.113   .     S
C27    H58     1.114   .     S
C27    C136    1.528   1_455 S
C28    C29     1.528   .     S
C28    H60     1.111   .     S
C28    C135    1.528   .     S
C28    H925    1.111   1_554 S
C29    H63     1.110   .     S
C29    H64     1.110   .     S
C29    H62     1.111   .     S
C30    C31     1.530   .     S
C30    O96     1.419   .     S
C30    H66     1.117   .     S
C30    H65     1.107   .     S
C31    C32     1.526   .     S
C31    H68     1.112   .     S
C31    H69     1.110   .     S
C32    H72     1.111   .     S
C32    H71     1.110   .     S
C32    H70     1.111   .     S
C33    H73     1.111   .     S
C33    C35     1.536   .     S
C33    O97     1.414   .     S
C33    H74     1.111   .     S
C34    C43     1.414   .     A
C34    N94     1.383   .     A
C35    C36     1.526   .     S
C35    H75     1.112   .     S
C35    H76     1.109   .     S
C36    H77     1.110   .     S
C36    H80     1.111   .     S
C36    H79     1.110   .     S
C37    H81     1.110   .     S
C37    O98     1.419   .     S
C37    C38     1.531   .     S
C37    H82     1.118   .     S
C38    H83     1.111   .     S
C38    H84     1.110   .     S
C38    C471    1.527   .     S
C39    H87     1.108   .     S
C39    H85     1.111   .     S
C39    H86     1.108   .     S
C39    C902    1.527   1_554 S
C40    N93     1.383   .     A
C40    C44     1.414   .     A
C41    N94     1.382   .     A
C42    H88     1.082   .     S
C43    H89     1.082   .     S
C44    H90     1.082   .     S
H61    C460    1.111   .     S
N93    Zn108   2.028   .     S
N94    Zn107   2.028   .     S
O95    Zn107   1.993   .     S
O99    Zn108   1.993   .     S
O100   Zn107   1.994   .     S
O101   Zn108   1.994   .     S
O102   Zn107   1.941   .     S
O103   Zn108   1.941   .     S
O104   Zn107   1.944   .     S
O105   Zn108   1.944   .     S
C109   C126    1.428   .     S
C109   O203    1.293   .     A
C109   O209    1.293   .     A
C110   C149    1.414   .     A
C110   C114    1.401   .     A
C110   H199    1.082   .     S
C111   O213    1.283   .     A
C111   C115    1.362   .     S
C111   O210    1.282   .     A
C112   C116    1.362   .     S
C112   O211    1.282   .     A
C112   O212    1.283   .     A
C113   C150    1.401   .     A
C113   C152    1.401   .     A
C113   C330    1.520   1_545 S
C114   C151    1.402   .     A
C114   C329    1.520   .     S
C115   C980    1.163   1_554 S
C116   C547    1.163   .     S
C117   O214    1.383   .     S
C117   C122    1.386   .     A
C117   C128    1.404   .     A
C118   C129    1.403   .     A
C118   O204    1.391   .     S
C118   C123    1.387   .     A
C119   C129    1.407   .     A
C119   C124    1.403   .     A
C119   O205    1.403   .     S
C120   O207    1.296   .     A
C120   C127    1.439   .     S
C120   O208    1.295   .     A
C121   O206    1.388   .     S
C121   C128    1.402   .     A
C121   C125    1.390   .     A
C122   C126    1.395   .     A
C122   H153    1.084   .     S
C123   C127    1.392   .     A
C123   H164    1.081   .     S
C124   H175    1.078   .     S
C124   C127    1.398   .     A
C125   C126    1.394   .     A
C125   H186    1.082   .     S
C129   C20     1.441   1_655 S
C130   H155    1.109   .     S
C130   H154    1.111   .     S
C130   H200    1.103   .     S
C130   C131    1.500   .     S
C131   C150    1.415   .     A
C131   N201    1.382   .     A
C132   H158    1.108   .     S
C132   H156    1.103   .     S
C132   C142    1.502   .     S
C132   H157    1.111   .     S
C133   H161    1.107   .     S
C133   H159    1.102   .     S
C133   H160    1.111   .     S
C133   C148    1.502   .     S
C134   H163    1.111   .     S
C134   H162    1.103   .     S
C134   H165    1.109   .     S
C134   C149    1.502   .     S
C135   O214    1.412   .     S
C135   H167    1.113   .     S
C135   H166    1.114   .     S
C136   C137    1.528   .     S
C136   H168    1.111   .     S
C136   C27     1.528   1_655 S
C136   H1033   1.111   1_554 S
C137   H171    1.110   .     S
C137   H172    1.110   .     S
C137   H170    1.111   .     S
C138   C139    1.530   .     S
C138   O204    1.419   .     S
C138   H174    1.117   .     S
C138   H173    1.107   .     S
C139   C140    1.526   .     S
C139   H176    1.112   .     S
C139   H177    1.110   .     S
C140   H180    1.111   .     S
C140   H179    1.110   .     S
C140   H178    1.111   .     S
C141   H181    1.111   .     S
C141   C143    1.536   .     S
C141   O205    1.414   .     S
C141   H182    1.111   .     S
C142   C151    1.414   .     A
C142   N202    1.383   .     A
C143   C144    1.526   .     S
C143   H183    1.112   .     S
C143   H184    1.109   .     S
C144   H185    1.110   .     S
C144   H188    1.111   .     S
C144   H187    1.110   .     S
C145   H189    1.110   .     S
C145   O206    1.419   .     S
C145   C146    1.531   .     S
C145   H190    1.118   .     S
C146   H191    1.111   .     S
C146   H192    1.110   .     S
C146   C579    1.527   .     S
C147   H195    1.108   .     S
C147   H193    1.111   .     S
C147   H194    1.108   .     S
C147   C1010   1.527   1_554 S
C148   N201    1.383   .     A
C148   C152    1.414   .     A
C149   N202    1.382   .     A
C150   H196    1.082   .     S
C151   H197    1.082   .     S
C152   H198    1.082   .     S
H169   C568    1.111   .     S
N201   Zn216   2.028   .     S
N202   Zn215   2.028   .     S
O203   Zn215   1.993   .     S
O207   Zn216   1.993   .     S
O208   Zn215   1.994   .     S
O209   Zn216   1.994   .     S
O210   Zn215   1.941   .     S
O211   Zn216   1.941   .     S
O212   Zn215   1.944   .     S
O213   Zn216   1.944   .     S
C217   C234    1.428   .     S
C217   O311    1.293   .     A
C217   O317    1.293   .     A
C218   C257    1.414   .     A
C218   C222    1.401   .     A
C218   H307    1.082   .     S
C219   O321    1.283   .     A
C219   C223    1.362   .     S
C219   O318    1.282   .     A
C220   C224    1.362   .     S
C220   O319    1.282   .     A
C220   O320    1.283   .     A
C221   C258    1.401   .     A
C221   C260    1.401   .     A
C222   C259    1.402   .     A
C222   C5      1.520   1_565 S
C223   C1088   1.163   1_554 S
C224   C655    1.163   .     S
C225   O322    1.383   .     S
C225   C230    1.386   .     A
C225   C236    1.404   .     A
C226   C237    1.403   .     A
C226   O312    1.391   .     S
C226   C231    1.387   .     A
C227   C237    1.407   .     A
C227   C232    1.403   .     A
C227   O313    1.403   .     S
C228   O315    1.296   .     A
C228   C235    1.439   .     S
C228   O316    1.295   .     A
C229   O314    1.388   .     S
C229   C236    1.402   .     A
C229   C233    1.390   .     A
C230   C234    1.395   .     A
C230   H261    1.084   .     S
C231   C235    1.392   .     A
C231   H272    1.081   .     S
C232   H283    1.078   .     S
C232   C235    1.398   .     A
C233   C234    1.394   .     A
C233   H294    1.082   .     S
C236   C345    1.441   1_455 S
C237   C344    1.441   .     S
C238   H263    1.109   .     S
C238   H262    1.111   .     S
C238   H308    1.103   .     S
C238   C239    1.500   .     S
C239   C258    1.415   .     A
C239   N309    1.382   .     A
C240   H266    1.108   .     S
C240   H264    1.103   .     S
C240   C250    1.502   .     S
C240   H265    1.111   .     S
C241   H269    1.107   .     S
C241   H267    1.102   .     S
C241   H268    1.111   .     S
C241   C256    1.502   .     S
C242   H271    1.111   .     S
C242   H270    1.103   .     S
C242   H273    1.109   .     S
C242   C257    1.502   .     S
C243   O322    1.412   .     S
C243   H275    1.113   .     S
C243   H274    1.114   .     S
C243   C352    1.528   1_455 S
C244   C245    1.528   .     S
C244   H276    1.111   .     S
C244   C351    1.528   .     S
C244   H1141   1.111   1_554 S
C245   H279    1.110   .     S
C245   H280    1.110   .     S
C245   H278    1.111   .     S
C246   C247    1.530   .     S
C246   O312    1.419   .     S
C246   H282    1.117   .     S
C246   H281    1.107   .     S
C247   C248    1.526   .     S
C247   H284    1.112   .     S
C247   H285    1.110   .     S
C248   H288    1.111   .     S
C248   H287    1.110   .     S
C248   H286    1.111   .     S
C249   H289    1.111   .     S
C249   C251    1.536   .     S
C249   O313    1.414   .     S
C249   H290    1.111   .     S
C250   C259    1.414   .     A
C250   N310    1.383   .     A
C251   C252    1.526   .     S
C251   H291    1.112   .     S
C251   H292    1.109   .     S
C252   H293    1.110   .     S
C252   H296    1.111   .     S
C252   H295    1.110   .     S
C253   H297    1.110   .     S
C253   O314    1.419   .     S
C253   C254    1.531   .     S
C253   H298    1.118   .     S
C254   H299    1.111   .     S
C254   H300    1.110   .     S
C254   C687    1.527   .     S
C255   H303    1.108   .     S
C255   H301    1.111   .     S
C255   H302    1.108   .     S
C255   C1118   1.527   1_554 S
C256   N309    1.383   .     A
C256   C260    1.414   .     A
C257   N310    1.382   .     A
C258   H304    1.082   .     S
C259   H305    1.082   .     S
C260   H306    1.082   .     S
H277   C676    1.111   .     S
N309   Zn324   2.028   .     S
N310   Zn323   2.028   .     S
O311   Zn323   1.993   .     S
O315   Zn324   1.993   .     S
O316   Zn323   1.994   .     S
O317   Zn324   1.994   .     S
O318   Zn323   1.941   .     S
O319   Zn324   1.941   .     S
O320   Zn323   1.944   .     S
O321   Zn324   1.944   .     S
C325   C342    1.428   .     S
C325   O419    1.293   .     A
C325   O425    1.293   .     A
C326   C365    1.414   .     A
C326   C330    1.401   .     A
C326   H415    1.082   .     S
C327   O429    1.283   .     A
C327   C331    1.362   .     S
C327   O426    1.282   .     A
C328   C332    1.362   .     S
C328   O427    1.282   .     A
C328   O428    1.283   .     A
C329   C366    1.401   .     A
C329   C368    1.401   .     A
C330   C367    1.402   .     A
C330   C113    1.520   1_565 S
C331   C1196   1.163   1_554 S
C332   C763    1.163   .     S
C333   O430    1.383   .     S
C333   C338    1.386   .     A
C333   C344    1.404   .     A
C334   C345    1.403   .     A
C334   O420    1.391   .     S
C334   C339    1.387   .     A
C335   C345    1.407   .     A
C335   C340    1.403   .     A
C335   O421    1.403   .     S
C336   O423    1.296   .     A
C336   C343    1.439   .     S
C336   O424    1.295   .     A
C337   O422    1.388   .     S
C337   C344    1.402   .     A
C337   C341    1.390   .     A
C338   C342    1.395   .     A
C338   H369    1.084   .     S
C339   C343    1.392   .     A
C339   H380    1.081   .     S
C340   H391    1.078   .     S
C340   C343    1.398   .     A
C341   C342    1.394   .     A
C341   H402    1.082   .     S
C345   C236    1.441   1_655 S
C346   H371    1.109   .     S
C346   H370    1.111   .     S
C346   H416    1.103   .     S
C346   C347    1.500   .     S
C347   C366    1.415   .     A
C347   N417    1.382   .     A
C348   H374    1.108   .     S
C348   H372    1.103   .     S
C348   C358    1.502   .     S
C348   H373    1.111   .     S
C349   H377    1.107   .     S
C349   H375    1.102   .     S
C349   H376    1.111   .     S
C349   C364    1.502   .     S
C350   H379    1.111   .     S
C350   H378    1.103   .     S
C350   H381    1.109   .     S
C350   C365    1.502   .     S
C351   O430    1.412   .     S
C351   H383    1.113   .     S
C351   H382    1.114   .     S
C352   C353    1.528   .     S
C352   H384    1.111   .     S
C352   C243    1.528   1_655 S
C352   H1249   1.111   1_554 S
C353   H387    1.110   .     S
C353   H388    1.110   .     S
C353   H386    1.111   .     S
C354   C355    1.530   .     S
C354   O420    1.419   .     S
C354   H390    1.117   .     S
C354   H389    1.107   .     S
C355   C356    1.526   .     S
C355   H392    1.112   .     S
C355   H393    1.110   .     S
C356   H396    1.111   .     S
C356   H395    1.110   .     S
C356   H394    1.111   .     S
C357   H397    1.111   .     S
C357   C359    1.536   .     S
C357   O421    1.414   .     S
C357   H398    1.111   .     S
C358   C367    1.414   .     A
C358   N418    1.383   .     A
C359   C360    1.526   .     S
C359   H399    1.112   .     S
C359   H400    1.109   .     S
C360   H401    1.110   .     S
C360   H404    1.111   .     S
C360   H403    1.110   .     S
C361   H405    1.110   .     S
C361   O422    1.419   .     S
C361   C362    1.531   .     S
C361   H406    1.118   .     S
C362   H407    1.111   .     S
C362   H408    1.110   .     S
C362   C795    1.527   .     S
C363   H411    1.108   .     S
C363   H409    1.111   .     S
C363   H410    1.108   .     S
C363   C1226   1.527   1_554 S
C364   N417    1.383   .     A
C364   C368    1.414   .     A
C365   N418    1.382   .     A
C366   H412    1.082   .     S
C367   H413    1.082   .     S
C368   H414    1.082   .     S
H385   C784    1.111   .     S
N417   Zn432   2.028   .     S
N418   Zn431   2.028   .     S
O419   Zn431   1.993   .     S
O423   Zn432   1.993   .     S
O424   Zn431   1.994   .     S
O425   Zn432   1.994   .     S
O426   Zn431   1.941   .     S
O427   Zn432   1.941   .     S
O428   Zn431   1.944   .     S
O429   Zn432   1.944   .     S
C433   C450    1.428   .     S
C433   O527    1.293   .     A
C433   O533    1.293   .     A
C434   C473    1.414   .     A
C434   C438    1.401   .     A
C434   H523    1.082   .     S
C435   O537    1.283   .     A
C435   C439    1.362   .     S
C435   O534    1.282   .     A
C436   C440    1.362   .     S
C436   O535    1.282   .     A
C436   O536    1.283   .     A
C437   C474    1.401   .     A
C437   C476    1.401   .     A
C437   C654    1.520   1_545 S
C438   C475    1.402   .     A
C438   C653    1.520   .     S
C440   C871    1.163   .     S
C441   O538    1.383   .     S
C441   C446    1.386   .     A
C441   C452    1.404   .     A
C442   C453    1.403   .     A
C442   O528    1.391   .     S
C442   C447    1.387   .     A
C443   C453    1.407   .     A
C443   C448    1.403   .     A
C443   O529    1.403   .     S
C444   O531    1.296   .     A
C444   C451    1.439   .     S
C444   O532    1.295   .     A
C445   O530    1.388   .     S
C445   C452    1.402   .     A
C445   C449    1.390   .     A
C446   C450    1.395   .     A
C446   H477    1.084   .     S
C447   C451    1.392   .     A
C447   H488    1.081   .     S
C448   H499    1.078   .     S
C448   C451    1.398   .     A
C449   C450    1.394   .     A
C449   H510    1.082   .     S
C452   C561    1.441   1_455 S
C453   C560    1.441   .     S
C454   H479    1.109   .     S
C454   H478    1.111   .     S
C454   H524    1.103   .     S
C454   C455    1.500   .     S
C455   C474    1.415   .     A
C455   N525    1.382   .     A
C456   H482    1.108   .     S
C456   H480    1.103   .     S
C456   C466    1.502   .     S
C456   H481    1.111   .     S
C457   H485    1.107   .     S
C457   H483    1.102   .     S
C457   H484    1.111   .     S
C457   C472    1.502   .     S
C458   H487    1.111   .     S
C458   H486    1.103   .     S
C458   H489    1.109   .     S
C458   C473    1.502   .     S
C459   O538    1.412   .     S
C459   H491    1.113   .     S
C459   H490    1.114   .     S
C459   C568    1.528   1_455 S
C460   C461    1.528   .     S
C460   H492    1.111   .     S
C460   C567    1.528   .     S
C461   H495    1.110   .     S
C461   H496    1.110   .     S
C461   H494    1.111   .     S
C462   C463    1.530   .     S
C462   O528    1.419   .     S
C462   H498    1.117   .     S
C462   H497    1.107   .     S
C463   C464    1.526   .     S
C463   H500    1.112   .     S
C463   H501    1.110   .     S
C464   H504    1.111   .     S
C464   H503    1.110   .     S
C464   H502    1.111   .     S
C465   H505    1.111   .     S
C465   C467    1.536   .     S
C465   O529    1.414   .     S
C465   H506    1.111   .     S
C466   C475    1.414   .     A
C466   N526    1.383   .     A
C467   C468    1.526   .     S
C467   H507    1.112   .     S
C467   H508    1.109   .     S
C468   H509    1.110   .     S
C468   H512    1.111   .     S
C468   H511    1.110   .     S
C469   H513    1.110   .     S
C469   O530    1.419   .     S
C469   C470    1.531   .     S
C469   H514    1.118   .     S
C470   H515    1.111   .     S
C470   H516    1.110   .     S
C470   C903    1.527   .     S
C471   H519    1.108   .     S
C471   H517    1.111   .     S
C471   H518    1.108   .     S
C472   N525    1.383   .     A
C472   C476    1.414   .     A
C473   N526    1.382   .     A
C474   H520    1.082   .     S
C475   H521    1.082   .     S
C476   H522    1.082   .     S
H493   C892    1.111   .     S
N525   Zn540   2.028   .     S
N526   Zn539   2.028   .     S
O527   Zn539   1.993   .     S
O531   Zn540   1.993   .     S
O532   Zn539   1.994   .     S
O533   Zn540   1.994   .     S
O534   Zn539   1.941   .     S
O535   Zn540   1.941   .     S
O536   Zn539   1.944   .     S
O537   Zn540   1.944   .     S
C541   C558    1.428   .     S
C541   O635    1.293   .     A
C541   O641    1.293   .     A
C542   C581    1.414   .     A
C542   C546    1.401   .     A
C542   H631    1.082   .     S
C543   O645    1.283   .     A
C543   C547    1.362   .     S
C543   O642    1.282   .     A
C544   C548    1.362   .     S
C544   O643    1.282   .     A
C544   O644    1.283   .     A
C545   C582    1.401   .     A
C545   C584    1.401   .     A
C545   C762    1.520   1_545 S
C546   C583    1.402   .     A
C546   C761    1.520   .     S
C548   C979    1.163   .     S
C549   O646    1.383   .     S
C549   C554    1.386   .     A
C549   C560    1.404   .     A
C550   C561    1.403   .     A
C550   O636    1.391   .     S
C550   C555    1.387   .     A
C551   C561    1.407   .     A
C551   C556    1.403   .     A
C551   O637    1.403   .     S
C552   O639    1.296   .     A
C552   C559    1.439   .     S
C552   O640    1.295   .     A
C553   O638    1.388   .     S
C553   C560    1.402   .     A
C553   C557    1.390   .     A
C554   C558    1.395   .     A
C554   H585    1.084   .     S
C555   C559    1.392   .     A
C555   H596    1.081   .     S
C556   H607    1.078   .     S
C556   C559    1.398   .     A
C557   C558    1.394   .     A
C557   H618    1.082   .     S
C561   C452    1.441   1_655 S
C562   H587    1.109   .     S
C562   H586    1.111   .     S
C562   H632    1.103   .     S
C562   C563    1.500   .     S
C563   C582    1.415   .     A
C563   N633    1.382   .     A
C564   H590    1.108   .     S
C564   H588    1.103   .     S
C564   C574    1.502   .     S
C564   H589    1.111   .     S
C565   H593    1.107   .     S
C565   H591    1.102   .     S
C565   H592    1.111   .     S
C565   C580    1.502   .     S
C566   H595    1.111   .     S
C566   H594    1.103   .     S
C566   H597    1.109   .     S
C566   C581    1.502   .     S
C567   O646    1.412   .     S
C567   H599    1.113   .     S
C567   H598    1.114   .     S
C568   C569    1.528   .     S
C568   H600    1.111   .     S
C568   C459    1.528   1_655 S
C569   H603    1.110   .     S
C569   H604    1.110   .     S
C569   H602    1.111   .     S
C570   C571    1.530   .     S
C570   O636    1.419   .     S
C570   H606    1.117   .     S
C570   H605    1.107   .     S
C571   C572    1.526   .     S
C571   H608    1.112   .     S
C571   H609    1.110   .     S
C572   H612    1.111   .     S
C572   H611    1.110   .     S
C572   H610    1.111   .     S
C573   H613    1.111   .     S
C573   C575    1.536   .     S
C573   O637    1.414   .     S
C573   H614    1.111   .     S
C574   C583    1.414   .     A
C574   N634    1.383   .     A
C575   C576    1.526   .     S
C575   H615    1.112   .     S
C575   H616    1.109   .     S
C576   H617    1.110   .     S
C576   H620    1.111   .     S
C576   H619    1.110   .     S
C577   H621    1.110   .     S
C577   O638    1.419   .     S
C577   C578    1.531   .     S
C577   H622    1.118   .     S
C578   H623    1.111   .     S
C578   H624    1.110   .     S
C578   C1011   1.527   .     S
C579   H627    1.108   .     S
C579   H625    1.111   .     S
C579   H626    1.108   .     S
C580   N633    1.383   .     A
C580   C584    1.414   .     A
C581   N634    1.382   .     A
C582   H628    1.082   .     S
C583   H629    1.082   .     S
C584   H630    1.082   .     S
H601   C1000   1.111   .     S
N633   Zn648   2.028   .     S
N634   Zn647   2.028   .     S
O635   Zn647   1.993   .     S
O639   Zn648   1.993   .     S
O640   Zn647   1.994   .     S
O641   Zn648   1.994   .     S
O642   Zn647   1.941   .     S
O643   Zn648   1.941   .     S
O644   Zn647   1.944   .     S
O645   Zn648   1.944   .     S
C649   C666    1.428   .     S
C649   O743    1.293   .     A
C649   O749    1.293   .     A
C650   C689    1.414   .     A
C650   C654    1.401   .     A
C650   H739    1.082   .     S
C651   O753    1.283   .     A
C651   C655    1.362   .     S
C651   O750    1.282   .     A
C652   C656    1.362   .     S
C652   O751    1.282   .     A
C652   O752    1.283   .     A
C653   C690    1.401   .     A
C653   C692    1.401   .     A
C654   C691    1.402   .     A
C654   C437    1.520   1_565 S
C656   C1087   1.163   .     S
C657   O754    1.383   .     S
C657   C662    1.386   .     A
C657   C668    1.404   .     A
C658   C669    1.403   .     A
C658   O744    1.391   .     S
C658   C663    1.387   .     A
C659   C669    1.407   .     A
C659   C664    1.403   .     A
C659   O745    1.403   .     S
C660   O747    1.296   .     A
C660   C667    1.439   .     S
C660   O748    1.295   .     A
C661   O746    1.388   .     S
C661   C668    1.402   .     A
C661   C665    1.390   .     A
C662   C666    1.395   .     A
C662   H693    1.084   .     S
C663   C667    1.392   .     A
C663   H704    1.081   .     S
C664   H715    1.078   .     S
C664   C667    1.398   .     A
C665   C666    1.394   .     A
C665   H726    1.082   .     S
C668   C777    1.441   1_455 S
C669   C776    1.441   .     S
C670   H695    1.109   .     S
C670   H694    1.111   .     S
C670   H740    1.103   .     S
C670   C671    1.500   .     S
C671   C690    1.415   .     A
C671   N741    1.382   .     A
C672   H698    1.108   .     S
C672   H696    1.103   .     S
C672   C682    1.502   .     S
C672   H697    1.111   .     S
C673   H701    1.107   .     S
C673   H699    1.102   .     S
C673   H700    1.111   .     S
C673   C688    1.502   .     S
C674   H703    1.111   .     S
C674   H702    1.103   .     S
C674   H705    1.109   .     S
C674   C689    1.502   .     S
C675   O754    1.412   .     S
C675   H707    1.113   .     S
C675   H706    1.114   .     S
C675   C784    1.528   1_455 S
C676   C677    1.528   .     S
C676   H708    1.111   .     S
C676   C783    1.528   .     S
C677   H711    1.110   .     S
C677   H712    1.110   .     S
C677   H710    1.111   .     S
C678   C679    1.530   .     S
C678   O744    1.419   .     S
C678   H714    1.117   .     S
C678   H713    1.107   .     S
C679   C680    1.526   .     S
C679   H716    1.112   .     S
C679   H717    1.110   .     S
C680   H720    1.111   .     S
C680   H719    1.110   .     S
C680   H718    1.111   .     S
C681   H721    1.111   .     S
C681   C683    1.536   .     S
C681   O745    1.414   .     S
C681   H722    1.111   .     S
C682   C691    1.414   .     A
C682   N742    1.383   .     A
C683   C684    1.526   .     S
C683   H723    1.112   .     S
C683   H724    1.109   .     S
C684   H725    1.110   .     S
C684   H728    1.111   .     S
C684   H727    1.110   .     S
C685   H729    1.110   .     S
C685   O746    1.419   .     S
C685   C686    1.531   .     S
C685   H730    1.118   .     S
C686   H731    1.111   .     S
C686   H732    1.110   .     S
C686   C1119   1.527   .     S
C687   H735    1.108   .     S
C687   H733    1.111   .     S
C687   H734    1.108   .     S
C688   N741    1.383   .     A
C688   C692    1.414   .     A
C689   N742    1.382   .     A
C690   H736    1.082   .     S
C691   H737    1.082   .     S
C692   H738    1.082   .     S
H709   C1108   1.111   .     S
N741   Zn756   2.028   .     S
N742   Zn755   2.028   .     S
O743   Zn755   1.993   .     S
O747   Zn756   1.993   .     S
O748   Zn755   1.994   .     S
O749   Zn756   1.994   .     S
O750   Zn755   1.941   .     S
O751   Zn756   1.941   .     S
O752   Zn755   1.944   .     S
O753   Zn756   1.944   .     S
C757   C774    1.428   .     S
C757   O851    1.293   .     A
C757   O857    1.293   .     A
C758   C797    1.414   .     A
C758   C762    1.401   .     A
C758   H847    1.082   .     S
C759   O861    1.283   .     A
C759   C763    1.362   .     S
C759   O858    1.282   .     A
C760   C764    1.362   .     S
C760   O859    1.282   .     A
C760   O860    1.283   .     A
C761   C798    1.401   .     A
C761   C800    1.401   .     A
C762   C799    1.402   .     A
C762   C545    1.520   1_565 S
C764   C1195   1.163   .     S
C765   O862    1.383   .     S
C765   C770    1.386   .     A
C765   C776    1.404   .     A
C766   C777    1.403   .     A
C766   O852    1.391   .     S
C766   C771    1.387   .     A
C767   C777    1.407   .     A
C767   C772    1.403   .     A
C767   O853    1.403   .     S
C768   O855    1.296   .     A
C768   C775    1.439   .     S
C768   O856    1.295   .     A
C769   O854    1.388   .     S
C769   C776    1.402   .     A
C769   C773    1.390   .     A
C770   C774    1.395   .     A
C770   H801    1.084   .     S
C771   C775    1.392   .     A
C771   H812    1.081   .     S
C772   H823    1.078   .     S
C772   C775    1.398   .     A
C773   C774    1.394   .     A
C773   H834    1.082   .     S
C777   C668    1.441   1_655 S
C778   H803    1.109   .     S
C778   H802    1.111   .     S
C778   H848    1.103   .     S
C778   C779    1.500   .     S
C779   C798    1.415   .     A
C779   N849    1.382   .     A
C780   H806    1.108   .     S
C780   H804    1.103   .     S
C780   C790    1.502   .     S
C780   H805    1.111   .     S
C781   H809    1.107   .     S
C781   H807    1.102   .     S
C781   H808    1.111   .     S
C781   C796    1.502   .     S
C782   H811    1.111   .     S
C782   H810    1.103   .     S
C782   H813    1.109   .     S
C782   C797    1.502   .     S
C783   O862    1.412   .     S
C783   H815    1.113   .     S
C783   H814    1.114   .     S
C784   C785    1.528   .     S
C784   H816    1.111   .     S
C784   C675    1.528   1_655 S
C785   H819    1.110   .     S
C785   H820    1.110   .     S
C785   H818    1.111   .     S
C786   C787    1.530   .     S
C786   O852    1.419   .     S
C786   H822    1.117   .     S
C786   H821    1.107   .     S
C787   C788    1.526   .     S
C787   H824    1.112   .     S
C787   H825    1.110   .     S
C788   H828    1.111   .     S
C788   H827    1.110   .     S
C788   H826    1.111   .     S
C789   H829    1.111   .     S
C789   C791    1.536   .     S
C789   O853    1.414   .     S
C789   H830    1.111   .     S
C790   C799    1.414   .     A
C790   N850    1.383   .     A
C791   C792    1.526   .     S
C791   H831    1.112   .     S
C791   H832    1.109   .     S
C792   H833    1.110   .     S
C792   H836    1.111   .     S
C792   H835    1.110   .     S
C793   H837    1.110   .     S
C793   O854    1.419   .     S
C793   C794    1.531   .     S
C793   H838    1.118   .     S
C794   H839    1.111   .     S
C794   H840    1.110   .     S
C794   C1227   1.527   .     S
C795   H843    1.108   .     S
C795   H841    1.111   .     S
C795   H842    1.108   .     S
C796   N849    1.383   .     A
C796   C800    1.414   .     A
C797   N850    1.382   .     A
C798   H844    1.082   .     S
C799   H845    1.082   .     S
C800   H846    1.082   .     S
H817   C1216   1.111   .     S
N849   Zn864   2.028   .     S
N850   Zn863   2.028   .     S
O851   Zn863   1.993   .     S
O855   Zn864   1.993   .     S
O856   Zn863   1.994   .     S
O857   Zn864   1.994   .     S
O858   Zn863   1.941   .     S
O859   Zn864   1.941   .     S
O860   Zn863   1.944   .     S
O861   Zn864   1.944   .     S
C865   C882    1.428   .     S
C865   O959    1.293   .     A
C865   O965    1.293   .     A
C866   C905    1.414   .     A
C866   C870    1.401   .     A
C866   H955    1.082   .     S
C867   O969    1.283   .     A
C867   C871    1.362   .     S
C867   O966    1.282   .     A
C868   C872    1.362   .     S
C868   O967    1.282   .     A
C868   O968    1.283   .     A
C869   C906    1.401   .     A
C869   C908    1.401   .     A
C869   C1086   1.520   1_545 S
C870   C907    1.402   .     A
C870   C1085   1.520   .     S
C872   C7      1.163   1_556 S
C873   O970    1.383   .     S
C873   C878    1.386   .     A
C873   C884    1.404   .     A
C874   C885    1.403   .     A
C874   O960    1.391   .     S
C874   C879    1.387   .     A
C875   C885    1.407   .     A
C875   C880    1.403   .     A
C875   O961    1.403   .     S
C876   O963    1.296   .     A
C876   C883    1.439   .     S
C876   O964    1.295   .     A
C877   O962    1.388   .     S
C877   C884    1.402   .     A
C877   C881    1.390   .     A
C878   C882    1.395   .     A
C878   H909    1.084   .     S
C879   C883    1.392   .     A
C879   H920    1.081   .     S
C880   H931    1.078   .     S
C880   C883    1.398   .     A
C881   C882    1.394   .     A
C881   H942    1.082   .     S
C884   C993    1.441   1_455 S
C885   C992    1.441   .     S
C886   H911    1.109   .     S
C886   H910    1.111   .     S
C886   H956    1.103   .     S
C886   C887    1.500   .     S
C887   C906    1.415   .     A
C887   N957    1.382   .     A
C888   H914    1.108   .     S
C888   H912    1.103   .     S
C888   C898    1.502   .     S
C888   H913    1.111   .     S
C889   H917    1.107   .     S
C889   H915    1.102   .     S
C889   H916    1.111   .     S
C889   C904    1.502   .     S
C890   H919    1.111   .     S
C890   H918    1.103   .     S
C890   H921    1.109   .     S
C890   C905    1.502   .     S
C891   O970    1.412   .     S
C891   H923    1.113   .     S
C891   H922    1.114   .     S
C891   C1000   1.528   1_455 S
C892   C893    1.528   .     S
C892   H924    1.111   .     S
C892   C999    1.528   .     S
C893   H927    1.110   .     S
C893   H928    1.110   .     S
C893   H926    1.111   .     S
C894   C895    1.530   .     S
C894   O960    1.419   .     S
C894   H930    1.117   .     S
C894   H929    1.107   .     S
C895   C896    1.526   .     S
C895   H932    1.112   .     S
C895   H933    1.110   .     S
C896   H936    1.111   .     S
C896   H935    1.110   .     S
C896   H934    1.111   .     S
C897   H937    1.111   .     S
C897   C899    1.536   .     S
C897   O961    1.414   .     S
C897   H938    1.111   .     S
C898   C907    1.414   .     A
C898   N958    1.383   .     A
C899   C900    1.526   .     S
C899   H939    1.112   .     S
C899   H940    1.109   .     S
C900   H941    1.110   .     S
C900   H944    1.111   .     S
C900   H943    1.110   .     S
C901   H945    1.110   .     S
C901   O962    1.419   .     S
C901   C902    1.531   .     S
C901   H946    1.118   .     S
C902   H947    1.111   .     S
C902   H948    1.110   .     S
C902   C39     1.527   1_556 S
C903   H951    1.108   .     S
C903   H949    1.111   .     S
C903   H950    1.108   .     S
C904   N957    1.383   .     A
C904   C908    1.414   .     A
C905   N958    1.382   .     A
C906   H952    1.082   .     S
C907   H953    1.082   .     S
C908   H954    1.082   .     S
H925   C28     1.111   1_556 S
N957   Zn972   2.028   .     S
N958   Zn971   2.028   .     S
O959   Zn971   1.993   .     S
O963   Zn972   1.993   .     S
O964   Zn971   1.994   .     S
O965   Zn972   1.994   .     S
O966   Zn971   1.941   .     S
O967   Zn972   1.941   .     S
O968   Zn971   1.944   .     S
O969   Zn972   1.944   .     S
C973   C990    1.428   .     S
C973   O1067   1.293   .     A
C973   O1073   1.293   .     A
C974   C1013   1.414   .     A
C974   C978    1.401   .     A
C974   H1063   1.082   .     S
C975   O1077   1.283   .     A
C975   C979    1.362   .     S
C975   O1074   1.282   .     A
C976   C980    1.362   .     S
C976   O1075   1.282   .     A
C976   O1076   1.283   .     A
C977   C1014   1.401   .     A
C977   C1016   1.401   .     A
C977   C1194   1.520   1_545 S
C978   C1015   1.402   .     A
C978   C1193   1.520   .     S
C980   C115    1.163   1_556 S
C981   O1078   1.383   .     S
C981   C986    1.386   .     A
C981   C992    1.404   .     A
C982   C993    1.403   .     A
C982   O1068   1.391   .     S
C982   C987    1.387   .     A
C983   C993    1.407   .     A
C983   C988    1.403   .     A
C983   O1069   1.403   .     S
C984   O1071   1.296   .     A
C984   C991    1.439   .     S
C984   O1072   1.295   .     A
C985   O1070   1.388   .     S
C985   C992    1.402   .     A
C985   C989    1.390   .     A
C986   C990    1.395   .     A
C986   H1017   1.084   .     S
C987   C991    1.392   .     A
C987   H1028   1.081   .     S
C988   H1039   1.078   .     S
C988   C991    1.398   .     A
C989   C990    1.394   .     A
C989   H1050   1.082   .     S
C993   C884    1.441   1_655 S
C994   H1019   1.109   .     S
C994   H1018   1.111   .     S
C994   H1064   1.103   .     S
C994   C995    1.500   .     S
C995   C1014   1.415   .     A
C995   N1065   1.382   .     A
C996   H1022   1.108   .     S
C996   H1020   1.103   .     S
C996   C1006   1.502   .     S
C996   H1021   1.111   .     S
C997   H1025   1.107   .     S
C997   H1023   1.102   .     S
C997   H1024   1.111   .     S
C997   C1012   1.502   .     S
C998   H1027   1.111   .     S
C998   H1026   1.103   .     S
C998   H1029   1.109   .     S
C998   C1013   1.502   .     S
C999   O1078   1.412   .     S
C999   H1031   1.113   .     S
C999   H1030   1.114   .     S
C1000  C1001   1.528   .     S
C1000  H1032   1.111   .     S
C1000  C891    1.528   1_655 S
C1001  H1035   1.110   .     S
C1001  H1036   1.110   .     S
C1001  H1034   1.111   .     S
C1002  C1003   1.530   .     S
C1002  O1068   1.419   .     S
C1002  H1038   1.117   .     S
C1002  H1037   1.107   .     S
C1003  C1004   1.526   .     S
C1003  H1040   1.112   .     S
C1003  H1041   1.110   .     S
C1004  H1044   1.111   .     S
C1004  H1043   1.110   .     S
C1004  H1042   1.111   .     S
C1005  H1045   1.111   .     S
C1005  C1007   1.536   .     S
C1005  O1069   1.414   .     S
C1005  H1046   1.111   .     S
C1006  C1015   1.414   .     A
C1006  N1066   1.383   .     A
C1007  C1008   1.526   .     S
C1007  H1047   1.112   .     S
C1007  H1048   1.109   .     S
C1008  H1049   1.110   .     S
C1008  H1052   1.111   .     S
C1008  H1051   1.110   .     S
C1009  H1053   1.110   .     S
C1009  O1070   1.419   .     S
C1009  C1010   1.531   .     S
C1009  H1054   1.118   .     S
C1010  H1055   1.111   .     S
C1010  H1056   1.110   .     S
C1010  C147    1.527   1_556 S
C1011  H1059   1.108   .     S
C1011  H1057   1.111   .     S
C1011  H1058   1.108   .     S
C1012  N1065   1.383   .     A
C1012  C1016   1.414   .     A
C1013  N1066   1.382   .     A
C1014  H1060   1.082   .     S
C1015  H1061   1.082   .     S
C1016  H1062   1.082   .     S
H1033  C136    1.111   1_556 S
N1065  Zn1080  2.028   .     S
N1066  Zn1079  2.028   .     S
O1067  Zn1079  1.993   .     S
O1071  Zn1080  1.993   .     S
O1072  Zn1079  1.994   .     S
O1073  Zn1080  1.994   .     S
O1074  Zn1079  1.941   .     S
O1075  Zn1080  1.941   .     S
O1076  Zn1079  1.944   .     S
O1077  Zn1080  1.944   .     S
C1081  C1098   1.428   .     S
C1081  O1175   1.293   .     A
C1081  O1181   1.293   .     A
C1082  C1121   1.414   .     A
C1082  C1086   1.401   .     A
C1082  H1171   1.082   .     S
C1083  O1185   1.283   .     A
C1083  C1087   1.362   .     S
C1083  O1182   1.282   .     A
C1084  C1088   1.362   .     S
C1084  O1183   1.282   .     A
C1084  O1184   1.283   .     A
C1085  C1122   1.401   .     A
C1085  C1124   1.401   .     A
C1086  C1123   1.402   .     A
C1086  C869    1.520   1_565 S
C1088  C223    1.163   1_556 S
C1089  O1186   1.383   .     S
C1089  C1094   1.386   .     A
C1089  C1100   1.404   .     A
C1090  C1101   1.403   .     A
C1090  O1176   1.391   .     S
C1090  C1095   1.387   .     A
C1091  C1101   1.407   .     A
C1091  C1096   1.403   .     A
C1091  O1177   1.403   .     S
C1092  O1179   1.296   .     A
C1092  C1099   1.439   .     S
C1092  O1180   1.295   .     A
C1093  O1178   1.388   .     S
C1093  C1100   1.402   .     A
C1093  C1097   1.390   .     A
C1094  C1098   1.395   .     A
C1094  H1125   1.084   .     S
C1095  C1099   1.392   .     A
C1095  H1136   1.081   .     S
C1096  H1147   1.078   .     S
C1096  C1099   1.398   .     A
C1097  C1098   1.394   .     A
C1097  H1158   1.082   .     S
C1100  C1209   1.441   1_455 S
C1101  C1208   1.441   .     S
C1102  H1127   1.109   .     S
C1102  H1126   1.111   .     S
C1102  H1172   1.103   .     S
C1102  C1103   1.500   .     S
C1103  C1122   1.415   .     A
C1103  N1173   1.382   .     A
C1104  H1130   1.108   .     S
C1104  H1128   1.103   .     S
C1104  C1114   1.502   .     S
C1104  H1129   1.111   .     S
C1105  H1133   1.107   .     S
C1105  H1131   1.102   .     S
C1105  H1132   1.111   .     S
C1105  C1120   1.502   .     S
C1106  H1135   1.111   .     S
C1106  H1134   1.103   .     S
C1106  H1137   1.109   .     S
C1106  C1121   1.502   .     S
C1107  O1186   1.412   .     S
C1107  H1139   1.113   .     S
C1107  H1138   1.114   .     S
C1107  C1216   1.528   1_455 S
C1108  C1109   1.528   .     S
C1108  H1140   1.111   .     S
C1108  C1215   1.528   .     S
C1109  H1143   1.110   .     S
C1109  H1144   1.110   .     S
C1109  H1142   1.111   .     S
C1110  C1111   1.530   .     S
C1110  O1176   1.419   .     S
C1110  H1146   1.117   .     S
C1110  H1145   1.107   .     S
C1111  C1112   1.526   .     S
C1111  H1148   1.112   .     S
C1111  H1149   1.110   .     S
C1112  H1152   1.111   .     S
C1112  H1151   1.110   .     S
C1112  H1150   1.111   .     S
C1113  H1153   1.111   .     S
C1113  C1115   1.536   .     S
C1113  O1177   1.414   .     S
C1113  H1154   1.111   .     S
C1114  C1123   1.414   .     A
C1114  N1174   1.383   .     A
C1115  C1116   1.526   .     S
C1115  H1155   1.112   .     S
C1115  H1156   1.109   .     S
C1116  H1157   1.110   .     S
C1116  H1160   1.111   .     S
C1116  H1159   1.110   .     S
C1117  H1161   1.110   .     S
C1117  O1178   1.419   .     S
C1117  C1118   1.531   .     S
C1117  H1162   1.118   .     S
C1118  H1163   1.111   .     S
C1118  H1164   1.110   .     S
C1118  C255    1.527   1_556 S
C1119  H1167   1.108   .     S
C1119  H1165   1.111   .     S
C1119  H1166   1.108   .     S
C1120  N1173   1.383   .     A
C1120  C1124   1.414   .     A
C1121  N1174   1.382   .     A
C1122  H1168   1.082   .     S
C1123  H1169   1.082   .     S
C1124  H1170   1.082   .     S
H1141  C244    1.111   1_556 S
N1173  Zn1188  2.028   .     S
N1174  Zn1187  2.028   .     S
O1175  Zn1187  1.993   .     S
O1179  Zn1188  1.993   .     S
O1180  Zn1187  1.994   .     S
O1181  Zn1188  1.994   .     S
O1182  Zn1187  1.941   .     S
O1183  Zn1188  1.941   .     S
O1184  Zn1187  1.944   .     S
O1185  Zn1188  1.944   .     S
C1189  C1206   1.428   .     S
C1189  O1283   1.293   .     A
C1189  O1289   1.293   .     A
C1190  C1229   1.414   .     A
C1190  C1194   1.401   .     A
C1190  H1279   1.082   .     S
C1191  O1293   1.283   .     A
C1191  C1195   1.362   .     S
C1191  O1290   1.282   .     A
C1192  C1196   1.362   .     S
C1192  O1291   1.282   .     A
C1192  O1292   1.283   .     A
C1193  C1230   1.401   .     A
C1193  C1232   1.401   .     A
C1194  C1231   1.402   .     A
C1194  C977    1.520   1_565 S
C1196  C331    1.163   1_556 S
C1197  O1294   1.383   .     S
C1197  C1202   1.386   .     A
C1197  C1208   1.404   .     A
C1198  C1209   1.403   .     A
C1198  O1284   1.391   .     S
C1198  C1203   1.387   .     A
C1199  C1209   1.407   .     A
C1199  C1204   1.403   .     A
C1199  O1285   1.403   .     S
C1200  O1287   1.296   .     A
C1200  C1207   1.439   .     S
C1200  O1288   1.295   .     A
C1201  O1286   1.388   .     S
C1201  C1208   1.402   .     A
C1201  C1205   1.390   .     A
C1202  C1206   1.395   .     A
C1202  H1233   1.084   .     S
C1203  C1207   1.392   .     A
C1203  H1244   1.081   .     S
C1204  H1255   1.078   .     S
C1204  C1207   1.398   .     A
C1205  C1206   1.394   .     A
C1205  H1266   1.082   .     S
C1209  C1100   1.441   1_655 S
C1210  H1235   1.109   .     S
C1210  H1234   1.111   .     S
C1210  H1280   1.103   .     S
C1210  C1211   1.500   .     S
C1211  C1230   1.415   .     A
C1211  N1281   1.382   .     A
C1212  H1238   1.108   .     S
C1212  H1236   1.103   .     S
C1212  C1222   1.502   .     S
C1212  H1237   1.111   .     S
C1213  H1241   1.107   .     S
C1213  H1239   1.102   .     S
C1213  H1240   1.111   .     S
C1213  C1228   1.502   .     S
C1214  H1243   1.111   .     S
C1214  H1242   1.103   .     S
C1214  H1245   1.109   .     S
C1214  C1229   1.502   .     S
C1215  O1294   1.412   .     S
C1215  H1247   1.113   .     S
C1215  H1246   1.114   .     S
C1216  C1217   1.528   .     S
C1216  H1248   1.111   .     S
C1216  C1107   1.528   1_655 S
C1217  H1251   1.110   .     S
C1217  H1252   1.110   .     S
C1217  H1250   1.111   .     S
C1218  C1219   1.530   .     S
C1218  O1284   1.419   .     S
C1218  H1254   1.117   .     S
C1218  H1253   1.107   .     S
C1219  C1220   1.526   .     S
C1219  H1256   1.112   .     S
C1219  H1257   1.110   .     S
C1220  H1260   1.111   .     S
C1220  H1259   1.110   .     S
C1220  H1258   1.111   .     S
C1221  H1261   1.111   .     S
C1221  C1223   1.536   .     S
C1221  O1285   1.414   .     S
C1221  H1262   1.111   .     S
C1222  C1231   1.414   .     A
C1222  N1282   1.383   .     A
C1223  C1224   1.526   .     S
C1223  H1263   1.112   .     S
C1223  H1264   1.109   .     S
C1224  H1265   1.110   .     S
C1224  H1268   1.111   .     S
C1224  H1267   1.110   .     S
C1225  H1269   1.110   .     S
C1225  O1286   1.419   .     S
C1225  C1226   1.531   .     S
C1225  H1270   1.118   .     S
C1226  H1271   1.111   .     S
C1226  H1272   1.110   .     S
C1226  C363    1.527   1_556 S
C1227  H1275   1.108   .     S
C1227  H1273   1.111   .     S
C1227  H1274   1.108   .     S
C1228  N1281   1.383   .     A
C1228  C1232   1.414   .     A
C1229  N1282   1.382   .     A
C1230  H1276   1.082   .     S
C1231  H1277   1.082   .     S
C1232  H1278   1.082   .     S
H1249  C352    1.111   1_556 S
N1281  Zn1296  2.028   .     S
N1282  Zn1295  2.028   .     S
O1283  Zn1295  1.993   .     S
O1287  Zn1296  1.993   .     S
O1288  Zn1295  1.994   .     S
O1289  Zn1296  1.994   .     S
O1290  Zn1295  1.941   .     S
O1291  Zn1296  1.941   .     S
O1292  Zn1295  1.944   .     S
O1293  Zn1296  1.944   .     S
