data_str_m1_o1_o17_pcu_sym.159
_audit_creation_date              2020-01-03
_audit_creation_method            'Materials Studio'
_symmetry_space_group_name_H-M    'P1'
_symmetry_Int_Tables_number       1
_symmetry_cell_setting            triclinic
loop_
_symmetry_equiv_pos_as_xyz
  x,y,z
_cell_length_a                    36.5845
_cell_length_b                    36.5850
_cell_length_c                    34.4862
_cell_angle_alpha                 89.8977
_cell_angle_beta                  89.8977
_cell_angle_gamma                 90.4042
loop_
_atom_site_label
_atom_site_type_symbol
_atom_site_fract_x
_atom_site_fract_y
_atom_site_fract_z
_atom_site_U_iso_or_equiv
_atom_site_adp_type
_atom_site_occupancy
C1     C     0.47176   0.26729   0.41849   0.00000  Uiso   1.00
C2     C     0.02825   0.23271   0.58151   0.00000  Uiso   1.00
C3     C     0.23200   0.02771   0.41849   0.00000  Uiso   1.00
C4     C     0.26800   0.47229   0.58151   0.00000  Uiso   1.00
C5     C     0.02772   0.23201   0.41849   0.00000  Uiso   1.00
C6     C     0.47228   0.26798   0.58151   0.00000  Uiso   1.00
C7     C     0.26731   0.47176   0.41849   0.00000  Uiso   1.00
C8     C     0.23269   0.02823   0.58151   0.00000  Uiso   1.00
C9     C     0.22176   0.01731   0.91849   0.00000  Uiso   1.00
C10    C     0.27824   0.48270   0.08151   0.00000  Uiso   1.00
C11    C     0.48201   0.27772   0.91849   0.00000  Uiso   1.00
C12    C     0.01799   0.22228   0.08151   0.00000  Uiso   1.00
C13    C     0.27771   0.48200   0.91849   0.00000  Uiso   1.00
C14    C     0.22229   0.01800   0.08151   0.00000  Uiso   1.00
C15    C     0.01730   0.22176   0.91849   0.00000  Uiso   1.00
C16    C     0.48270   0.27824   0.08151   0.00000  Uiso   1.00
C17    C     0.49983   0.24976   0.39835   0.00000  Uiso   1.00
C18    C     0.00017   0.25024   0.60165   0.00000  Uiso   1.00
C19    C     0.24976   0.49983   0.39835   0.00000  Uiso   1.00
C20    C     0.25024   0.00017   0.60165   0.00000  Uiso   1.00
C21    C     0.24983   0.49976   0.89835   0.00000  Uiso   1.00
C22    C     0.25017   0.00024   0.10165   0.00000  Uiso   1.00
C23    C     0.49976   0.24983   0.89835   0.00000  Uiso   1.00
C24    C     0.00024   0.25017   0.10165   0.00000  Uiso   1.00
C25    C     0.05248   0.20863   0.47971   0.00000  Uiso   1.00
C26    C     0.44752   0.29136   0.52029   0.00000  Uiso   1.00
C27    C     0.28962   0.44612   0.47972   0.00000  Uiso   1.00
C28    C     0.21037   0.05387   0.52028   0.00000  Uiso   1.00
C29    C     0.44610   0.28959   0.47972   0.00000  Uiso   1.00
C30    C     0.05390   0.21041   0.52028   0.00000  Uiso   1.00
C31    C     0.20860   0.05245   0.47971   0.00000  Uiso   1.00
C32    C     0.29140   0.44755   0.52029   0.00000  Uiso   1.00
C33    C     0.30246   0.45861   0.97971   0.00000  Uiso   1.00
C34    C     0.19754   0.04139   0.02029   0.00000  Uiso   1.00
C35    C     0.03960   0.19611   0.97972   0.00000  Uiso   1.00
C36    C     0.46040   0.30390   0.02028   0.00000  Uiso   1.00
C37    C     0.19612   0.03962   0.97972   0.00000  Uiso   1.00
C38    C     0.30389   0.46039   0.02028   0.00000  Uiso   1.00
C39    C     0.45863   0.30247   0.97971   0.00000  Uiso   1.00
C40    C     0.04138   0.19753   0.02029   0.00000  Uiso   1.00
C41    C     0.25000   0.49997   0.35594   0.00000  Uiso   1.00
C42    C     0.25000   0.00003   0.64406   0.00000  Uiso   1.00
C43    C     0.49997   0.25000   0.35594   0.00000  Uiso   1.00
C44    C     0.00003   0.25000   0.64406   0.00000  Uiso   1.00
C45    C     0.00000   0.24997   0.85594   0.00000  Uiso   1.00
C46    C    -0.00000   0.25003   0.14406   0.00000  Uiso   1.00
C47    C     0.24997   0.00000   0.85594   0.00000  Uiso   1.00
C48    C     0.25003  -0.00000   0.14406   0.00000  Uiso   1.00
C49    C     0.17999   0.07001   0.25000   0.00000  Uiso   1.00
C50    C     0.32001   0.42999   0.75000   0.00000  Uiso   1.00
C51    C     0.43007   0.18000   0.25014   0.00000  Uiso   1.00
C52    C     0.06992   0.32003   0.74983   0.00000  Uiso   1.00
C53    C     0.32005   0.42995   0.25000   0.00000  Uiso   1.00
C54    C     0.17995   0.07005   0.75000   0.00000  Uiso   1.00
C55    C     0.07000   0.31993   0.24986   0.00000  Uiso   1.00
C56    C     0.42997   0.18008   0.75017   0.00000  Uiso   1.00
C57    C     0.18011   0.42995   0.75020   0.00000  Uiso   1.00
C58    C     0.31988   0.07007   0.24978   0.00000  Uiso   1.00
C59    C     0.42998   0.32002   0.75000   0.00000  Uiso   1.00
C60    C     0.07002   0.17998   0.25000   0.00000  Uiso   1.00
C61    C     0.32004   0.06989   0.74980   0.00000  Uiso   1.00
C62    C     0.17993   0.43012   0.25022   0.00000  Uiso   1.00
C63    C     0.07005   0.17995   0.75000   0.00000  Uiso   1.00
C64    C     0.42995   0.32005   0.25000   0.00000  Uiso   1.00
C65    C     0.15988   0.36743   0.23488   0.00000  Uiso   1.00
C66    C     0.34012   0.13264   0.76542   0.00000  Uiso   1.00
C67    C     0.13511   0.16194   0.25437   0.00000  Uiso   1.00
C68    C     0.36491   0.33807   0.74542   0.00000  Uiso   1.00
C69    C     0.34035   0.13274   0.23421   0.00000  Uiso   1.00
C70    C     0.15958   0.36729   0.76593   0.00000  Uiso   1.00
C71    C     0.38989   0.36291   0.21449   0.00000  Uiso   1.00
C72    C     0.11012   0.13709   0.78551   0.00000  Uiso   1.00
C73    C     0.13709   0.11012   0.78551   0.00000  Uiso   1.00
C74    C     0.36291   0.38988   0.21449   0.00000  Uiso   1.00
C75    C     0.13264   0.34002   0.76515   0.00000  Uiso   1.00
C76    C     0.36729   0.15999   0.23461   0.00000  Uiso   1.00
C77    C     0.33800   0.36490   0.74580   0.00000  Uiso   1.00
C78    C     0.16201   0.13510   0.25418   0.00000  Uiso   1.00
C79    C     0.36737   0.15958   0.76576   0.00000  Uiso   1.00
C80    C     0.13267   0.34046   0.23419   0.00000  Uiso   1.00
C81    C     0.40997   0.11737   0.73481   0.00000  Uiso   1.00
C82    C     0.09001   0.38271   0.26540   0.00000  Uiso   1.00
C83    C     0.38510   0.41200   0.75422   0.00000  Uiso   1.00
C84    C     0.11490   0.08799   0.24582   0.00000  Uiso   1.00
C85    C     0.09040   0.38265   0.73429   0.00000  Uiso   1.00
C86    C     0.40954   0.11733   0.26580   0.00000  Uiso   1.00
C87    C     0.13988   0.11290   0.71449   0.00000  Uiso   1.00
C88    C     0.36012   0.38709   0.28551   0.00000  Uiso   1.00
C89    C     0.38709   0.36011   0.28551   0.00000  Uiso   1.00
C90    C     0.11291   0.13988   0.71449   0.00000  Uiso   1.00
C91    C     0.38257   0.09011   0.26511   0.00000  Uiso   1.00
C92    C     0.11734   0.40989   0.73462   0.00000  Uiso   1.00
C93    C     0.08806   0.11489   0.24563   0.00000  Uiso   1.00
C94    C     0.41193   0.38509   0.75458   0.00000  Uiso   1.00
C95    C     0.11726   0.40965   0.26579   0.00000  Uiso   1.00
C96    C     0.38270   0.09043   0.73404   0.00000  Uiso   1.00
C97    C     0.02679   0.22988   0.45912   0.00000  Uiso   1.00
C98    C     0.47320   0.27011   0.54088   0.00000  Uiso   1.00
C99    C     0.26888   0.47223   0.45916   0.00000  Uiso   1.00
C100   C     0.23111   0.02777   0.54084   0.00000  Uiso   1.00
C101   C     0.47222   0.26887   0.45916   0.00000  Uiso   1.00
C102   C     0.02779   0.23114   0.54084   0.00000  Uiso   1.00
C103   C     0.22987   0.02678   0.45912   0.00000  Uiso   1.00
C104   C     0.27013   0.47322   0.54088   0.00000  Uiso   1.00
C105   C     0.27678   0.47987   0.95912   0.00000  Uiso   1.00
C106   C     0.22322   0.02013   0.04088   0.00000  Uiso   1.00
C107   C     0.01887   0.22222   0.95916   0.00000  Uiso   1.00
C108   C     0.48113   0.27778   0.04084   0.00000  Uiso   1.00
C109   C     0.22223   0.01888   0.95916   0.00000  Uiso   1.00
C110   C     0.27778   0.48112   0.04084   0.00000  Uiso   1.00
C111   C     0.47988   0.27679   0.95912   0.00000  Uiso   1.00
C112   C     0.02012   0.22321   0.04088   0.00000  Uiso   1.00
C113   C     0.09791   0.34809   0.24976   0.00000  Uiso   1.00
C114   C     0.40201   0.15191   0.75027   0.00000  Uiso   1.00
C115   C     0.15196   0.09804   0.25000   0.00000  Uiso   1.00
C116   C     0.34805   0.40195   0.75001   0.00000  Uiso   1.00
C117   C     0.40191   0.15209   0.25024   0.00000  Uiso   1.00
C118   C     0.09808   0.34799   0.74973   0.00000  Uiso   1.00
C119   C     0.34812   0.40188   0.25000   0.00000  Uiso   1.00
C120   C     0.15188   0.09812   0.75000   0.00000  Uiso   1.00
C121   C     0.09812   0.15188   0.75000   0.00000  Uiso   1.00
C122   C     0.40188   0.34812   0.25000   0.00000  Uiso   1.00
C123   C     0.15196   0.40202   0.75030   0.00000  Uiso   1.00
C124   C     0.34802   0.09807   0.24967   0.00000  Uiso   1.00
C125   C     0.40193   0.34808   0.74999   0.00000  Uiso   1.00
C126   C     0.09809   0.15191   0.25000   0.00000  Uiso   1.00
C127   C     0.34798   0.09804   0.74971   0.00000  Uiso   1.00
C128   C     0.15193   0.40198   0.25032   0.00000  Uiso   1.00
C129   C     0.49980   0.24976   0.47958   0.00000  Uiso   1.00
C130   C     0.00020   0.25024   0.52041   0.00000  Uiso   1.00
C131   C     0.24976   0.49980   0.47959   0.00000  Uiso   1.00
C132   C     0.25024   0.00020   0.52042   0.00000  Uiso   1.00
C133   C     0.24980   0.49976   0.97958   0.00000  Uiso   1.00
C134   C     0.25020   0.00024   0.02041   0.00000  Uiso   1.00
C135   C     0.49976   0.24980   0.97959   0.00000  Uiso   1.00
C136   C     0.00024   0.25020   0.02042   0.00000  Uiso   1.00
O137   O     0.25000  -0.00000   0.25000   0.00000  Uiso   1.00
O138   O     0.25000  -0.00000   0.75000   0.00000  Uiso   1.00
O139   O     0.00000   0.25000   0.25000   0.00000  Uiso   1.00
O140   O     0.00000   0.25000   0.75000   0.00000  Uiso   1.00
O141   O     0.25000   0.46963   0.33755   0.00000  Uiso   1.00
O142   O     0.25000   0.03036   0.66245   0.00000  Uiso   1.00
O143   O     0.03037   0.25000   0.33755   0.00000  Uiso   1.00
O144   O     0.46964   0.25000   0.66245   0.00000  Uiso   1.00
O145   O     0.25000   0.03036   0.33755   0.00000  Uiso   1.00
O146   O     0.25000   0.46963   0.66245   0.00000  Uiso   1.00
O147   O     0.46964   0.25000   0.33755   0.00000  Uiso   1.00
O148   O     0.03037   0.25000   0.66245   0.00000  Uiso   1.00
O149   O     0.00000   0.21963   0.83755   0.00000  Uiso   1.00
O150   O     0.00000   0.28036   0.16245   0.00000  Uiso   1.00
O151   O     0.28037  -0.00000   0.83755   0.00000  Uiso   1.00
O152   O     0.21964  -0.00000   0.16245   0.00000  Uiso   1.00
O153   O     0.00000   0.28036   0.83755   0.00000  Uiso   1.00
O154   O     0.00000   0.21963   0.16245   0.00000  Uiso   1.00
O155   O     0.21964  -0.00000   0.83755   0.00000  Uiso   1.00
O156   O     0.28037  -0.00000   0.16245   0.00000  Uiso   1.00
O157   O     0.20725   0.07307   0.27302   0.00000  Uiso   1.00
O158   O     0.29276   0.42692   0.72698   0.00000  Uiso   1.00
O159   O     0.42693   0.20724   0.27302   0.00000  Uiso   1.00
O160   O     0.07308   0.29275   0.72698   0.00000  Uiso   1.00
O161   O     0.29276   0.42692   0.27302   0.00000  Uiso   1.00
O162   O     0.20725   0.07307   0.72698   0.00000  Uiso   1.00
O163   O     0.07308   0.29275   0.27302   0.00000  Uiso   1.00
O164   O     0.42693   0.20724   0.72698   0.00000  Uiso   1.00
O165   O     0.20725   0.42692   0.72698   0.00000  Uiso   1.00
O166   O     0.29276   0.07307   0.27302   0.00000  Uiso   1.00
O167   O     0.42693   0.29275   0.72698   0.00000  Uiso   1.00
O168   O     0.07308   0.20724   0.27302   0.00000  Uiso   1.00
O169   O     0.29276   0.07307   0.72698   0.00000  Uiso   1.00
O170   O     0.20725   0.42692   0.27302   0.00000  Uiso   1.00
O171   O     0.07308   0.20724   0.72698   0.00000  Uiso   1.00
O172   O     0.42693   0.29275   0.27302   0.00000  Uiso   1.00
O173   O     0.45725   0.32307   0.77302   0.00000  Uiso   1.00
O174   O     0.04276   0.17692   0.22698   0.00000  Uiso   1.00
O175   O     0.17693   0.45724   0.77302   0.00000  Uiso   1.00
O176   O     0.32308   0.04275   0.22698   0.00000  Uiso   1.00
O177   O     0.04276   0.17692   0.77302   0.00000  Uiso   1.00
O178   O     0.45725   0.32307   0.22698   0.00000  Uiso   1.00
O179   O     0.32308   0.04275   0.77302   0.00000  Uiso   1.00
O180   O     0.17693   0.45724   0.22698   0.00000  Uiso   1.00
O181   O     0.45725   0.17692   0.22698   0.00000  Uiso   1.00
O182   O     0.04276   0.32307   0.77302   0.00000  Uiso   1.00
O183   O     0.17693   0.04275   0.22698   0.00000  Uiso   1.00
O184   O     0.32308   0.45724   0.77302   0.00000  Uiso   1.00
O185   O     0.04276   0.32307   0.22698   0.00000  Uiso   1.00
O186   O     0.45725   0.17692   0.77302   0.00000  Uiso   1.00
O187   O     0.32308   0.45724   0.22698   0.00000  Uiso   1.00
O188   O     0.17693   0.04275   0.77302   0.00000  Uiso   1.00
Zn189  Zn    0.20660  -0.00000   0.21735   0.00000  Uiso   1.00
Zn190  Zn    0.29341  -0.00000   0.78265   0.00000  Uiso   1.00
Zn191  Zn    0.00000   0.20659   0.21735   0.00000  Uiso   1.00
Zn192  Zn    0.00000   0.29340   0.78265   0.00000  Uiso   1.00
Zn193  Zn    0.29341  -0.00000   0.21735   0.00000  Uiso   1.00
Zn194  Zn    0.20660  -0.00000   0.78265   0.00000  Uiso   1.00
Zn195  Zn    0.00000   0.29340   0.21735   0.00000  Uiso   1.00
Zn196  Zn    0.00000   0.20659   0.78265   0.00000  Uiso   1.00
Zn197  Zn    0.45660   0.25000   0.71735   0.00000  Uiso   1.00
Zn198  Zn    0.04341   0.25000   0.28265   0.00000  Uiso   1.00
Zn199  Zn    0.25000   0.45659   0.71735   0.00000  Uiso   1.00
Zn200  Zn    0.25000   0.04340   0.28265   0.00000  Uiso   1.00
Zn201  Zn    0.04341   0.25000   0.71735   0.00000  Uiso   1.00
Zn202  Zn    0.45660   0.25000   0.28265   0.00000  Uiso   1.00
Zn203  Zn    0.25000   0.04340   0.71735   0.00000  Uiso   1.00
Zn204  Zn    0.25000   0.45659   0.28265   0.00000  Uiso   1.00
O205   O     0.07736   0.18663   0.46067   0.00000  Uiso   1.00
C206   C     0.05992   0.15329   0.45076   0.00000  Uiso   1.00
H207   H     0.08114   0.13343   0.44199   0.00000  Uiso   1.00
H208   H     0.04111   0.15682   0.42583   0.00000  Uiso   1.00
H209   H     0.04436   0.14105   0.47537   0.00000  Uiso   1.00
O210   O     0.42263   0.31336   0.53932   0.00000  Uiso   1.00
C211   C     0.44007   0.34670   0.54924   0.00000  Uiso   1.00
H212   H     0.45889   0.34318   0.57416   0.00000  Uiso   1.00
H213   H     0.41884   0.36656   0.55802   0.00000  Uiso   1.00
H214   H     0.45560   0.35896   0.52462   0.00000  Uiso   1.00
O215   O     0.30584   0.41711   0.46062   0.00000  Uiso   1.00
C216   C     0.34244   0.42596   0.45108   0.00000  Uiso   1.00
H217   H     0.34780   0.45584   0.44744   0.00000  Uiso   1.00
H218   H     0.34927   0.41269   0.42312   0.00000  Uiso   1.00
H219   H     0.36108   0.41440   0.47318   0.00000  Uiso   1.00
O220   O     0.19415   0.08288   0.53939   0.00000  Uiso   1.00
C221   C     0.15755   0.07403   0.54892   0.00000  Uiso   1.00
H222   H     0.15073   0.08728   0.57690   0.00000  Uiso   1.00
H223   H     0.15218   0.04415   0.55254   0.00000  Uiso   1.00
H224   H     0.13891   0.08561   0.52684   0.00000  Uiso   1.00
O225   O     0.41708   0.30579   0.46061   0.00000  Uiso   1.00
C226   C     0.42590   0.34240   0.45107   0.00000  Uiso   1.00
H227   H     0.41266   0.34920   0.42309   0.00000  Uiso   1.00
H228   H     0.45579   0.34778   0.44747   0.00000  Uiso   1.00
H229   H     0.41430   0.36103   0.47315   0.00000  Uiso   1.00
O230   O     0.08292   0.19422   0.53938   0.00000  Uiso   1.00
C231   C     0.07410   0.15761   0.54892   0.00000  Uiso   1.00
H232   H     0.04422   0.15223   0.55257   0.00000  Uiso   1.00
H233   H     0.08738   0.15079   0.57689   0.00000  Uiso   1.00
H234   H     0.08568   0.13898   0.52683   0.00000  Uiso   1.00
O235   O     0.18658   0.07732   0.46068   0.00000  Uiso   1.00
C236   C     0.15326   0.05985   0.45075   0.00000  Uiso   1.00
H237   H     0.15680   0.04103   0.42584   0.00000  Uiso   1.00
H238   H     0.13339   0.08106   0.44195   0.00000  Uiso   1.00
H239   H     0.14100   0.04432   0.47537   0.00000  Uiso   1.00
O240   O     0.31342   0.42269   0.53933   0.00000  Uiso   1.00
C241   C     0.34674   0.44015   0.54925   0.00000  Uiso   1.00
H242   H     0.36663   0.41895   0.55802   0.00000  Uiso   1.00
H243   H     0.34320   0.45896   0.57417   0.00000  Uiso   1.00
H244   H     0.35898   0.45571   0.52463   0.00000  Uiso   1.00
O245   O     0.32733   0.43660   0.96067   0.00000  Uiso   1.00
C246   C     0.30987   0.40327   0.95075   0.00000  Uiso   1.00
H247   H     0.33108   0.38340   0.94196   0.00000  Uiso   1.00
H248   H     0.29105   0.40681   0.92584   0.00000  Uiso   1.00
H249   H     0.29433   0.39102   0.97538   0.00000  Uiso   1.00
O250   O     0.17267   0.06340   0.03932   0.00000  Uiso   1.00
C251   C     0.19012   0.09673   0.04925   0.00000  Uiso   1.00
H252   H     0.20894   0.09320   0.07417   0.00000  Uiso   1.00
H253   H     0.16891   0.11660   0.05802   0.00000  Uiso   1.00
H254   H     0.20567   0.10898   0.02463   0.00000  Uiso   1.00
O255   O     0.05581   0.16709   0.96062   0.00000  Uiso   1.00
C256   C     0.09242   0.17593   0.95108   0.00000  Uiso   1.00
H257   H     0.09778   0.20581   0.94742   0.00000  Uiso   1.00
H258   H     0.09924   0.16265   0.92312   0.00000  Uiso   1.00
H259   H     0.11105   0.16438   0.97318   0.00000  Uiso   1.00
O260   O     0.44420   0.33291   0.03939   0.00000  Uiso   1.00
C261   C     0.40759   0.32408   0.04892   0.00000  Uiso   1.00
H262   H     0.40077   0.33734   0.07690   0.00000  Uiso   1.00
H263   H     0.40221   0.29420   0.05255   0.00000  Uiso   1.00
H264   H     0.38896   0.33566   0.02684   0.00000  Uiso   1.00
O265   O     0.16711   0.05583   0.96061   0.00000  Uiso   1.00
C266   C     0.17594   0.09243   0.95108   0.00000  Uiso   1.00
H267   H     0.16269   0.09925   0.92311   0.00000  Uiso   1.00
H268   H     0.20583   0.09780   0.94745   0.00000  Uiso   1.00
H269   H     0.16437   0.11107   0.97317   0.00000  Uiso   1.00
O270   O     0.33290   0.44418   0.03938   0.00000  Uiso   1.00
C271   C     0.32407   0.40757   0.04892   0.00000  Uiso   1.00
H272   H     0.29418   0.40220   0.05254   0.00000  Uiso   1.00
H273   H     0.33733   0.40075   0.07689   0.00000  Uiso   1.00
H274   H     0.33564   0.38894   0.02683   0.00000  Uiso   1.00
O275   O     0.43663   0.32735   0.96068   0.00000  Uiso   1.00
C276   C     0.40329   0.30991   0.95076   0.00000  Uiso   1.00
H277   H     0.40681   0.29110   0.92583   0.00000  Uiso   1.00
H278   H     0.38342   0.33113   0.94200   0.00000  Uiso   1.00
H279   H     0.39104   0.29435   0.97538   0.00000  Uiso   1.00
O280   O     0.06339   0.17266   0.03933   0.00000  Uiso   1.00
C281   C     0.09672   0.19011   0.04925   0.00000  Uiso   1.00
H282   H     0.11660   0.16890   0.05799   0.00000  Uiso   1.00
H283   H     0.09319   0.20890   0.07419   0.00000  Uiso   1.00
H284   H     0.10896   0.20568   0.02463   0.00000  Uiso   1.00
O285   O     0.19497   0.35915   0.22280   0.00000  Uiso   1.00
C286   C     0.19891   0.36893   0.18342   0.00000  Uiso   1.00
H287   H     0.22781   0.36474   0.17482   0.00000  Uiso   1.00
H288   H     0.19250   0.39820   0.17816   0.00000  Uiso   1.00
H289   H     0.18174   0.35125   0.16458   0.00000  Uiso   1.00
O290   O     0.30546   0.14147   0.77863   0.00000  Uiso   1.00
C291   C     0.29801   0.12357   0.81420   0.00000  Uiso   1.00
H292   H     0.32284   0.11507   0.83055   0.00000  Uiso   1.00
H293   H     0.28026   0.09934   0.80904   0.00000  Uiso   1.00
H294   H     0.28255   0.14254   0.83307   0.00000  Uiso   1.00
O295   O     0.14556   0.19799   0.25977   0.00000  Uiso   1.00
C296   C     0.14880   0.21524   0.22328   0.00000  Uiso   1.00
H297   H     0.16544   0.24041   0.22692   0.00000  Uiso   1.00
H298   H     0.12151   0.22319   0.21220   0.00000  Uiso   1.00
H299   H     0.16300   0.19821   0.20132   0.00000  Uiso   1.00
O300   O     0.35443   0.30208   0.73957   0.00000  Uiso   1.00
C301   C     0.35182   0.28411   0.77574   0.00000  Uiso   1.00
H302   H     0.37910   0.27448   0.78519   0.00000  Uiso   1.00
H303   H     0.33379   0.25989   0.77224   0.00000  Uiso   1.00
H304   H     0.33953   0.30122   0.79892   0.00000  Uiso   1.00
O305   O     0.30617   0.14048   0.21939   0.00000  Uiso   1.00
C306   C     0.30553   0.13056   0.17985   0.00000  Uiso   1.00
H307   H     0.27879   0.13842   0.16740   0.00000  Uiso   1.00
H308   H     0.30838   0.10053   0.17614   0.00000  Uiso   1.00
H309   H     0.32701   0.14515   0.16290   0.00000  Uiso   1.00
O310   O     0.19357   0.35908   0.78108   0.00000  Uiso   1.00
C311   C     0.19741   0.37534   0.81807   0.00000  Uiso   1.00
H312   H     0.17116   0.37811   0.83428   0.00000  Uiso   1.00
H313   H     0.21077   0.40255   0.81539   0.00000  Uiso   1.00
H314   H     0.21560   0.35795   0.83586   0.00000  Uiso   1.00
O315   O     0.40121   0.34784   0.17965   0.00000  Uiso   1.00
C316   C     0.43058   0.36841   0.16378   0.00000  Uiso   1.00
H317   H     0.45434   0.35022   0.15958   0.00000  Uiso   1.00
H318   H     0.43986   0.39214   0.18162   0.00000  Uiso   1.00
H319   H     0.42279   0.37836   0.13460   0.00000  Uiso   1.00
O320   O     0.09880   0.15216   0.82035   0.00000  Uiso   1.00
C321   C     0.06943   0.13158   0.83622   0.00000  Uiso   1.00
H322   H     0.06016   0.10784   0.81839   0.00000  Uiso   1.00
H323   H     0.04566   0.14976   0.84041   0.00000  Uiso   1.00
H324   H     0.07722   0.12165   0.86541   0.00000  Uiso   1.00
O325   O     0.15217   0.09880   0.82035   0.00000  Uiso   1.00
C326   C     0.13160   0.06943   0.83622   0.00000  Uiso   1.00
H327   H     0.14979   0.04566   0.84042   0.00000  Uiso   1.00
H328   H     0.10786   0.06015   0.81839   0.00000  Uiso   1.00
H329   H     0.12165   0.07721   0.86540   0.00000  Uiso   1.00
O330   O     0.34784   0.40121   0.17965   0.00000  Uiso   1.00
C331   C     0.36842   0.43057   0.16378   0.00000  Uiso   1.00
H332   H     0.39217   0.43983   0.18161   0.00000  Uiso   1.00
H333   H     0.35024   0.45434   0.15959   0.00000  Uiso   1.00
H334   H     0.37835   0.42278   0.13459   0.00000  Uiso   1.00
O335   O     0.14099   0.30486   0.77695   0.00000  Uiso   1.00
C336   C     0.13098   0.30047   0.81622   0.00000  Uiso   1.00
H337   H     0.13390   0.27122   0.82408   0.00000  Uiso   1.00
H338   H     0.10203   0.30803   0.82176   0.00000  Uiso   1.00
H339   H     0.14942   0.31639   0.83542   0.00000  Uiso   1.00
O340   O     0.35844   0.19468   0.22149   0.00000  Uiso   1.00
C341   C     0.37641   0.20228   0.18599   0.00000  Uiso   1.00
H342   H     0.38522   0.17752   0.16968   0.00000  Uiso   1.00
H343   H     0.40046   0.22024   0.19125   0.00000  Uiso   1.00
H344   H     0.35736   0.21754   0.16703   0.00000  Uiso   1.00
O345   O     0.30187   0.35414   0.74145   0.00000  Uiso   1.00
C346   C     0.28387   0.35529   0.77774   0.00000  Uiso   1.00
H347   H     0.26862   0.38123   0.78048   0.00000  Uiso   1.00
H348   H     0.30226   0.35236   0.80330   0.00000  Uiso   1.00
H349   H     0.26379   0.33247   0.77898   0.00000  Uiso   1.00
O350   O     0.19813   0.14584   0.25867   0.00000  Uiso   1.00
C351   C     0.21648   0.14425   0.22258   0.00000  Uiso   1.00
H352   H     0.19823   0.14493   0.19671   0.00000  Uiso   1.00
H353   H     0.23327   0.11916   0.22126   0.00000  Uiso   1.00
H354   H     0.23521   0.16813   0.22042   0.00000  Uiso   1.00
O355   O     0.35962   0.19384   0.78037   0.00000  Uiso   1.00
C356   C     0.36954   0.19476   0.81989   0.00000  Uiso   1.00
H357   H     0.36206   0.22175   0.83198   0.00000  Uiso   1.00
H358   H     0.39952   0.19152   0.82369   0.00000  Uiso   1.00
H359   H     0.35462   0.17367   0.83705   0.00000  Uiso   1.00
O360   O     0.14105   0.30636   0.21944   0.00000  Uiso   1.00
C361   C     0.12426   0.30161   0.18284   0.00000  Uiso   1.00
H362   H     0.11983   0.32760   0.16660   0.00000  Uiso   1.00
H363   H     0.09784   0.28686   0.18623   0.00000  Uiso   1.00
H364   H     0.14219   0.28425   0.16471   0.00000  Uiso   1.00
O365   O     0.44511   0.10903   0.72293   0.00000  Uiso   1.00
C366   C     0.44943   0.11906   0.68366   0.00000  Uiso   1.00
H367   H     0.47863   0.11596   0.67568   0.00000  Uiso   1.00
H368   H     0.44203   0.14806   0.67821   0.00000  Uiso   1.00
H369   H     0.43331   0.10075   0.66449   0.00000  Uiso   1.00
O370   O     0.05533   0.39154   0.27854   0.00000  Uiso   1.00
C371   C     0.04775   0.37357   0.31405   0.00000  Uiso   1.00
H372   H     0.07252   0.36478   0.33035   0.00000  Uiso   1.00
H373   H     0.02981   0.34951   0.30879   0.00000  Uiso   1.00
H374   H     0.03248   0.39260   0.33301   0.00000  Uiso   1.00
O375   O     0.39585   0.44812   0.75862   0.00000  Uiso   1.00
C376   C     0.39486   0.46611   0.72232   0.00000  Uiso   1.00
H377   H     0.36883   0.48117   0.71934   0.00000  Uiso   1.00
H378   H     0.39814   0.44774   0.69680   0.00000  Uiso   1.00
H379   H     0.41755   0.48635   0.72128   0.00000  Uiso   1.00
O380   O     0.10416   0.05187   0.24133   0.00000  Uiso   1.00
C381   C     0.10577   0.03351   0.27741   0.00000  Uiso   1.00
H382   H     0.10514   0.05176   0.30329   0.00000  Uiso   1.00
H383   H     0.13085   0.01669   0.27870   0.00000  Uiso   1.00
H384   H     0.08187   0.01480   0.27960   0.00000  Uiso   1.00
O385   O     0.05613   0.39042   0.71971   0.00000  Uiso   1.00
C386   C     0.05520   0.38053   0.68018   0.00000  Uiso   1.00
H387   H     0.02825   0.38817   0.66807   0.00000  Uiso   1.00
H388   H     0.05826   0.35053   0.67637   0.00000  Uiso   1.00
H389   H     0.07638   0.39534   0.66304   0.00000  Uiso   1.00
O390   O     0.44365   0.10895   0.28055   0.00000  Uiso   1.00
C391   C     0.44840   0.12574   0.31715   0.00000  Uiso   1.00
H392   H     0.42240   0.13016   0.33339   0.00000  Uiso   1.00
H393   H     0.46315   0.15216   0.31376   0.00000  Uiso   1.00
H394   H     0.46576   0.10781   0.33528   0.00000  Uiso   1.00
O395   O     0.15120   0.09783   0.67965   0.00000  Uiso   1.00
C396   C     0.18056   0.11840   0.66376   0.00000  Uiso   1.00
H397   H     0.20435   0.10023   0.65961   0.00000  Uiso   1.00
H398   H     0.18980   0.14217   0.68157   0.00000  Uiso   1.00
H399   H     0.17278   0.12830   0.63456   0.00000  Uiso   1.00
O400   O     0.34880   0.40216   0.32035   0.00000  Uiso   1.00
C401   C     0.31944   0.38158   0.33623   0.00000  Uiso   1.00
H402   H     0.31018   0.35782   0.31841   0.00000  Uiso   1.00
H403   H     0.29565   0.39976   0.34040   0.00000  Uiso   1.00
H404   H     0.32722   0.37167   0.36542   0.00000  Uiso   1.00
O405   O     0.40216   0.34879   0.32035   0.00000  Uiso   1.00
C406   C     0.38159   0.31941   0.33621   0.00000  Uiso   1.00
H407   H     0.39979   0.29566   0.34043   0.00000  Uiso   1.00
H408   H     0.35787   0.31012   0.31835   0.00000  Uiso   1.00
H409   H     0.37162   0.32720   0.36538   0.00000  Uiso   1.00
O410   O     0.09785   0.15121   0.67965   0.00000  Uiso   1.00
C411   C     0.11843   0.18059   0.66380   0.00000  Uiso   1.00
H412   H     0.14213   0.18989   0.68167   0.00000  Uiso   1.00
H413   H     0.10022   0.20434   0.65956   0.00000  Uiso   1.00
H414   H     0.12842   0.17280   0.63464   0.00000  Uiso   1.00
O415   O     0.39085   0.05502   0.27717   0.00000  Uiso   1.00
C416   C     0.38111   0.05107   0.31656   0.00000  Uiso   1.00
H417   H     0.38524   0.02216   0.32513   0.00000  Uiso   1.00
H418   H     0.35186   0.05755   0.32186   0.00000  Uiso   1.00
H419   H     0.39885   0.06818   0.33539   0.00000  Uiso   1.00
O420   O     0.10851   0.44456   0.72145   0.00000  Uiso   1.00
C421   C     0.12639   0.45205   0.68587   0.00000  Uiso   1.00
H422   H     0.13493   0.42722   0.66952   0.00000  Uiso   1.00
H423   H     0.15060   0.46982   0.69103   0.00000  Uiso   1.00
H424   H     0.10739   0.46747   0.66701   0.00000  Uiso   1.00
O425   O     0.05201   0.10444   0.24024   0.00000  Uiso   1.00
C426   C     0.03477   0.10118   0.27673   0.00000  Uiso   1.00
H427   H     0.00956   0.08462   0.27308   0.00000  Uiso   1.00
H428   H     0.02692   0.12847   0.28790   0.00000  Uiso   1.00
H429   H     0.05178   0.08687   0.29864   0.00000  Uiso   1.00
O430   O     0.44793   0.39558   0.76041   0.00000  Uiso   1.00
C431   C     0.46594   0.39804   0.72425   0.00000  Uiso   1.00
H432   H     0.47600   0.37079   0.71521   0.00000  Uiso   1.00
H433   H     0.48989   0.41647   0.72757   0.00000  Uiso   1.00
H434   H     0.44872   0.40977   0.70082   0.00000  Uiso   1.00
O435   O     0.10952   0.44384   0.28060   0.00000  Uiso   1.00
C436   C     0.11943   0.44448   0.32014   0.00000  Uiso   1.00
H437   H     0.11161   0.47125   0.33256   0.00000  Uiso   1.00
H438   H     0.14945   0.44160   0.32387   0.00000  Uiso   1.00
H439   H     0.10479   0.42305   0.33710   0.00000  Uiso   1.00
O440   O     0.39090   0.05644   0.71888   0.00000  Uiso   1.00
C441   C     0.37456   0.05257   0.68193   0.00000  Uiso   1.00
H442   H     0.37160   0.07882   0.66576   0.00000  Uiso   1.00
H443   H     0.34744   0.03904   0.68468   0.00000  Uiso   1.00
H444   H     0.39201   0.03450   0.66406   0.00000  Uiso   1.00
F445   F     0.44512   0.28428   0.39800   0.00000  Uiso   1.00
F446   F     0.05489   0.21573   0.60200   0.00000  Uiso   1.00
F447   F     0.21696   0.05572   0.39820   0.00000  Uiso   1.00
F448   F     0.28305   0.44428   0.60180   0.00000  Uiso   1.00
F449   F     0.05574   0.21699   0.39820   0.00000  Uiso   1.00
F450   F     0.44426   0.28300   0.60180   0.00000  Uiso   1.00
F451   F     0.28430   0.44513   0.39800   0.00000  Uiso   1.00
F452   F     0.21569   0.05486   0.60200   0.00000  Uiso   1.00
F453   F     0.19514   0.03430   0.89800   0.00000  Uiso   1.00
F454   F     0.30487   0.46571   0.10200   0.00000  Uiso   1.00
F455   F     0.46699   0.30574   0.89820   0.00000  Uiso   1.00
F456   F     0.03302   0.19427   0.10180   0.00000  Uiso   1.00
F457   F     0.30572   0.46696   0.89820   0.00000  Uiso   1.00
F458   F     0.19427   0.03303   0.10180   0.00000  Uiso   1.00
F459   F     0.03428   0.19512   0.89800   0.00000  Uiso   1.00
F460   F     0.46571   0.30487   0.10200   0.00000  Uiso   1.00
C461   C     0.97176   0.26729   0.41849   0.00000  Uiso   1.00
C462   C     0.52825   0.23271   0.58151   0.00000  Uiso   1.00
C463   C     0.73200   0.02771   0.41849   0.00000  Uiso   1.00
C464   C     0.76800   0.47229   0.58151   0.00000  Uiso   1.00
C465   C     0.52772   0.23201   0.41849   0.00000  Uiso   1.00
C466   C     0.97228   0.26798   0.58151   0.00000  Uiso   1.00
C467   C     0.76731   0.47176   0.41849   0.00000  Uiso   1.00
C468   C     0.73269   0.02823   0.58151   0.00000  Uiso   1.00
C469   C     0.72176   0.01731   0.91849   0.00000  Uiso   1.00
C470   C     0.77824   0.48270   0.08151   0.00000  Uiso   1.00
C471   C     0.98201   0.27772   0.91849   0.00000  Uiso   1.00
C472   C     0.51799   0.22228   0.08151   0.00000  Uiso   1.00
C473   C     0.77771   0.48200   0.91849   0.00000  Uiso   1.00
C474   C     0.72229   0.01800   0.08151   0.00000  Uiso   1.00
C475   C     0.51730   0.22176   0.91849   0.00000  Uiso   1.00
C476   C     0.98270   0.27824   0.08151   0.00000  Uiso   1.00
C477   C     0.99983   0.24976   0.39835   0.00000  Uiso   1.00
C478   C     0.50017   0.25024   0.60165   0.00000  Uiso   1.00
C479   C     0.74976   0.49983   0.39835   0.00000  Uiso   1.00
C480   C     0.75024   0.00017   0.60165   0.00000  Uiso   1.00
C481   C     0.74983   0.49976   0.89835   0.00000  Uiso   1.00
C482   C     0.75017   0.00024   0.10165   0.00000  Uiso   1.00
C483   C     0.99976   0.24983   0.89835   0.00000  Uiso   1.00
C484   C     0.50024   0.25017   0.10165   0.00000  Uiso   1.00
C485   C     0.55248   0.20863   0.47971   0.00000  Uiso   1.00
C486   C     0.94752   0.29136   0.52029   0.00000  Uiso   1.00
C487   C     0.78962   0.44612   0.47972   0.00000  Uiso   1.00
C488   C     0.71037   0.05387   0.52028   0.00000  Uiso   1.00
C489   C     0.94610   0.28959   0.47972   0.00000  Uiso   1.00
C490   C     0.55390   0.21041   0.52028   0.00000  Uiso   1.00
C491   C     0.70860   0.05245   0.47971   0.00000  Uiso   1.00
C492   C     0.79140   0.44755   0.52029   0.00000  Uiso   1.00
C493   C     0.80246   0.45861   0.97971   0.00000  Uiso   1.00
C494   C     0.69754   0.04139   0.02029   0.00000  Uiso   1.00
C495   C     0.53960   0.19611   0.97972   0.00000  Uiso   1.00
C496   C     0.96040   0.30390   0.02028   0.00000  Uiso   1.00
C497   C     0.69612   0.03962   0.97972   0.00000  Uiso   1.00
C498   C     0.80389   0.46039   0.02028   0.00000  Uiso   1.00
C499   C     0.95863   0.30247   0.97971   0.00000  Uiso   1.00
C500   C     0.54138   0.19753   0.02029   0.00000  Uiso   1.00
C501   C     0.75000   0.49997   0.35594   0.00000  Uiso   1.00
C502   C     0.75000   0.00003   0.64406   0.00000  Uiso   1.00
C503   C     0.99997   0.25000   0.35594   0.00000  Uiso   1.00
C504   C     0.50003   0.25000   0.64406   0.00000  Uiso   1.00
C505   C     0.50000   0.24997   0.85594   0.00000  Uiso   1.00
C506   C     0.50000   0.25003   0.14406   0.00000  Uiso   1.00
C507   C     0.74997   0.00000   0.85594   0.00000  Uiso   1.00
C508   C     0.75003  -0.00000   0.14406   0.00000  Uiso   1.00
C509   C     0.67999   0.07001   0.25000   0.00000  Uiso   1.00
C510   C     0.82001   0.42999   0.75000   0.00000  Uiso   1.00
C511   C     0.93007   0.18000   0.25014   0.00000  Uiso   1.00
C512   C     0.56992   0.32003   0.74983   0.00000  Uiso   1.00
C513   C     0.82005   0.42995   0.25000   0.00000  Uiso   1.00
C514   C     0.67995   0.07005   0.75000   0.00000  Uiso   1.00
C515   C     0.57000   0.31993   0.24986   0.00000  Uiso   1.00
C516   C     0.92997   0.18008   0.75017   0.00000  Uiso   1.00
C517   C     0.68011   0.42995   0.75020   0.00000  Uiso   1.00
C518   C     0.81988   0.07007   0.24978   0.00000  Uiso   1.00
C519   C     0.92998   0.32002   0.75000   0.00000  Uiso   1.00
C520   C     0.57002   0.17998   0.25000   0.00000  Uiso   1.00
C521   C     0.82004   0.06989   0.74980   0.00000  Uiso   1.00
C522   C     0.67993   0.43012   0.25022   0.00000  Uiso   1.00
C523   C     0.57005   0.17995   0.75000   0.00000  Uiso   1.00
C524   C     0.92995   0.32005   0.25000   0.00000  Uiso   1.00
C525   C     0.65988   0.36743   0.23488   0.00000  Uiso   1.00
C526   C     0.84012   0.13264   0.76542   0.00000  Uiso   1.00
C527   C     0.63511   0.16194   0.25437   0.00000  Uiso   1.00
C528   C     0.86491   0.33807   0.74542   0.00000  Uiso   1.00
C529   C     0.84035   0.13274   0.23421   0.00000  Uiso   1.00
C530   C     0.65958   0.36729   0.76593   0.00000  Uiso   1.00
C531   C     0.88989   0.36291   0.21449   0.00000  Uiso   1.00
C532   C     0.61012   0.13709   0.78551   0.00000  Uiso   1.00
C533   C     0.63709   0.11012   0.78551   0.00000  Uiso   1.00
C534   C     0.86291   0.38988   0.21449   0.00000  Uiso   1.00
C535   C     0.63264   0.34002   0.76515   0.00000  Uiso   1.00
C536   C     0.86729   0.15999   0.23461   0.00000  Uiso   1.00
C537   C     0.83800   0.36490   0.74580   0.00000  Uiso   1.00
C538   C     0.66201   0.13510   0.25418   0.00000  Uiso   1.00
C539   C     0.86737   0.15958   0.76576   0.00000  Uiso   1.00
C540   C     0.63267   0.34046   0.23419   0.00000  Uiso   1.00
C541   C     0.90997   0.11737   0.73481   0.00000  Uiso   1.00
C542   C     0.59001   0.38271   0.26540   0.00000  Uiso   1.00
C543   C     0.88510   0.41200   0.75422   0.00000  Uiso   1.00
C544   C     0.61490   0.08799   0.24582   0.00000  Uiso   1.00
C545   C     0.59040   0.38265   0.73429   0.00000  Uiso   1.00
C546   C     0.90954   0.11733   0.26580   0.00000  Uiso   1.00
C547   C     0.63988   0.11290   0.71449   0.00000  Uiso   1.00
C548   C     0.86012   0.38709   0.28551   0.00000  Uiso   1.00
C549   C     0.88709   0.36011   0.28551   0.00000  Uiso   1.00
C550   C     0.61291   0.13988   0.71449   0.00000  Uiso   1.00
C551   C     0.88257   0.09011   0.26511   0.00000  Uiso   1.00
C552   C     0.61734   0.40989   0.73462   0.00000  Uiso   1.00
C553   C     0.58806   0.11489   0.24563   0.00000  Uiso   1.00
C554   C     0.91193   0.38509   0.75458   0.00000  Uiso   1.00
C555   C     0.61726   0.40965   0.26579   0.00000  Uiso   1.00
C556   C     0.88270   0.09043   0.73404   0.00000  Uiso   1.00
C557   C     0.52679   0.22988   0.45912   0.00000  Uiso   1.00
C558   C     0.97320   0.27011   0.54088   0.00000  Uiso   1.00
C559   C     0.76888   0.47223   0.45916   0.00000  Uiso   1.00
C560   C     0.73111   0.02777   0.54084   0.00000  Uiso   1.00
C561   C     0.97222   0.26887   0.45916   0.00000  Uiso   1.00
C562   C     0.52779   0.23114   0.54084   0.00000  Uiso   1.00
C563   C     0.72987   0.02678   0.45912   0.00000  Uiso   1.00
C564   C     0.77013   0.47322   0.54088   0.00000  Uiso   1.00
C565   C     0.77678   0.47987   0.95912   0.00000  Uiso   1.00
C566   C     0.72322   0.02013   0.04088   0.00000  Uiso   1.00
C567   C     0.51887   0.22222   0.95916   0.00000  Uiso   1.00
C568   C     0.98113   0.27778   0.04084   0.00000  Uiso   1.00
C569   C     0.72223   0.01888   0.95916   0.00000  Uiso   1.00
C570   C     0.77778   0.48112   0.04084   0.00000  Uiso   1.00
C571   C     0.97988   0.27679   0.95912   0.00000  Uiso   1.00
C572   C     0.52012   0.22321   0.04088   0.00000  Uiso   1.00
C573   C     0.59791   0.34809   0.24976   0.00000  Uiso   1.00
C574   C     0.90201   0.15191   0.75027   0.00000  Uiso   1.00
C575   C     0.65196   0.09804   0.25000   0.00000  Uiso   1.00
C576   C     0.84805   0.40195   0.75001   0.00000  Uiso   1.00
C577   C     0.90191   0.15209   0.25024   0.00000  Uiso   1.00
C578   C     0.59808   0.34799   0.74973   0.00000  Uiso   1.00
C579   C     0.84812   0.40188   0.25000   0.00000  Uiso   1.00
C580   C     0.65188   0.09812   0.75000   0.00000  Uiso   1.00
C581   C     0.59812   0.15188   0.75000   0.00000  Uiso   1.00
C582   C     0.90188   0.34812   0.25000   0.00000  Uiso   1.00
C583   C     0.65196   0.40202   0.75030   0.00000  Uiso   1.00
C584   C     0.84802   0.09807   0.24967   0.00000  Uiso   1.00
C585   C     0.90193   0.34808   0.74999   0.00000  Uiso   1.00
C586   C     0.59809   0.15191   0.25000   0.00000  Uiso   1.00
C587   C     0.84798   0.09804   0.74971   0.00000  Uiso   1.00
C588   C     0.65193   0.40198   0.25032   0.00000  Uiso   1.00
C589   C     0.99980   0.24976   0.47958   0.00000  Uiso   1.00
C590   C     0.50020   0.25024   0.52041   0.00000  Uiso   1.00
C591   C     0.74976   0.49980   0.47959   0.00000  Uiso   1.00
C592   C     0.75024   0.00020   0.52042   0.00000  Uiso   1.00
C593   C     0.74980   0.49976   0.97958   0.00000  Uiso   1.00
C594   C     0.75020   0.00024   0.02041   0.00000  Uiso   1.00
C595   C     0.99976   0.24980   0.97959   0.00000  Uiso   1.00
C596   C     0.50024   0.25020   0.02042   0.00000  Uiso   1.00
O597   O     0.75000  -0.00000   0.25000   0.00000  Uiso   1.00
O598   O     0.75000  -0.00000   0.75000   0.00000  Uiso   1.00
O599   O     0.50000   0.25000   0.25000   0.00000  Uiso   1.00
O600   O     0.50000   0.25000   0.75000   0.00000  Uiso   1.00
O601   O     0.75000   0.46963   0.33755   0.00000  Uiso   1.00
O602   O     0.75000   0.03036   0.66245   0.00000  Uiso   1.00
O603   O     0.53037   0.25000   0.33755   0.00000  Uiso   1.00
O604   O     0.96964   0.25000   0.66245   0.00000  Uiso   1.00
O605   O     0.75000   0.03036   0.33755   0.00000  Uiso   1.00
O606   O     0.75000   0.46963   0.66245   0.00000  Uiso   1.00
O607   O     0.96964   0.25000   0.33755   0.00000  Uiso   1.00
O608   O     0.53037   0.25000   0.66245   0.00000  Uiso   1.00
O609   O     0.50000   0.21963   0.83755   0.00000  Uiso   1.00
O610   O     0.50000   0.28036   0.16245   0.00000  Uiso   1.00
O611   O     0.78037  -0.00000   0.83755   0.00000  Uiso   1.00
O612   O     0.71964  -0.00000   0.16245   0.00000  Uiso   1.00
O613   O     0.50000   0.28036   0.83755   0.00000  Uiso   1.00
O614   O     0.50000   0.21963   0.16245   0.00000  Uiso   1.00
O615   O     0.71964  -0.00000   0.83755   0.00000  Uiso   1.00
O616   O     0.78037  -0.00000   0.16245   0.00000  Uiso   1.00
O617   O     0.70725   0.07307   0.27302   0.00000  Uiso   1.00
O618   O     0.79276   0.42692   0.72698   0.00000  Uiso   1.00
O619   O     0.92693   0.20724   0.27302   0.00000  Uiso   1.00
O620   O     0.57308   0.29275   0.72698   0.00000  Uiso   1.00
O621   O     0.79276   0.42692   0.27302   0.00000  Uiso   1.00
O622   O     0.70725   0.07307   0.72698   0.00000  Uiso   1.00
O623   O     0.57308   0.29275   0.27302   0.00000  Uiso   1.00
O624   O     0.92693   0.20724   0.72698   0.00000  Uiso   1.00
O625   O     0.70725   0.42692   0.72698   0.00000  Uiso   1.00
O626   O     0.79276   0.07307   0.27302   0.00000  Uiso   1.00
O627   O     0.92693   0.29275   0.72698   0.00000  Uiso   1.00
O628   O     0.57308   0.20724   0.27302   0.00000  Uiso   1.00
O629   O     0.79276   0.07307   0.72698   0.00000  Uiso   1.00
O630   O     0.70725   0.42692   0.27302   0.00000  Uiso   1.00
O631   O     0.57308   0.20724   0.72698   0.00000  Uiso   1.00
O632   O     0.92693   0.29275   0.27302   0.00000  Uiso   1.00
O633   O     0.95725   0.32307   0.77302   0.00000  Uiso   1.00
O634   O     0.54276   0.17692   0.22698   0.00000  Uiso   1.00
O635   O     0.67693   0.45724   0.77302   0.00000  Uiso   1.00
O636   O     0.82308   0.04275   0.22698   0.00000  Uiso   1.00
O637   O     0.54276   0.17692   0.77302   0.00000  Uiso   1.00
O638   O     0.95725   0.32307   0.22698   0.00000  Uiso   1.00
O639   O     0.82308   0.04275   0.77302   0.00000  Uiso   1.00
O640   O     0.67693   0.45724   0.22698   0.00000  Uiso   1.00
O641   O     0.95725   0.17692   0.22698   0.00000  Uiso   1.00
O642   O     0.54276   0.32307   0.77302   0.00000  Uiso   1.00
O643   O     0.67693   0.04275   0.22698   0.00000  Uiso   1.00
O644   O     0.82308   0.45724   0.77302   0.00000  Uiso   1.00
O645   O     0.54276   0.32307   0.22698   0.00000  Uiso   1.00
O646   O     0.95725   0.17692   0.77302   0.00000  Uiso   1.00
O647   O     0.82308   0.45724   0.22698   0.00000  Uiso   1.00
O648   O     0.67693   0.04275   0.77302   0.00000  Uiso   1.00
Zn649  Zn    0.70660  -0.00000   0.21735   0.00000  Uiso   1.00
Zn650  Zn    0.79341  -0.00000   0.78265   0.00000  Uiso   1.00
Zn651  Zn    0.50000   0.20659   0.21735   0.00000  Uiso   1.00
Zn652  Zn    0.50000   0.29340   0.78265   0.00000  Uiso   1.00
Zn653  Zn    0.79341  -0.00000   0.21735   0.00000  Uiso   1.00
Zn654  Zn    0.70660  -0.00000   0.78265   0.00000  Uiso   1.00
Zn655  Zn    0.50000   0.29340   0.21735   0.00000  Uiso   1.00
Zn656  Zn    0.50000   0.20659   0.78265   0.00000  Uiso   1.00
Zn657  Zn    0.95660   0.25000   0.71735   0.00000  Uiso   1.00
Zn658  Zn    0.54341   0.25000   0.28265   0.00000  Uiso   1.00
Zn659  Zn    0.75000   0.45659   0.71735   0.00000  Uiso   1.00
Zn660  Zn    0.75000   0.04340   0.28265   0.00000  Uiso   1.00
Zn661  Zn    0.54341   0.25000   0.71735   0.00000  Uiso   1.00
Zn662  Zn    0.95660   0.25000   0.28265   0.00000  Uiso   1.00
Zn663  Zn    0.75000   0.04340   0.71735   0.00000  Uiso   1.00
Zn664  Zn    0.75000   0.45659   0.28265   0.00000  Uiso   1.00
O665   O     0.57736   0.18663   0.46067   0.00000  Uiso   1.00
C666   C     0.55992   0.15329   0.45076   0.00000  Uiso   1.00
H667   H     0.58114   0.13343   0.44199   0.00000  Uiso   1.00
H668   H     0.54111   0.15682   0.42583   0.00000  Uiso   1.00
H669   H     0.54436   0.14105   0.47537   0.00000  Uiso   1.00
O670   O     0.92263   0.31336   0.53932   0.00000  Uiso   1.00
C671   C     0.94007   0.34670   0.54924   0.00000  Uiso   1.00
H672   H     0.95889   0.34318   0.57416   0.00000  Uiso   1.00
H673   H     0.91884   0.36656   0.55802   0.00000  Uiso   1.00
H674   H     0.95560   0.35896   0.52462   0.00000  Uiso   1.00
O675   O     0.80584   0.41711   0.46062   0.00000  Uiso   1.00
C676   C     0.84244   0.42596   0.45108   0.00000  Uiso   1.00
H677   H     0.84780   0.45584   0.44744   0.00000  Uiso   1.00
H678   H     0.84927   0.41269   0.42312   0.00000  Uiso   1.00
H679   H     0.86108   0.41440   0.47318   0.00000  Uiso   1.00
O680   O     0.69415   0.08288   0.53939   0.00000  Uiso   1.00
C681   C     0.65755   0.07403   0.54892   0.00000  Uiso   1.00
H682   H     0.65073   0.08728   0.57690   0.00000  Uiso   1.00
H683   H     0.65218   0.04415   0.55254   0.00000  Uiso   1.00
H684   H     0.63891   0.08561   0.52684   0.00000  Uiso   1.00
O685   O     0.91708   0.30579   0.46061   0.00000  Uiso   1.00
C686   C     0.92590   0.34240   0.45107   0.00000  Uiso   1.00
H687   H     0.91266   0.34920   0.42309   0.00000  Uiso   1.00
H688   H     0.95579   0.34778   0.44747   0.00000  Uiso   1.00
H689   H     0.91430   0.36103   0.47315   0.00000  Uiso   1.00
O690   O     0.58292   0.19422   0.53938   0.00000  Uiso   1.00
C691   C     0.57410   0.15761   0.54892   0.00000  Uiso   1.00
H692   H     0.54422   0.15223   0.55257   0.00000  Uiso   1.00
H693   H     0.58738   0.15079   0.57689   0.00000  Uiso   1.00
H694   H     0.58568   0.13898   0.52683   0.00000  Uiso   1.00
O695   O     0.68658   0.07732   0.46068   0.00000  Uiso   1.00
C696   C     0.65326   0.05985   0.45075   0.00000  Uiso   1.00
H697   H     0.65680   0.04103   0.42584   0.00000  Uiso   1.00
H698   H     0.63339   0.08106   0.44195   0.00000  Uiso   1.00
H699   H     0.64100   0.04432   0.47537   0.00000  Uiso   1.00
O700   O     0.81342   0.42269   0.53933   0.00000  Uiso   1.00
C701   C     0.84674   0.44015   0.54925   0.00000  Uiso   1.00
H702   H     0.86663   0.41895   0.55802   0.00000  Uiso   1.00
H703   H     0.84320   0.45896   0.57417   0.00000  Uiso   1.00
H704   H     0.85898   0.45571   0.52463   0.00000  Uiso   1.00
O705   O     0.82733   0.43660   0.96067   0.00000  Uiso   1.00
C706   C     0.80987   0.40327   0.95075   0.00000  Uiso   1.00
H707   H     0.83108   0.38340   0.94196   0.00000  Uiso   1.00
H708   H     0.79105   0.40681   0.92584   0.00000  Uiso   1.00
H709   H     0.79433   0.39102   0.97538   0.00000  Uiso   1.00
O710   O     0.67267   0.06340   0.03932   0.00000  Uiso   1.00
C711   C     0.69012   0.09673   0.04925   0.00000  Uiso   1.00
H712   H     0.70894   0.09320   0.07417   0.00000  Uiso   1.00
H713   H     0.66891   0.11660   0.05802   0.00000  Uiso   1.00
H714   H     0.70567   0.10898   0.02463   0.00000  Uiso   1.00
O715   O     0.55581   0.16709   0.96062   0.00000  Uiso   1.00
C716   C     0.59242   0.17593   0.95108   0.00000  Uiso   1.00
H717   H     0.59778   0.20581   0.94742   0.00000  Uiso   1.00
H718   H     0.59924   0.16265   0.92312   0.00000  Uiso   1.00
H719   H     0.61105   0.16438   0.97318   0.00000  Uiso   1.00
O720   O     0.94420   0.33291   0.03939   0.00000  Uiso   1.00
C721   C     0.90759   0.32408   0.04892   0.00000  Uiso   1.00
H722   H     0.90077   0.33734   0.07690   0.00000  Uiso   1.00
H723   H     0.90221   0.29420   0.05255   0.00000  Uiso   1.00
H724   H     0.88896   0.33566   0.02684   0.00000  Uiso   1.00
O725   O     0.66711   0.05583   0.96061   0.00000  Uiso   1.00
C726   C     0.67594   0.09243   0.95108   0.00000  Uiso   1.00
H727   H     0.66269   0.09925   0.92311   0.00000  Uiso   1.00
H728   H     0.70583   0.09780   0.94745   0.00000  Uiso   1.00
H729   H     0.66437   0.11107   0.97317   0.00000  Uiso   1.00
O730   O     0.83290   0.44418   0.03938   0.00000  Uiso   1.00
C731   C     0.82407   0.40757   0.04892   0.00000  Uiso   1.00
H732   H     0.79418   0.40220   0.05254   0.00000  Uiso   1.00
H733   H     0.83733   0.40075   0.07689   0.00000  Uiso   1.00
H734   H     0.83564   0.38894   0.02683   0.00000  Uiso   1.00
O735   O     0.93663   0.32735   0.96068   0.00000  Uiso   1.00
C736   C     0.90329   0.30991   0.95076   0.00000  Uiso   1.00
H737   H     0.90681   0.29110   0.92583   0.00000  Uiso   1.00
H738   H     0.88342   0.33113   0.94200   0.00000  Uiso   1.00
H739   H     0.89104   0.29435   0.97538   0.00000  Uiso   1.00
O740   O     0.56339   0.17266   0.03933   0.00000  Uiso   1.00
C741   C     0.59672   0.19011   0.04925   0.00000  Uiso   1.00
H742   H     0.61660   0.16890   0.05799   0.00000  Uiso   1.00
H743   H     0.59319   0.20890   0.07419   0.00000  Uiso   1.00
H744   H     0.60896   0.20568   0.02463   0.00000  Uiso   1.00
O745   O     0.69497   0.35915   0.22280   0.00000  Uiso   1.00
C746   C     0.69891   0.36893   0.18342   0.00000  Uiso   1.00
H747   H     0.72781   0.36474   0.17482   0.00000  Uiso   1.00
H748   H     0.69250   0.39820   0.17816   0.00000  Uiso   1.00
H749   H     0.68174   0.35125   0.16458   0.00000  Uiso   1.00
O750   O     0.80546   0.14147   0.77863   0.00000  Uiso   1.00
C751   C     0.79801   0.12357   0.81420   0.00000  Uiso   1.00
H752   H     0.82284   0.11507   0.83055   0.00000  Uiso   1.00
H753   H     0.78026   0.09934   0.80904   0.00000  Uiso   1.00
H754   H     0.78255   0.14254   0.83307   0.00000  Uiso   1.00
O755   O     0.64556   0.19799   0.25977   0.00000  Uiso   1.00
C756   C     0.64880   0.21524   0.22328   0.00000  Uiso   1.00
H757   H     0.66544   0.24041   0.22692   0.00000  Uiso   1.00
H758   H     0.62151   0.22319   0.21220   0.00000  Uiso   1.00
H759   H     0.66300   0.19821   0.20132   0.00000  Uiso   1.00
O760   O     0.85443   0.30208   0.73957   0.00000  Uiso   1.00
C761   C     0.85182   0.28411   0.77574   0.00000  Uiso   1.00
H762   H     0.87910   0.27448   0.78519   0.00000  Uiso   1.00
H763   H     0.83379   0.25989   0.77224   0.00000  Uiso   1.00
H764   H     0.83953   0.30122   0.79892   0.00000  Uiso   1.00
O765   O     0.80617   0.14048   0.21939   0.00000  Uiso   1.00
C766   C     0.80553   0.13056   0.17985   0.00000  Uiso   1.00
H767   H     0.77879   0.13842   0.16740   0.00000  Uiso   1.00
H768   H     0.80838   0.10053   0.17614   0.00000  Uiso   1.00
H769   H     0.82701   0.14515   0.16290   0.00000  Uiso   1.00
O770   O     0.69357   0.35908   0.78108   0.00000  Uiso   1.00
C771   C     0.69741   0.37534   0.81807   0.00000  Uiso   1.00
H772   H     0.67116   0.37811   0.83428   0.00000  Uiso   1.00
H773   H     0.71077   0.40255   0.81539   0.00000  Uiso   1.00
H774   H     0.71560   0.35795   0.83586   0.00000  Uiso   1.00
O775   O     0.90121   0.34784   0.17965   0.00000  Uiso   1.00
C776   C     0.93058   0.36841   0.16378   0.00000  Uiso   1.00
H777   H     0.95434   0.35022   0.15958   0.00000  Uiso   1.00
H778   H     0.93986   0.39214   0.18162   0.00000  Uiso   1.00
H779   H     0.92279   0.37836   0.13460   0.00000  Uiso   1.00
O780   O     0.59880   0.15216   0.82035   0.00000  Uiso   1.00
C781   C     0.56943   0.13158   0.83622   0.00000  Uiso   1.00
H782   H     0.56016   0.10784   0.81839   0.00000  Uiso   1.00
H783   H     0.54566   0.14976   0.84041   0.00000  Uiso   1.00
H784   H     0.57722   0.12165   0.86541   0.00000  Uiso   1.00
O785   O     0.65217   0.09880   0.82035   0.00000  Uiso   1.00
C786   C     0.63160   0.06943   0.83622   0.00000  Uiso   1.00
H787   H     0.64979   0.04566   0.84042   0.00000  Uiso   1.00
H788   H     0.60786   0.06015   0.81839   0.00000  Uiso   1.00
H789   H     0.62165   0.07721   0.86540   0.00000  Uiso   1.00
O790   O     0.84784   0.40121   0.17965   0.00000  Uiso   1.00
C791   C     0.86842   0.43057   0.16378   0.00000  Uiso   1.00
H792   H     0.89217   0.43983   0.18161   0.00000  Uiso   1.00
H793   H     0.85024   0.45434   0.15959   0.00000  Uiso   1.00
H794   H     0.87835   0.42278   0.13459   0.00000  Uiso   1.00
O795   O     0.64099   0.30486   0.77695   0.00000  Uiso   1.00
C796   C     0.63098   0.30047   0.81622   0.00000  Uiso   1.00
H797   H     0.63390   0.27122   0.82408   0.00000  Uiso   1.00
H798   H     0.60203   0.30803   0.82176   0.00000  Uiso   1.00
H799   H     0.64942   0.31639   0.83542   0.00000  Uiso   1.00
O800   O     0.85844   0.19468   0.22149   0.00000  Uiso   1.00
C801   C     0.87641   0.20228   0.18599   0.00000  Uiso   1.00
H802   H     0.88522   0.17752   0.16968   0.00000  Uiso   1.00
H803   H     0.90046   0.22024   0.19125   0.00000  Uiso   1.00
H804   H     0.85736   0.21754   0.16703   0.00000  Uiso   1.00
O805   O     0.80187   0.35414   0.74145   0.00000  Uiso   1.00
C806   C     0.78387   0.35529   0.77774   0.00000  Uiso   1.00
H807   H     0.76862   0.38123   0.78048   0.00000  Uiso   1.00
H808   H     0.80226   0.35236   0.80330   0.00000  Uiso   1.00
H809   H     0.76379   0.33247   0.77898   0.00000  Uiso   1.00
O810   O     0.69813   0.14584   0.25867   0.00000  Uiso   1.00
C811   C     0.71648   0.14425   0.22258   0.00000  Uiso   1.00
H812   H     0.69823   0.14493   0.19671   0.00000  Uiso   1.00
H813   H     0.73327   0.11916   0.22126   0.00000  Uiso   1.00
H814   H     0.73521   0.16813   0.22042   0.00000  Uiso   1.00
O815   O     0.85962   0.19384   0.78037   0.00000  Uiso   1.00
C816   C     0.86954   0.19476   0.81989   0.00000  Uiso   1.00
H817   H     0.86206   0.22175   0.83198   0.00000  Uiso   1.00
H818   H     0.89952   0.19152   0.82369   0.00000  Uiso   1.00
H819   H     0.85462   0.17367   0.83705   0.00000  Uiso   1.00
O820   O     0.64105   0.30636   0.21944   0.00000  Uiso   1.00
C821   C     0.62426   0.30161   0.18284   0.00000  Uiso   1.00
H822   H     0.61983   0.32760   0.16660   0.00000  Uiso   1.00
H823   H     0.59784   0.28686   0.18623   0.00000  Uiso   1.00
H824   H     0.64219   0.28425   0.16471   0.00000  Uiso   1.00
O825   O     0.94511   0.10903   0.72293   0.00000  Uiso   1.00
C826   C     0.94943   0.11906   0.68366   0.00000  Uiso   1.00
H827   H     0.97863   0.11596   0.67568   0.00000  Uiso   1.00
H828   H     0.94203   0.14806   0.67821   0.00000  Uiso   1.00
H829   H     0.93331   0.10075   0.66449   0.00000  Uiso   1.00
O830   O     0.55533   0.39154   0.27854   0.00000  Uiso   1.00
C831   C     0.54775   0.37357   0.31405   0.00000  Uiso   1.00
H832   H     0.57252   0.36478   0.33035   0.00000  Uiso   1.00
H833   H     0.52981   0.34951   0.30879   0.00000  Uiso   1.00
H834   H     0.53248   0.39260   0.33301   0.00000  Uiso   1.00
O835   O     0.89585   0.44812   0.75862   0.00000  Uiso   1.00
C836   C     0.89486   0.46611   0.72232   0.00000  Uiso   1.00
H837   H     0.86883   0.48117   0.71934   0.00000  Uiso   1.00
H838   H     0.89814   0.44774   0.69680   0.00000  Uiso   1.00
H839   H     0.91755   0.48635   0.72128   0.00000  Uiso   1.00
O840   O     0.60416   0.05187   0.24133   0.00000  Uiso   1.00
C841   C     0.60577   0.03351   0.27741   0.00000  Uiso   1.00
H842   H     0.60514   0.05176   0.30329   0.00000  Uiso   1.00
H843   H     0.63085   0.01669   0.27870   0.00000  Uiso   1.00
H844   H     0.58187   0.01480   0.27960   0.00000  Uiso   1.00
O845   O     0.55613   0.39042   0.71971   0.00000  Uiso   1.00
C846   C     0.55520   0.38053   0.68018   0.00000  Uiso   1.00
H847   H     0.52825   0.38817   0.66807   0.00000  Uiso   1.00
H848   H     0.55826   0.35053   0.67637   0.00000  Uiso   1.00
H849   H     0.57638   0.39534   0.66304   0.00000  Uiso   1.00
O850   O     0.94365   0.10895   0.28055   0.00000  Uiso   1.00
C851   C     0.94840   0.12574   0.31715   0.00000  Uiso   1.00
H852   H     0.92240   0.13016   0.33339   0.00000  Uiso   1.00
H853   H     0.96315   0.15216   0.31376   0.00000  Uiso   1.00
H854   H     0.96576   0.10781   0.33528   0.00000  Uiso   1.00
O855   O     0.65120   0.09783   0.67965   0.00000  Uiso   1.00
C856   C     0.68056   0.11840   0.66376   0.00000  Uiso   1.00
H857   H     0.70435   0.10023   0.65961   0.00000  Uiso   1.00
H858   H     0.68980   0.14217   0.68157   0.00000  Uiso   1.00
H859   H     0.67278   0.12830   0.63456   0.00000  Uiso   1.00
O860   O     0.84880   0.40216   0.32035   0.00000  Uiso   1.00
C861   C     0.81944   0.38158   0.33623   0.00000  Uiso   1.00
H862   H     0.81018   0.35782   0.31841   0.00000  Uiso   1.00
H863   H     0.79565   0.39976   0.34040   0.00000  Uiso   1.00
H864   H     0.82722   0.37167   0.36542   0.00000  Uiso   1.00
O865   O     0.90216   0.34879   0.32035   0.00000  Uiso   1.00
C866   C     0.88159   0.31941   0.33621   0.00000  Uiso   1.00
H867   H     0.89979   0.29566   0.34043   0.00000  Uiso   1.00
H868   H     0.85787   0.31012   0.31835   0.00000  Uiso   1.00
H869   H     0.87162   0.32720   0.36538   0.00000  Uiso   1.00
O870   O     0.59785   0.15121   0.67965   0.00000  Uiso   1.00
C871   C     0.61843   0.18059   0.66380   0.00000  Uiso   1.00
H872   H     0.64213   0.18989   0.68167   0.00000  Uiso   1.00
H873   H     0.60022   0.20434   0.65956   0.00000  Uiso   1.00
H874   H     0.62842   0.17280   0.63464   0.00000  Uiso   1.00
O875   O     0.89085   0.05502   0.27717   0.00000  Uiso   1.00
C876   C     0.88111   0.05107   0.31656   0.00000  Uiso   1.00
H877   H     0.88524   0.02216   0.32513   0.00000  Uiso   1.00
H878   H     0.85186   0.05755   0.32186   0.00000  Uiso   1.00
H879   H     0.89885   0.06818   0.33539   0.00000  Uiso   1.00
O880   O     0.60851   0.44456   0.72145   0.00000  Uiso   1.00
C881   C     0.62639   0.45205   0.68587   0.00000  Uiso   1.00
H882   H     0.63493   0.42722   0.66952   0.00000  Uiso   1.00
H883   H     0.65060   0.46982   0.69103   0.00000  Uiso   1.00
H884   H     0.60739   0.46747   0.66701   0.00000  Uiso   1.00
O885   O     0.55201   0.10444   0.24024   0.00000  Uiso   1.00
C886   C     0.53477   0.10118   0.27673   0.00000  Uiso   1.00
H887   H     0.50956   0.08462   0.27308   0.00000  Uiso   1.00
H888   H     0.52692   0.12847   0.28790   0.00000  Uiso   1.00
H889   H     0.55178   0.08687   0.29864   0.00000  Uiso   1.00
O890   O     0.94793   0.39558   0.76041   0.00000  Uiso   1.00
C891   C     0.96594   0.39804   0.72425   0.00000  Uiso   1.00
H892   H     0.97600   0.37079   0.71521   0.00000  Uiso   1.00
H893   H     0.98989   0.41647   0.72757   0.00000  Uiso   1.00
H894   H     0.94872   0.40977   0.70082   0.00000  Uiso   1.00
O895   O     0.60952   0.44384   0.28060   0.00000  Uiso   1.00
C896   C     0.61943   0.44448   0.32014   0.00000  Uiso   1.00
H897   H     0.61161   0.47125   0.33256   0.00000  Uiso   1.00
H898   H     0.64945   0.44160   0.32387   0.00000  Uiso   1.00
H899   H     0.60479   0.42305   0.33710   0.00000  Uiso   1.00
O900   O     0.89090   0.05644   0.71888   0.00000  Uiso   1.00
C901   C     0.87456   0.05257   0.68193   0.00000  Uiso   1.00
H902   H     0.87160   0.07882   0.66576   0.00000  Uiso   1.00
H903   H     0.84744   0.03904   0.68468   0.00000  Uiso   1.00
H904   H     0.89201   0.03450   0.66406   0.00000  Uiso   1.00
F905   F     0.94512   0.28428   0.39800   0.00000  Uiso   1.00
F906   F     0.55489   0.21573   0.60200   0.00000  Uiso   1.00
F907   F     0.71696   0.05572   0.39820   0.00000  Uiso   1.00
F908   F     0.78305   0.44428   0.60180   0.00000  Uiso   1.00
F909   F     0.55574   0.21699   0.39820   0.00000  Uiso   1.00
F910   F     0.94426   0.28300   0.60180   0.00000  Uiso   1.00
F911   F     0.78430   0.44513   0.39800   0.00000  Uiso   1.00
F912   F     0.71569   0.05486   0.60200   0.00000  Uiso   1.00
F913   F     0.69514   0.03430   0.89800   0.00000  Uiso   1.00
F914   F     0.80487   0.46571   0.10200   0.00000  Uiso   1.00
F915   F     0.96699   0.30574   0.89820   0.00000  Uiso   1.00
F916   F     0.53302   0.19427   0.10180   0.00000  Uiso   1.00
F917   F     0.80572   0.46696   0.89820   0.00000  Uiso   1.00
F918   F     0.69427   0.03303   0.10180   0.00000  Uiso   1.00
F919   F     0.53428   0.19512   0.89800   0.00000  Uiso   1.00
F920   F     0.96571   0.30487   0.10200   0.00000  Uiso   1.00
C921   C     0.47176   0.76729   0.41849   0.00000  Uiso   1.00
C922   C     0.02825   0.73271   0.58151   0.00000  Uiso   1.00
C923   C     0.23200   0.52771   0.41849   0.00000  Uiso   1.00
C924   C     0.26800   0.97229   0.58151   0.00000  Uiso   1.00
C925   C     0.02772   0.73201   0.41849   0.00000  Uiso   1.00
C926   C     0.47228   0.76798   0.58151   0.00000  Uiso   1.00
C927   C     0.26731   0.97176   0.41849   0.00000  Uiso   1.00
C928   C     0.23269   0.52823   0.58151   0.00000  Uiso   1.00
C929   C     0.22176   0.51731   0.91849   0.00000  Uiso   1.00
C930   C     0.27824   0.98270   0.08151   0.00000  Uiso   1.00
C931   C     0.48201   0.77772   0.91849   0.00000  Uiso   1.00
C932   C     0.01799   0.72228   0.08151   0.00000  Uiso   1.00
C933   C     0.27771   0.98200   0.91849   0.00000  Uiso   1.00
C934   C     0.22229   0.51800   0.08151   0.00000  Uiso   1.00
C935   C     0.01730   0.72176   0.91849   0.00000  Uiso   1.00
C936   C     0.48270   0.77824   0.08151   0.00000  Uiso   1.00
C937   C     0.49983   0.74976   0.39835   0.00000  Uiso   1.00
C938   C     0.00017   0.75024   0.60165   0.00000  Uiso   1.00
C939   C     0.24976   0.99983   0.39835   0.00000  Uiso   1.00
C940   C     0.25024   0.50017   0.60165   0.00000  Uiso   1.00
C941   C     0.24983   0.99976   0.89835   0.00000  Uiso   1.00
C942   C     0.25017   0.50024   0.10165   0.00000  Uiso   1.00
C943   C     0.49976   0.74983   0.89835   0.00000  Uiso   1.00
C944   C     0.00024   0.75017   0.10165   0.00000  Uiso   1.00
C945   C     0.05248   0.70863   0.47971   0.00000  Uiso   1.00
C946   C     0.44752   0.79136   0.52029   0.00000  Uiso   1.00
C947   C     0.28962   0.94612   0.47972   0.00000  Uiso   1.00
C948   C     0.21037   0.55387   0.52028   0.00000  Uiso   1.00
C949   C     0.44610   0.78959   0.47972   0.00000  Uiso   1.00
C950   C     0.05390   0.71041   0.52028   0.00000  Uiso   1.00
C951   C     0.20860   0.55245   0.47971   0.00000  Uiso   1.00
C952   C     0.29140   0.94755   0.52029   0.00000  Uiso   1.00
C953   C     0.30246   0.95861   0.97971   0.00000  Uiso   1.00
C954   C     0.19754   0.54139   0.02029   0.00000  Uiso   1.00
C955   C     0.03960   0.69611   0.97972   0.00000  Uiso   1.00
C956   C     0.46040   0.80390   0.02028   0.00000  Uiso   1.00
C957   C     0.19612   0.53962   0.97972   0.00000  Uiso   1.00
C958   C     0.30389   0.96039   0.02028   0.00000  Uiso   1.00
C959   C     0.45863   0.80247   0.97971   0.00000  Uiso   1.00
C960   C     0.04138   0.69753   0.02029   0.00000  Uiso   1.00
C961   C     0.25000   0.99997   0.35594   0.00000  Uiso   1.00
C962   C     0.25000   0.50003   0.64406   0.00000  Uiso   1.00
C963   C     0.49997   0.75000   0.35594   0.00000  Uiso   1.00
C964   C     0.00003   0.75000   0.64406   0.00000  Uiso   1.00
C965   C     0.00000   0.74997   0.85594   0.00000  Uiso   1.00
C966   C    -0.00000   0.75003   0.14406   0.00000  Uiso   1.00
C967   C     0.24997   0.50000   0.85594   0.00000  Uiso   1.00
C968   C     0.25003   0.50000   0.14406   0.00000  Uiso   1.00
C969   C     0.17999   0.57001   0.25000   0.00000  Uiso   1.00
C970   C     0.32001   0.92999   0.75000   0.00000  Uiso   1.00
C971   C     0.43007   0.68000   0.25014   0.00000  Uiso   1.00
C972   C     0.06992   0.82003   0.74983   0.00000  Uiso   1.00
C973   C     0.32005   0.92995   0.25000   0.00000  Uiso   1.00
C974   C     0.17995   0.57005   0.75000   0.00000  Uiso   1.00
C975   C     0.07000   0.81993   0.24986   0.00000  Uiso   1.00
C976   C     0.42997   0.68008   0.75017   0.00000  Uiso   1.00
C977   C     0.18011   0.92995   0.75020   0.00000  Uiso   1.00
C978   C     0.31988   0.57007   0.24978   0.00000  Uiso   1.00
C979   C     0.42998   0.82002   0.75000   0.00000  Uiso   1.00
C980   C     0.07002   0.67998   0.25000   0.00000  Uiso   1.00
C981   C     0.32004   0.56989   0.74980   0.00000  Uiso   1.00
C982   C     0.17993   0.93012   0.25022   0.00000  Uiso   1.00
C983   C     0.07005   0.67995   0.75000   0.00000  Uiso   1.00
C984   C     0.42995   0.82005   0.25000   0.00000  Uiso   1.00
C985   C     0.15988   0.86743   0.23488   0.00000  Uiso   1.00
C986   C     0.34012   0.63264   0.76542   0.00000  Uiso   1.00
C987   C     0.13511   0.66194   0.25437   0.00000  Uiso   1.00
C988   C     0.36491   0.83807   0.74542   0.00000  Uiso   1.00
C989   C     0.34035   0.63274   0.23421   0.00000  Uiso   1.00
C990   C     0.15958   0.86729   0.76593   0.00000  Uiso   1.00
C991   C     0.38989   0.86291   0.21449   0.00000  Uiso   1.00
C992   C     0.11012   0.63709   0.78551   0.00000  Uiso   1.00
C993   C     0.13709   0.61012   0.78551   0.00000  Uiso   1.00
C994   C     0.36291   0.88988   0.21449   0.00000  Uiso   1.00
C995   C     0.13264   0.84002   0.76515   0.00000  Uiso   1.00
C996   C     0.36729   0.65999   0.23461   0.00000  Uiso   1.00
C997   C     0.33800   0.86490   0.74580   0.00000  Uiso   1.00
C998   C     0.16201   0.63510   0.25418   0.00000  Uiso   1.00
C999   C     0.36737   0.65958   0.76576   0.00000  Uiso   1.00
C1000  C     0.13267   0.84046   0.23419   0.00000  Uiso   1.00
C1001  C     0.40997   0.61737   0.73481   0.00000  Uiso   1.00
C1002  C     0.09001   0.88271   0.26540   0.00000  Uiso   1.00
C1003  C     0.38510   0.91200   0.75422   0.00000  Uiso   1.00
C1004  C     0.11490   0.58799   0.24582   0.00000  Uiso   1.00
C1005  C     0.09040   0.88265   0.73429   0.00000  Uiso   1.00
C1006  C     0.40954   0.61733   0.26580   0.00000  Uiso   1.00
C1007  C     0.13988   0.61290   0.71449   0.00000  Uiso   1.00
C1008  C     0.36012   0.88709   0.28551   0.00000  Uiso   1.00
C1009  C     0.38709   0.86011   0.28551   0.00000  Uiso   1.00
C1010  C     0.11291   0.63988   0.71449   0.00000  Uiso   1.00
C1011  C     0.38257   0.59011   0.26511   0.00000  Uiso   1.00
C1012  C     0.11734   0.90989   0.73462   0.00000  Uiso   1.00
C1013  C     0.08806   0.61489   0.24563   0.00000  Uiso   1.00
C1014  C     0.41193   0.88509   0.75458   0.00000  Uiso   1.00
C1015  C     0.11726   0.90965   0.26579   0.00000  Uiso   1.00
C1016  C     0.38270   0.59043   0.73404   0.00000  Uiso   1.00
C1017  C     0.02679   0.72988   0.45912   0.00000  Uiso   1.00
C1018  C     0.47320   0.77011   0.54088   0.00000  Uiso   1.00
C1019  C     0.26888   0.97223   0.45916   0.00000  Uiso   1.00
C1020  C     0.23111   0.52777   0.54084   0.00000  Uiso   1.00
C1021  C     0.47222   0.76887   0.45916   0.00000  Uiso   1.00
C1022  C     0.02779   0.73114   0.54084   0.00000  Uiso   1.00
C1023  C     0.22987   0.52678   0.45912   0.00000  Uiso   1.00
C1024  C     0.27013   0.97322   0.54088   0.00000  Uiso   1.00
C1025  C     0.27678   0.97987   0.95912   0.00000  Uiso   1.00
C1026  C     0.22322   0.52013   0.04088   0.00000  Uiso   1.00
C1027  C     0.01887   0.72222   0.95916   0.00000  Uiso   1.00
C1028  C     0.48113   0.77778   0.04084   0.00000  Uiso   1.00
C1029  C     0.22223   0.51888   0.95916   0.00000  Uiso   1.00
C1030  C     0.27778   0.98112   0.04084   0.00000  Uiso   1.00
C1031  C     0.47988   0.77679   0.95912   0.00000  Uiso   1.00
C1032  C     0.02012   0.72321   0.04088   0.00000  Uiso   1.00
C1033  C     0.09791   0.84809   0.24976   0.00000  Uiso   1.00
C1034  C     0.40201   0.65191   0.75027   0.00000  Uiso   1.00
C1035  C     0.15196   0.59804   0.25000   0.00000  Uiso   1.00
C1036  C     0.34805   0.90195   0.75001   0.00000  Uiso   1.00
C1037  C     0.40191   0.65209   0.25024   0.00000  Uiso   1.00
C1038  C     0.09808   0.84799   0.74973   0.00000  Uiso   1.00
C1039  C     0.34812   0.90188   0.25000   0.00000  Uiso   1.00
C1040  C     0.15188   0.59812   0.75000   0.00000  Uiso   1.00
C1041  C     0.09812   0.65188   0.75000   0.00000  Uiso   1.00
C1042  C     0.40188   0.84812   0.25000   0.00000  Uiso   1.00
C1043  C     0.15196   0.90202   0.75030   0.00000  Uiso   1.00
C1044  C     0.34802   0.59807   0.24967   0.00000  Uiso   1.00
C1045  C     0.40193   0.84808   0.74999   0.00000  Uiso   1.00
C1046  C     0.09809   0.65191   0.25000   0.00000  Uiso   1.00
C1047  C     0.34798   0.59804   0.74971   0.00000  Uiso   1.00
C1048  C     0.15193   0.90198   0.25032   0.00000  Uiso   1.00
C1049  C     0.49980   0.74976   0.47958   0.00000  Uiso   1.00
C1050  C     0.00020   0.75024   0.52041   0.00000  Uiso   1.00
C1051  C     0.24976   0.99980   0.47959   0.00000  Uiso   1.00
C1052  C     0.25024   0.50020   0.52042   0.00000  Uiso   1.00
C1053  C     0.24980   0.99976   0.97958   0.00000  Uiso   1.00
C1054  C     0.25020   0.50024   0.02041   0.00000  Uiso   1.00
C1055  C     0.49976   0.74980   0.97959   0.00000  Uiso   1.00
C1056  C     0.00024   0.75020   0.02042   0.00000  Uiso   1.00
O1057  O     0.25000   0.50000   0.25000   0.00000  Uiso   1.00
O1058  O     0.25000   0.50000   0.75000   0.00000  Uiso   1.00
O1059  O     0.00000   0.75000   0.25000   0.00000  Uiso   1.00
O1060  O     0.00000   0.75000   0.75000   0.00000  Uiso   1.00
O1061  O     0.25000   0.96963   0.33755   0.00000  Uiso   1.00
O1062  O     0.25000   0.53036   0.66245   0.00000  Uiso   1.00
O1063  O     0.03037   0.75000   0.33755   0.00000  Uiso   1.00
O1064  O     0.46964   0.75000   0.66245   0.00000  Uiso   1.00
O1065  O     0.25000   0.53036   0.33755   0.00000  Uiso   1.00
O1066  O     0.25000   0.96963   0.66245   0.00000  Uiso   1.00
O1067  O     0.46964   0.75000   0.33755   0.00000  Uiso   1.00
O1068  O     0.03037   0.75000   0.66245   0.00000  Uiso   1.00
O1069  O     0.00000   0.71963   0.83755   0.00000  Uiso   1.00
O1070  O     0.00000   0.78036   0.16245   0.00000  Uiso   1.00
O1071  O     0.28037   0.50000   0.83755   0.00000  Uiso   1.00
O1072  O     0.21964   0.50000   0.16245   0.00000  Uiso   1.00
O1073  O     0.00000   0.78036   0.83755   0.00000  Uiso   1.00
O1074  O     0.00000   0.71963   0.16245   0.00000  Uiso   1.00
O1075  O     0.21964   0.50000   0.83755   0.00000  Uiso   1.00
O1076  O     0.28037   0.50000   0.16245   0.00000  Uiso   1.00
O1077  O     0.20725   0.57307   0.27302   0.00000  Uiso   1.00
O1078  O     0.29276   0.92692   0.72698   0.00000  Uiso   1.00
O1079  O     0.42693   0.70724   0.27302   0.00000  Uiso   1.00
O1080  O     0.07308   0.79275   0.72698   0.00000  Uiso   1.00
O1081  O     0.29276   0.92692   0.27302   0.00000  Uiso   1.00
O1082  O     0.20725   0.57307   0.72698   0.00000  Uiso   1.00
O1083  O     0.07308   0.79275   0.27302   0.00000  Uiso   1.00
O1084  O     0.42693   0.70724   0.72698   0.00000  Uiso   1.00
O1085  O     0.20725   0.92692   0.72698   0.00000  Uiso   1.00
O1086  O     0.29276   0.57307   0.27302   0.00000  Uiso   1.00
O1087  O     0.42693   0.79275   0.72698   0.00000  Uiso   1.00
O1088  O     0.07308   0.70724   0.27302   0.00000  Uiso   1.00
O1089  O     0.29276   0.57307   0.72698   0.00000  Uiso   1.00
O1090  O     0.20725   0.92692   0.27302   0.00000  Uiso   1.00
O1091  O     0.07308   0.70724   0.72698   0.00000  Uiso   1.00
O1092  O     0.42693   0.79275   0.27302   0.00000  Uiso   1.00
O1093  O     0.45725   0.82307   0.77302   0.00000  Uiso   1.00
O1094  O     0.04276   0.67692   0.22698   0.00000  Uiso   1.00
O1095  O     0.17693   0.95724   0.77302   0.00000  Uiso   1.00
O1096  O     0.32308   0.54275   0.22698   0.00000  Uiso   1.00
O1097  O     0.04276   0.67692   0.77302   0.00000  Uiso   1.00
O1098  O     0.45725   0.82307   0.22698   0.00000  Uiso   1.00
O1099  O     0.32308   0.54275   0.77302   0.00000  Uiso   1.00
O1100  O     0.17693   0.95724   0.22698   0.00000  Uiso   1.00
O1101  O     0.45725   0.67692   0.22698   0.00000  Uiso   1.00
O1102  O     0.04276   0.82307   0.77302   0.00000  Uiso   1.00
O1103  O     0.17693   0.54275   0.22698   0.00000  Uiso   1.00
O1104  O     0.32308   0.95724   0.77302   0.00000  Uiso   1.00
O1105  O     0.04276   0.82307   0.22698   0.00000  Uiso   1.00
O1106  O     0.45725   0.67692   0.77302   0.00000  Uiso   1.00
O1107  O     0.32308   0.95724   0.22698   0.00000  Uiso   1.00
O1108  O     0.17693   0.54275   0.77302   0.00000  Uiso   1.00
Zn1109 Zn    0.20660   0.50000   0.21735   0.00000  Uiso   1.00
Zn1110 Zn    0.29341   0.50000   0.78265   0.00000  Uiso   1.00
Zn1111 Zn    0.00000   0.70659   0.21735   0.00000  Uiso   1.00
Zn1112 Zn    0.00000   0.79340   0.78265   0.00000  Uiso   1.00
Zn1113 Zn    0.29341   0.50000   0.21735   0.00000  Uiso   1.00
Zn1114 Zn    0.20660   0.50000   0.78265   0.00000  Uiso   1.00
Zn1115 Zn    0.00000   0.79340   0.21735   0.00000  Uiso   1.00
Zn1116 Zn    0.00000   0.70659   0.78265   0.00000  Uiso   1.00
Zn1117 Zn    0.45660   0.75000   0.71735   0.00000  Uiso   1.00
Zn1118 Zn    0.04341   0.75000   0.28265   0.00000  Uiso   1.00
Zn1119 Zn    0.25000   0.95659   0.71735   0.00000  Uiso   1.00
Zn1120 Zn    0.25000   0.54340   0.28265   0.00000  Uiso   1.00
Zn1121 Zn    0.04341   0.75000   0.71735   0.00000  Uiso   1.00
Zn1122 Zn    0.45660   0.75000   0.28265   0.00000  Uiso   1.00
Zn1123 Zn    0.25000   0.54340   0.71735   0.00000  Uiso   1.00
Zn1124 Zn    0.25000   0.95659   0.28265   0.00000  Uiso   1.00
O1125  O     0.07736   0.68663   0.46067   0.00000  Uiso   1.00
C1126  C     0.05992   0.65329   0.45076   0.00000  Uiso   1.00
H1127  H     0.08114   0.63343   0.44199   0.00000  Uiso   1.00
H1128  H     0.04111   0.65682   0.42583   0.00000  Uiso   1.00
H1129  H     0.04436   0.64105   0.47537   0.00000  Uiso   1.00
O1130  O     0.42263   0.81336   0.53932   0.00000  Uiso   1.00
C1131  C     0.44007   0.84670   0.54924   0.00000  Uiso   1.00
H1132  H     0.45889   0.84318   0.57416   0.00000  Uiso   1.00
H1133  H     0.41884   0.86656   0.55802   0.00000  Uiso   1.00
H1134  H     0.45560   0.85896   0.52462   0.00000  Uiso   1.00
O1135  O     0.30584   0.91711   0.46062   0.00000  Uiso   1.00
C1136  C     0.34244   0.92596   0.45108   0.00000  Uiso   1.00
H1137  H     0.34780   0.95584   0.44744   0.00000  Uiso   1.00
H1138  H     0.34927   0.91269   0.42312   0.00000  Uiso   1.00
H1139  H     0.36108   0.91440   0.47318   0.00000  Uiso   1.00
O1140  O     0.19415   0.58288   0.53939   0.00000  Uiso   1.00
C1141  C     0.15755   0.57403   0.54892   0.00000  Uiso   1.00
H1142  H     0.15073   0.58728   0.57690   0.00000  Uiso   1.00
H1143  H     0.15218   0.54415   0.55254   0.00000  Uiso   1.00
H1144  H     0.13891   0.58561   0.52684   0.00000  Uiso   1.00
O1145  O     0.41708   0.80579   0.46061   0.00000  Uiso   1.00
C1146  C     0.42590   0.84240   0.45107   0.00000  Uiso   1.00
H1147  H     0.41266   0.84920   0.42309   0.00000  Uiso   1.00
H1148  H     0.45579   0.84778   0.44747   0.00000  Uiso   1.00
H1149  H     0.41430   0.86103   0.47315   0.00000  Uiso   1.00
O1150  O     0.08292   0.69422   0.53938   0.00000  Uiso   1.00
C1151  C     0.07410   0.65761   0.54892   0.00000  Uiso   1.00
H1152  H     0.04422   0.65223   0.55257   0.00000  Uiso   1.00
H1153  H     0.08738   0.65079   0.57689   0.00000  Uiso   1.00
H1154  H     0.08568   0.63898   0.52683   0.00000  Uiso   1.00
O1155  O     0.18658   0.57732   0.46068   0.00000  Uiso   1.00
C1156  C     0.15326   0.55985   0.45075   0.00000  Uiso   1.00
H1157  H     0.15680   0.54103   0.42584   0.00000  Uiso   1.00
H1158  H     0.13339   0.58106   0.44195   0.00000  Uiso   1.00
H1159  H     0.14100   0.54432   0.47537   0.00000  Uiso   1.00
O1160  O     0.31342   0.92269   0.53933   0.00000  Uiso   1.00
C1161  C     0.34674   0.94015   0.54925   0.00000  Uiso   1.00
H1162  H     0.36663   0.91895   0.55802   0.00000  Uiso   1.00
H1163  H     0.34320   0.95896   0.57417   0.00000  Uiso   1.00
H1164  H     0.35898   0.95571   0.52463   0.00000  Uiso   1.00
O1165  O     0.32733   0.93660   0.96067   0.00000  Uiso   1.00
C1166  C     0.30987   0.90327   0.95075   0.00000  Uiso   1.00
H1167  H     0.33108   0.88340   0.94196   0.00000  Uiso   1.00
H1168  H     0.29105   0.90681   0.92584   0.00000  Uiso   1.00
H1169  H     0.29433   0.89102   0.97538   0.00000  Uiso   1.00
O1170  O     0.17267   0.56340   0.03932   0.00000  Uiso   1.00
C1171  C     0.19012   0.59673   0.04925   0.00000  Uiso   1.00
H1172  H     0.20894   0.59320   0.07417   0.00000  Uiso   1.00
H1173  H     0.16891   0.61660   0.05802   0.00000  Uiso   1.00
H1174  H     0.20567   0.60898   0.02463   0.00000  Uiso   1.00
O1175  O     0.05581   0.66709   0.96062   0.00000  Uiso   1.00
C1176  C     0.09242   0.67593   0.95108   0.00000  Uiso   1.00
H1177  H     0.09778   0.70581   0.94742   0.00000  Uiso   1.00
H1178  H     0.09924   0.66265   0.92312   0.00000  Uiso   1.00
H1179  H     0.11105   0.66438   0.97318   0.00000  Uiso   1.00
O1180  O     0.44420   0.83291   0.03939   0.00000  Uiso   1.00
C1181  C     0.40759   0.82408   0.04892   0.00000  Uiso   1.00
H1182  H     0.40077   0.83734   0.07690   0.00000  Uiso   1.00
H1183  H     0.40221   0.79420   0.05255   0.00000  Uiso   1.00
H1184  H     0.38896   0.83566   0.02684   0.00000  Uiso   1.00
O1185  O     0.16711   0.55583   0.96061   0.00000  Uiso   1.00
C1186  C     0.17594   0.59243   0.95108   0.00000  Uiso   1.00
H1187  H     0.16269   0.59925   0.92311   0.00000  Uiso   1.00
H1188  H     0.20583   0.59780   0.94745   0.00000  Uiso   1.00
H1189  H     0.16437   0.61107   0.97317   0.00000  Uiso   1.00
O1190  O     0.33290   0.94418   0.03938   0.00000  Uiso   1.00
C1191  C     0.32407   0.90757   0.04892   0.00000  Uiso   1.00
H1192  H     0.29418   0.90220   0.05254   0.00000  Uiso   1.00
H1193  H     0.33733   0.90075   0.07689   0.00000  Uiso   1.00
H1194  H     0.33564   0.88894   0.02683   0.00000  Uiso   1.00
O1195  O     0.43663   0.82735   0.96068   0.00000  Uiso   1.00
C1196  C     0.40329   0.80991   0.95076   0.00000  Uiso   1.00
H1197  H     0.40681   0.79110   0.92583   0.00000  Uiso   1.00
H1198  H     0.38342   0.83113   0.94200   0.00000  Uiso   1.00
H1199  H     0.39104   0.79435   0.97538   0.00000  Uiso   1.00
O1200  O     0.06339   0.67266   0.03933   0.00000  Uiso   1.00
C1201  C     0.09672   0.69011   0.04925   0.00000  Uiso   1.00
H1202  H     0.11660   0.66890   0.05799   0.00000  Uiso   1.00
H1203  H     0.09319   0.70890   0.07419   0.00000  Uiso   1.00
H1204  H     0.10896   0.70568   0.02463   0.00000  Uiso   1.00
O1205  O     0.19497   0.85915   0.22280   0.00000  Uiso   1.00
C1206  C     0.19891   0.86893   0.18342   0.00000  Uiso   1.00
H1207  H     0.22781   0.86474   0.17482   0.00000  Uiso   1.00
H1208  H     0.19250   0.89820   0.17816   0.00000  Uiso   1.00
H1209  H     0.18174   0.85125   0.16458   0.00000  Uiso   1.00
O1210  O     0.30546   0.64147   0.77863   0.00000  Uiso   1.00
C1211  C     0.29801   0.62357   0.81420   0.00000  Uiso   1.00
H1212  H     0.32284   0.61507   0.83055   0.00000  Uiso   1.00
H1213  H     0.28026   0.59934   0.80904   0.00000  Uiso   1.00
H1214  H     0.28255   0.64254   0.83307   0.00000  Uiso   1.00
O1215  O     0.14556   0.69799   0.25977   0.00000  Uiso   1.00
C1216  C     0.14880   0.71524   0.22328   0.00000  Uiso   1.00
H1217  H     0.16544   0.74041   0.22692   0.00000  Uiso   1.00
H1218  H     0.12151   0.72319   0.21220   0.00000  Uiso   1.00
H1219  H     0.16300   0.69821   0.20132   0.00000  Uiso   1.00
O1220  O     0.35443   0.80208   0.73957   0.00000  Uiso   1.00
C1221  C     0.35182   0.78411   0.77574   0.00000  Uiso   1.00
H1222  H     0.37910   0.77448   0.78519   0.00000  Uiso   1.00
H1223  H     0.33379   0.75989   0.77224   0.00000  Uiso   1.00
H1224  H     0.33953   0.80122   0.79892   0.00000  Uiso   1.00
O1225  O     0.30617   0.64048   0.21939   0.00000  Uiso   1.00
C1226  C     0.30553   0.63056   0.17985   0.00000  Uiso   1.00
H1227  H     0.27879   0.63842   0.16740   0.00000  Uiso   1.00
H1228  H     0.30838   0.60053   0.17614   0.00000  Uiso   1.00
H1229  H     0.32701   0.64515   0.16290   0.00000  Uiso   1.00
O1230  O     0.19357   0.85908   0.78108   0.00000  Uiso   1.00
C1231  C     0.19741   0.87534   0.81807   0.00000  Uiso   1.00
H1232  H     0.17116   0.87811   0.83428   0.00000  Uiso   1.00
H1233  H     0.21077   0.90255   0.81539   0.00000  Uiso   1.00
H1234  H     0.21560   0.85795   0.83586   0.00000  Uiso   1.00
O1235  O     0.40121   0.84784   0.17965   0.00000  Uiso   1.00
C1236  C     0.43058   0.86841   0.16378   0.00000  Uiso   1.00
H1237  H     0.45434   0.85022   0.15958   0.00000  Uiso   1.00
H1238  H     0.43986   0.89214   0.18162   0.00000  Uiso   1.00
H1239  H     0.42279   0.87836   0.13460   0.00000  Uiso   1.00
O1240  O     0.09880   0.65216   0.82035   0.00000  Uiso   1.00
C1241  C     0.06943   0.63158   0.83622   0.00000  Uiso   1.00
H1242  H     0.06016   0.60784   0.81839   0.00000  Uiso   1.00
H1243  H     0.04566   0.64976   0.84041   0.00000  Uiso   1.00
H1244  H     0.07722   0.62165   0.86541   0.00000  Uiso   1.00
O1245  O     0.15217   0.59880   0.82035   0.00000  Uiso   1.00
C1246  C     0.13160   0.56943   0.83622   0.00000  Uiso   1.00
H1247  H     0.14979   0.54566   0.84042   0.00000  Uiso   1.00
H1248  H     0.10786   0.56015   0.81839   0.00000  Uiso   1.00
H1249  H     0.12165   0.57721   0.86540   0.00000  Uiso   1.00
O1250  O     0.34784   0.90121   0.17965   0.00000  Uiso   1.00
C1251  C     0.36842   0.93057   0.16378   0.00000  Uiso   1.00
H1252  H     0.39217   0.93983   0.18161   0.00000  Uiso   1.00
H1253  H     0.35024   0.95434   0.15959   0.00000  Uiso   1.00
H1254  H     0.37835   0.92278   0.13459   0.00000  Uiso   1.00
O1255  O     0.14099   0.80486   0.77695   0.00000  Uiso   1.00
C1256  C     0.13098   0.80047   0.81622   0.00000  Uiso   1.00
H1257  H     0.13390   0.77122   0.82408   0.00000  Uiso   1.00
H1258  H     0.10203   0.80803   0.82176   0.00000  Uiso   1.00
H1259  H     0.14942   0.81639   0.83542   0.00000  Uiso   1.00
O1260  O     0.35844   0.69468   0.22149   0.00000  Uiso   1.00
C1261  C     0.37641   0.70228   0.18599   0.00000  Uiso   1.00
H1262  H     0.38522   0.67752   0.16968   0.00000  Uiso   1.00
H1263  H     0.40046   0.72024   0.19125   0.00000  Uiso   1.00
H1264  H     0.35736   0.71754   0.16703   0.00000  Uiso   1.00
O1265  O     0.30187   0.85414   0.74145   0.00000  Uiso   1.00
C1266  C     0.28387   0.85529   0.77774   0.00000  Uiso   1.00
H1267  H     0.26862   0.88123   0.78048   0.00000  Uiso   1.00
H1268  H     0.30226   0.85236   0.80330   0.00000  Uiso   1.00
H1269  H     0.26379   0.83247   0.77898   0.00000  Uiso   1.00
O1270  O     0.19813   0.64584   0.25867   0.00000  Uiso   1.00
C1271  C     0.21648   0.64425   0.22258   0.00000  Uiso   1.00
H1272  H     0.19823   0.64493   0.19671   0.00000  Uiso   1.00
H1273  H     0.23327   0.61916   0.22126   0.00000  Uiso   1.00
H1274  H     0.23521   0.66813   0.22042   0.00000  Uiso   1.00
O1275  O     0.35962   0.69384   0.78037   0.00000  Uiso   1.00
C1276  C     0.36954   0.69476   0.81989   0.00000  Uiso   1.00
H1277  H     0.36206   0.72175   0.83198   0.00000  Uiso   1.00
H1278  H     0.39952   0.69152   0.82369   0.00000  Uiso   1.00
H1279  H     0.35462   0.67367   0.83705   0.00000  Uiso   1.00
O1280  O     0.14105   0.80636   0.21944   0.00000  Uiso   1.00
C1281  C     0.12426   0.80161   0.18284   0.00000  Uiso   1.00
H1282  H     0.11983   0.82760   0.16660   0.00000  Uiso   1.00
H1283  H     0.09784   0.78686   0.18623   0.00000  Uiso   1.00
H1284  H     0.14219   0.78425   0.16471   0.00000  Uiso   1.00
O1285  O     0.44511   0.60903   0.72293   0.00000  Uiso   1.00
C1286  C     0.44943   0.61906   0.68366   0.00000  Uiso   1.00
H1287  H     0.47863   0.61596   0.67568   0.00000  Uiso   1.00
H1288  H     0.44203   0.64806   0.67821   0.00000  Uiso   1.00
H1289  H     0.43331   0.60075   0.66449   0.00000  Uiso   1.00
O1290  O     0.05533   0.89154   0.27854   0.00000  Uiso   1.00
C1291  C     0.04775   0.87357   0.31405   0.00000  Uiso   1.00
H1292  H     0.07252   0.86478   0.33035   0.00000  Uiso   1.00
H1293  H     0.02981   0.84951   0.30879   0.00000  Uiso   1.00
H1294  H     0.03248   0.89260   0.33301   0.00000  Uiso   1.00
O1295  O     0.39585   0.94812   0.75862   0.00000  Uiso   1.00
C1296  C     0.39486   0.96611   0.72232   0.00000  Uiso   1.00
H1297  H     0.36883   0.98117   0.71934   0.00000  Uiso   1.00
H1298  H     0.39814   0.94774   0.69680   0.00000  Uiso   1.00
H1299  H     0.41755   0.98635   0.72128   0.00000  Uiso   1.00
O1300  O     0.10416   0.55187   0.24133   0.00000  Uiso   1.00
C1301  C     0.10577   0.53351   0.27741   0.00000  Uiso   1.00
H1302  H     0.10514   0.55176   0.30329   0.00000  Uiso   1.00
H1303  H     0.13085   0.51669   0.27870   0.00000  Uiso   1.00
H1304  H     0.08187   0.51480   0.27960   0.00000  Uiso   1.00
O1305  O     0.05613   0.89042   0.71971   0.00000  Uiso   1.00
C1306  C     0.05520   0.88053   0.68018   0.00000  Uiso   1.00
H1307  H     0.02825   0.88817   0.66807   0.00000  Uiso   1.00
H1308  H     0.05826   0.85053   0.67637   0.00000  Uiso   1.00
H1309  H     0.07638   0.89534   0.66304   0.00000  Uiso   1.00
O1310  O     0.44365   0.60895   0.28055   0.00000  Uiso   1.00
C1311  C     0.44840   0.62574   0.31715   0.00000  Uiso   1.00
H1312  H     0.42240   0.63016   0.33339   0.00000  Uiso   1.00
H1313  H     0.46315   0.65216   0.31376   0.00000  Uiso   1.00
H1314  H     0.46576   0.60781   0.33528   0.00000  Uiso   1.00
O1315  O     0.15120   0.59783   0.67965   0.00000  Uiso   1.00
C1316  C     0.18056   0.61840   0.66376   0.00000  Uiso   1.00
H1317  H     0.20435   0.60023   0.65961   0.00000  Uiso   1.00
H1318  H     0.18980   0.64217   0.68157   0.00000  Uiso   1.00
H1319  H     0.17278   0.62830   0.63456   0.00000  Uiso   1.00
O1320  O     0.34880   0.90216   0.32035   0.00000  Uiso   1.00
C1321  C     0.31944   0.88158   0.33623   0.00000  Uiso   1.00
H1322  H     0.31018   0.85782   0.31841   0.00000  Uiso   1.00
H1323  H     0.29565   0.89976   0.34040   0.00000  Uiso   1.00
H1324  H     0.32722   0.87167   0.36542   0.00000  Uiso   1.00
O1325  O     0.40216   0.84879   0.32035   0.00000  Uiso   1.00
C1326  C     0.38159   0.81941   0.33621   0.00000  Uiso   1.00
H1327  H     0.39979   0.79566   0.34043   0.00000  Uiso   1.00
H1328  H     0.35787   0.81012   0.31835   0.00000  Uiso   1.00
H1329  H     0.37162   0.82720   0.36538   0.00000  Uiso   1.00
O1330  O     0.09785   0.65121   0.67965   0.00000  Uiso   1.00
C1331  C     0.11843   0.68059   0.66380   0.00000  Uiso   1.00
H1332  H     0.14213   0.68989   0.68167   0.00000  Uiso   1.00
H1333  H     0.10022   0.70434   0.65956   0.00000  Uiso   1.00
H1334  H     0.12842   0.67280   0.63464   0.00000  Uiso   1.00
O1335  O     0.39085   0.55502   0.27717   0.00000  Uiso   1.00
C1336  C     0.38111   0.55107   0.31656   0.00000  Uiso   1.00
H1337  H     0.38524   0.52216   0.32513   0.00000  Uiso   1.00
H1338  H     0.35186   0.55755   0.32186   0.00000  Uiso   1.00
H1339  H     0.39885   0.56818   0.33539   0.00000  Uiso   1.00
O1340  O     0.10851   0.94456   0.72145   0.00000  Uiso   1.00
C1341  C     0.12639   0.95205   0.68587   0.00000  Uiso   1.00
H1342  H     0.13493   0.92722   0.66952   0.00000  Uiso   1.00
H1343  H     0.15060   0.96982   0.69103   0.00000  Uiso   1.00
H1344  H     0.10739   0.96747   0.66701   0.00000  Uiso   1.00
O1345  O     0.05201   0.60444   0.24024   0.00000  Uiso   1.00
C1346  C     0.03477   0.60118   0.27673   0.00000  Uiso   1.00
H1347  H     0.00956   0.58462   0.27308   0.00000  Uiso   1.00
H1348  H     0.02692   0.62847   0.28790   0.00000  Uiso   1.00
H1349  H     0.05178   0.58687   0.29864   0.00000  Uiso   1.00
O1350  O     0.44793   0.89558   0.76041   0.00000  Uiso   1.00
C1351  C     0.46594   0.89804   0.72425   0.00000  Uiso   1.00
H1352  H     0.47600   0.87079   0.71521   0.00000  Uiso   1.00
H1353  H     0.48989   0.91647   0.72757   0.00000  Uiso   1.00
H1354  H     0.44872   0.90977   0.70082   0.00000  Uiso   1.00
O1355  O     0.10952   0.94384   0.28060   0.00000  Uiso   1.00
C1356  C     0.11943   0.94448   0.32014   0.00000  Uiso   1.00
H1357  H     0.11161   0.97125   0.33256   0.00000  Uiso   1.00
H1358  H     0.14945   0.94160   0.32387   0.00000  Uiso   1.00
H1359  H     0.10479   0.92305   0.33710   0.00000  Uiso   1.00
O1360  O     0.39090   0.55644   0.71888   0.00000  Uiso   1.00
C1361  C     0.37456   0.55257   0.68193   0.00000  Uiso   1.00
H1362  H     0.37160   0.57882   0.66576   0.00000  Uiso   1.00
H1363  H     0.34744   0.53904   0.68468   0.00000  Uiso   1.00
H1364  H     0.39201   0.53450   0.66406   0.00000  Uiso   1.00
F1365  F     0.44512   0.78428   0.39800   0.00000  Uiso   1.00
F1366  F     0.05489   0.71573   0.60200   0.00000  Uiso   1.00
F1367  F     0.21696   0.55572   0.39820   0.00000  Uiso   1.00
F1368  F     0.28305   0.94428   0.60180   0.00000  Uiso   1.00
F1369  F     0.05574   0.71699   0.39820   0.00000  Uiso   1.00
F1370  F     0.44426   0.78300   0.60180   0.00000  Uiso   1.00
F1371  F     0.28430   0.94513   0.39800   0.00000  Uiso   1.00
F1372  F     0.21569   0.55486   0.60200   0.00000  Uiso   1.00
F1373  F     0.19514   0.53430   0.89800   0.00000  Uiso   1.00
F1374  F     0.30487   0.96571   0.10200   0.00000  Uiso   1.00
F1375  F     0.46699   0.80574   0.89820   0.00000  Uiso   1.00
F1376  F     0.03302   0.69427   0.10180   0.00000  Uiso   1.00
F1377  F     0.30572   0.96696   0.89820   0.00000  Uiso   1.00
F1378  F     0.19427   0.53303   0.10180   0.00000  Uiso   1.00
F1379  F     0.03428   0.69512   0.89800   0.00000  Uiso   1.00
F1380  F     0.46571   0.80487   0.10200   0.00000  Uiso   1.00
C1381  C     0.97176   0.76729   0.41849   0.00000  Uiso   1.00
C1382  C     0.52825   0.73271   0.58151   0.00000  Uiso   1.00
C1383  C     0.73200   0.52771   0.41849   0.00000  Uiso   1.00
C1384  C     0.76800   0.97229   0.58151   0.00000  Uiso   1.00
C1385  C     0.52772   0.73201   0.41849   0.00000  Uiso   1.00
C1386  C     0.97228   0.76798   0.58151   0.00000  Uiso   1.00
C1387  C     0.76731   0.97176   0.41849   0.00000  Uiso   1.00
C1388  C     0.73269   0.52823   0.58151   0.00000  Uiso   1.00
C1389  C     0.72176   0.51731   0.91849   0.00000  Uiso   1.00
C1390  C     0.77824   0.98270   0.08151   0.00000  Uiso   1.00
C1391  C     0.98201   0.77772   0.91849   0.00000  Uiso   1.00
C1392  C     0.51799   0.72228   0.08151   0.00000  Uiso   1.00
C1393  C     0.77771   0.98200   0.91849   0.00000  Uiso   1.00
C1394  C     0.72229   0.51800   0.08151   0.00000  Uiso   1.00
C1395  C     0.51730   0.72176   0.91849   0.00000  Uiso   1.00
C1396  C     0.98270   0.77824   0.08151   0.00000  Uiso   1.00
C1397  C     0.99983   0.74976   0.39835   0.00000  Uiso   1.00
C1398  C     0.50017   0.75024   0.60165   0.00000  Uiso   1.00
C1399  C     0.74976   0.99983   0.39835   0.00000  Uiso   1.00
C1400  C     0.75024   0.50017   0.60165   0.00000  Uiso   1.00
C1401  C     0.74983   0.99976   0.89835   0.00000  Uiso   1.00
C1402  C     0.75017   0.50024   0.10165   0.00000  Uiso   1.00
C1403  C     0.99976   0.74983   0.89835   0.00000  Uiso   1.00
C1404  C     0.50024   0.75017   0.10165   0.00000  Uiso   1.00
C1405  C     0.55248   0.70863   0.47971   0.00000  Uiso   1.00
C1406  C     0.94752   0.79136   0.52029   0.00000  Uiso   1.00
C1407  C     0.78962   0.94612   0.47972   0.00000  Uiso   1.00
C1408  C     0.71037   0.55387   0.52028   0.00000  Uiso   1.00
C1409  C     0.94610   0.78959   0.47972   0.00000  Uiso   1.00
C1410  C     0.55390   0.71041   0.52028   0.00000  Uiso   1.00
C1411  C     0.70860   0.55245   0.47971   0.00000  Uiso   1.00
C1412  C     0.79140   0.94755   0.52029   0.00000  Uiso   1.00
C1413  C     0.80246   0.95861   0.97971   0.00000  Uiso   1.00
C1414  C     0.69754   0.54139   0.02029   0.00000  Uiso   1.00
C1415  C     0.53960   0.69611   0.97972   0.00000  Uiso   1.00
C1416  C     0.96040   0.80390   0.02028   0.00000  Uiso   1.00
C1417  C     0.69612   0.53962   0.97972   0.00000  Uiso   1.00
C1418  C     0.80389   0.96039   0.02028   0.00000  Uiso   1.00
C1419  C     0.95863   0.80247   0.97971   0.00000  Uiso   1.00
C1420  C     0.54138   0.69753   0.02029   0.00000  Uiso   1.00
C1421  C     0.75000   0.99997   0.35594   0.00000  Uiso   1.00
C1422  C     0.75000   0.50003   0.64406   0.00000  Uiso   1.00
C1423  C     0.99997   0.75000   0.35594   0.00000  Uiso   1.00
C1424  C     0.50003   0.75000   0.64406   0.00000  Uiso   1.00
C1425  C     0.50000   0.74997   0.85594   0.00000  Uiso   1.00
C1426  C     0.50000   0.75003   0.14406   0.00000  Uiso   1.00
C1427  C     0.74997   0.50000   0.85594   0.00000  Uiso   1.00
C1428  C     0.75003   0.50000   0.14406   0.00000  Uiso   1.00
C1429  C     0.67999   0.57001   0.25000   0.00000  Uiso   1.00
C1430  C     0.82001   0.92999   0.75000   0.00000  Uiso   1.00
C1431  C     0.93007   0.68000   0.25014   0.00000  Uiso   1.00
C1432  C     0.56992   0.82003   0.74983   0.00000  Uiso   1.00
C1433  C     0.82005   0.92995   0.25000   0.00000  Uiso   1.00
C1434  C     0.67995   0.57005   0.75000   0.00000  Uiso   1.00
C1435  C     0.57000   0.81993   0.24986   0.00000  Uiso   1.00
C1436  C     0.92997   0.68008   0.75017   0.00000  Uiso   1.00
C1437  C     0.68011   0.92995   0.75020   0.00000  Uiso   1.00
C1438  C     0.81988   0.57007   0.24978   0.00000  Uiso   1.00
C1439  C     0.92998   0.82002   0.75000   0.00000  Uiso   1.00
C1440  C     0.57002   0.67998   0.25000   0.00000  Uiso   1.00
C1441  C     0.82004   0.56989   0.74980   0.00000  Uiso   1.00
C1442  C     0.67993   0.93012   0.25022   0.00000  Uiso   1.00
C1443  C     0.57005   0.67995   0.75000   0.00000  Uiso   1.00
C1444  C     0.92995   0.82005   0.25000   0.00000  Uiso   1.00
C1445  C     0.65988   0.86743   0.23488   0.00000  Uiso   1.00
C1446  C     0.84012   0.63264   0.76542   0.00000  Uiso   1.00
C1447  C     0.63511   0.66194   0.25437   0.00000  Uiso   1.00
C1448  C     0.86491   0.83807   0.74542   0.00000  Uiso   1.00
C1449  C     0.84035   0.63274   0.23421   0.00000  Uiso   1.00
C1450  C     0.65958   0.86729   0.76593   0.00000  Uiso   1.00
C1451  C     0.88989   0.86291   0.21449   0.00000  Uiso   1.00
C1452  C     0.61012   0.63709   0.78551   0.00000  Uiso   1.00
C1453  C     0.63709   0.61012   0.78551   0.00000  Uiso   1.00
C1454  C     0.86291   0.88988   0.21449   0.00000  Uiso   1.00
C1455  C     0.63264   0.84002   0.76515   0.00000  Uiso   1.00
C1456  C     0.86729   0.65999   0.23461   0.00000  Uiso   1.00
C1457  C     0.83800   0.86490   0.74580   0.00000  Uiso   1.00
C1458  C     0.66201   0.63510   0.25418   0.00000  Uiso   1.00
C1459  C     0.86737   0.65958   0.76576   0.00000  Uiso   1.00
C1460  C     0.63267   0.84046   0.23419   0.00000  Uiso   1.00
C1461  C     0.90997   0.61737   0.73481   0.00000  Uiso   1.00
C1462  C     0.59001   0.88271   0.26540   0.00000  Uiso   1.00
C1463  C     0.88510   0.91200   0.75422   0.00000  Uiso   1.00
C1464  C     0.61490   0.58799   0.24582   0.00000  Uiso   1.00
C1465  C     0.59040   0.88265   0.73429   0.00000  Uiso   1.00
C1466  C     0.90954   0.61733   0.26580   0.00000  Uiso   1.00
C1467  C     0.63988   0.61290   0.71449   0.00000  Uiso   1.00
C1468  C     0.86012   0.88709   0.28551   0.00000  Uiso   1.00
C1469  C     0.88709   0.86011   0.28551   0.00000  Uiso   1.00
C1470  C     0.61291   0.63988   0.71449   0.00000  Uiso   1.00
C1471  C     0.88257   0.59011   0.26511   0.00000  Uiso   1.00
C1472  C     0.61734   0.90989   0.73462   0.00000  Uiso   1.00
C1473  C     0.58806   0.61489   0.24563   0.00000  Uiso   1.00
C1474  C     0.91193   0.88509   0.75458   0.00000  Uiso   1.00
C1475  C     0.61726   0.90965   0.26579   0.00000  Uiso   1.00
C1476  C     0.88270   0.59043   0.73404   0.00000  Uiso   1.00
C1477  C     0.52679   0.72988   0.45912   0.00000  Uiso   1.00
C1478  C     0.97320   0.77011   0.54088   0.00000  Uiso   1.00
C1479  C     0.76888   0.97223   0.45916   0.00000  Uiso   1.00
C1480  C     0.73111   0.52777   0.54084   0.00000  Uiso   1.00
C1481  C     0.97222   0.76887   0.45916   0.00000  Uiso   1.00
C1482  C     0.52779   0.73114   0.54084   0.00000  Uiso   1.00
C1483  C     0.72987   0.52678   0.45912   0.00000  Uiso   1.00
C1484  C     0.77013   0.97322   0.54088   0.00000  Uiso   1.00
C1485  C     0.77678   0.97987   0.95912   0.00000  Uiso   1.00
C1486  C     0.72322   0.52013   0.04088   0.00000  Uiso   1.00
C1487  C     0.51887   0.72222   0.95916   0.00000  Uiso   1.00
C1488  C     0.98113   0.77778   0.04084   0.00000  Uiso   1.00
C1489  C     0.72223   0.51888   0.95916   0.00000  Uiso   1.00
C1490  C     0.77778   0.98112   0.04084   0.00000  Uiso   1.00
C1491  C     0.97988   0.77679   0.95912   0.00000  Uiso   1.00
C1492  C     0.52012   0.72321   0.04088   0.00000  Uiso   1.00
C1493  C     0.59791   0.84809   0.24976   0.00000  Uiso   1.00
C1494  C     0.90201   0.65191   0.75027   0.00000  Uiso   1.00
C1495  C     0.65196   0.59804   0.25000   0.00000  Uiso   1.00
C1496  C     0.84805   0.90195   0.75001   0.00000  Uiso   1.00
C1497  C     0.90191   0.65209   0.25024   0.00000  Uiso   1.00
C1498  C     0.59808   0.84799   0.74973   0.00000  Uiso   1.00
C1499  C     0.84812   0.90188   0.25000   0.00000  Uiso   1.00
C1500  C     0.65188   0.59812   0.75000   0.00000  Uiso   1.00
C1501  C     0.59812   0.65188   0.75000   0.00000  Uiso   1.00
C1502  C     0.90188   0.84812   0.25000   0.00000  Uiso   1.00
C1503  C     0.65196   0.90202   0.75030   0.00000  Uiso   1.00
C1504  C     0.84802   0.59807   0.24967   0.00000  Uiso   1.00
C1505  C     0.90193   0.84808   0.74999   0.00000  Uiso   1.00
C1506  C     0.59809   0.65191   0.25000   0.00000  Uiso   1.00
C1507  C     0.84798   0.59804   0.74971   0.00000  Uiso   1.00
C1508  C     0.65193   0.90198   0.25032   0.00000  Uiso   1.00
C1509  C     0.99980   0.74976   0.47958   0.00000  Uiso   1.00
C1510  C     0.50020   0.75024   0.52041   0.00000  Uiso   1.00
C1511  C     0.74976   0.99980   0.47959   0.00000  Uiso   1.00
C1512  C     0.75024   0.50020   0.52042   0.00000  Uiso   1.00
C1513  C     0.74980   0.99976   0.97958   0.00000  Uiso   1.00
C1514  C     0.75020   0.50024   0.02041   0.00000  Uiso   1.00
C1515  C     0.99976   0.74980   0.97959   0.00000  Uiso   1.00
C1516  C     0.50024   0.75020   0.02042   0.00000  Uiso   1.00
O1517  O     0.75000   0.50000   0.25000   0.00000  Uiso   1.00
O1518  O     0.75000   0.50000   0.75000   0.00000  Uiso   1.00
O1519  O     0.50000   0.75000   0.25000   0.00000  Uiso   1.00
O1520  O     0.50000   0.75000   0.75000   0.00000  Uiso   1.00
O1521  O     0.75000   0.96963   0.33755   0.00000  Uiso   1.00
O1522  O     0.75000   0.53036   0.66245   0.00000  Uiso   1.00
O1523  O     0.53037   0.75000   0.33755   0.00000  Uiso   1.00
O1524  O     0.96964   0.75000   0.66245   0.00000  Uiso   1.00
O1525  O     0.75000   0.53036   0.33755   0.00000  Uiso   1.00
O1526  O     0.75000   0.96963   0.66245   0.00000  Uiso   1.00
O1527  O     0.96964   0.75000   0.33755   0.00000  Uiso   1.00
O1528  O     0.53037   0.75000   0.66245   0.00000  Uiso   1.00
O1529  O     0.50000   0.71963   0.83755   0.00000  Uiso   1.00
O1530  O     0.50000   0.78036   0.16245   0.00000  Uiso   1.00
O1531  O     0.78037   0.50000   0.83755   0.00000  Uiso   1.00
O1532  O     0.71964   0.50000   0.16245   0.00000  Uiso   1.00
O1533  O     0.50000   0.78036   0.83755   0.00000  Uiso   1.00
O1534  O     0.50000   0.71963   0.16245   0.00000  Uiso   1.00
O1535  O     0.71964   0.50000   0.83755   0.00000  Uiso   1.00
O1536  O     0.78037   0.50000   0.16245   0.00000  Uiso   1.00
O1537  O     0.70725   0.57307   0.27302   0.00000  Uiso   1.00
O1538  O     0.79276   0.92692   0.72698   0.00000  Uiso   1.00
O1539  O     0.92693   0.70724   0.27302   0.00000  Uiso   1.00
O1540  O     0.57308   0.79275   0.72698   0.00000  Uiso   1.00
O1541  O     0.79276   0.92692   0.27302   0.00000  Uiso   1.00
O1542  O     0.70725   0.57307   0.72698   0.00000  Uiso   1.00
O1543  O     0.57308   0.79275   0.27302   0.00000  Uiso   1.00
O1544  O     0.92693   0.70724   0.72698   0.00000  Uiso   1.00
O1545  O     0.70725   0.92692   0.72698   0.00000  Uiso   1.00
O1546  O     0.79276   0.57307   0.27302   0.00000  Uiso   1.00
O1547  O     0.92693   0.79275   0.72698   0.00000  Uiso   1.00
O1548  O     0.57308   0.70724   0.27302   0.00000  Uiso   1.00
O1549  O     0.79276   0.57307   0.72698   0.00000  Uiso   1.00
O1550  O     0.70725   0.92692   0.27302   0.00000  Uiso   1.00
O1551  O     0.57308   0.70724   0.72698   0.00000  Uiso   1.00
O1552  O     0.92693   0.79275   0.27302   0.00000  Uiso   1.00
O1553  O     0.95725   0.82307   0.77302   0.00000  Uiso   1.00
O1554  O     0.54276   0.67692   0.22698   0.00000  Uiso   1.00
O1555  O     0.67693   0.95724   0.77302   0.00000  Uiso   1.00
O1556  O     0.82308   0.54275   0.22698   0.00000  Uiso   1.00
O1557  O     0.54276   0.67692   0.77302   0.00000  Uiso   1.00
O1558  O     0.95725   0.82307   0.22698   0.00000  Uiso   1.00
O1559  O     0.82308   0.54275   0.77302   0.00000  Uiso   1.00
O1560  O     0.67693   0.95724   0.22698   0.00000  Uiso   1.00
O1561  O     0.95725   0.67692   0.22698   0.00000  Uiso   1.00
O1562  O     0.54276   0.82307   0.77302   0.00000  Uiso   1.00
O1563  O     0.67693   0.54275   0.22698   0.00000  Uiso   1.00
O1564  O     0.82308   0.95724   0.77302   0.00000  Uiso   1.00
O1565  O     0.54276   0.82307   0.22698   0.00000  Uiso   1.00
O1566  O     0.95725   0.67692   0.77302   0.00000  Uiso   1.00
O1567  O     0.82308   0.95724   0.22698   0.00000  Uiso   1.00
O1568  O     0.67693   0.54275   0.77302   0.00000  Uiso   1.00
Zn1569 Zn    0.70660   0.50000   0.21735   0.00000  Uiso   1.00
Zn1570 Zn    0.79341   0.50000   0.78265   0.00000  Uiso   1.00
Zn1571 Zn    0.50000   0.70659   0.21735   0.00000  Uiso   1.00
Zn1572 Zn    0.50000   0.79340   0.78265   0.00000  Uiso   1.00
Zn1573 Zn    0.79341   0.50000   0.21735   0.00000  Uiso   1.00
Zn1574 Zn    0.70660   0.50000   0.78265   0.00000  Uiso   1.00
Zn1575 Zn    0.50000   0.79340   0.21735   0.00000  Uiso   1.00
Zn1576 Zn    0.50000   0.70659   0.78265   0.00000  Uiso   1.00
Zn1577 Zn    0.95660   0.75000   0.71735   0.00000  Uiso   1.00
Zn1578 Zn    0.54341   0.75000   0.28265   0.00000  Uiso   1.00
Zn1579 Zn    0.75000   0.95659   0.71735   0.00000  Uiso   1.00
Zn1580 Zn    0.75000   0.54340   0.28265   0.00000  Uiso   1.00
Zn1581 Zn    0.54341   0.75000   0.71735   0.00000  Uiso   1.00
Zn1582 Zn    0.95660   0.75000   0.28265   0.00000  Uiso   1.00
Zn1583 Zn    0.75000   0.54340   0.71735   0.00000  Uiso   1.00
Zn1584 Zn    0.75000   0.95659   0.28265   0.00000  Uiso   1.00
O1585  O     0.57736   0.68663   0.46067   0.00000  Uiso   1.00
C1586  C     0.55992   0.65329   0.45076   0.00000  Uiso   1.00
H1587  H     0.58114   0.63343   0.44199   0.00000  Uiso   1.00
H1588  H     0.54111   0.65682   0.42583   0.00000  Uiso   1.00
H1589  H     0.54436   0.64105   0.47537   0.00000  Uiso   1.00
O1590  O     0.92263   0.81336   0.53932   0.00000  Uiso   1.00
C1591  C     0.94007   0.84670   0.54924   0.00000  Uiso   1.00
H1592  H     0.95889   0.84318   0.57416   0.00000  Uiso   1.00
H1593  H     0.91884   0.86656   0.55802   0.00000  Uiso   1.00
H1594  H     0.95560   0.85896   0.52462   0.00000  Uiso   1.00
O1595  O     0.80584   0.91711   0.46062   0.00000  Uiso   1.00
C1596  C     0.84244   0.92596   0.45108   0.00000  Uiso   1.00
H1597  H     0.84780   0.95584   0.44744   0.00000  Uiso   1.00
H1598  H     0.84927   0.91269   0.42312   0.00000  Uiso   1.00
H1599  H     0.86108   0.91440   0.47318   0.00000  Uiso   1.00
O1600  O     0.69415   0.58288   0.53939   0.00000  Uiso   1.00
C1601  C     0.65755   0.57403   0.54892   0.00000  Uiso   1.00
H1602  H     0.65073   0.58728   0.57690   0.00000  Uiso   1.00
H1603  H     0.65218   0.54415   0.55254   0.00000  Uiso   1.00
H1604  H     0.63891   0.58561   0.52684   0.00000  Uiso   1.00
O1605  O     0.91708   0.80579   0.46061   0.00000  Uiso   1.00
C1606  C     0.92590   0.84240   0.45107   0.00000  Uiso   1.00
H1607  H     0.91266   0.84920   0.42309   0.00000  Uiso   1.00
H1608  H     0.95579   0.84778   0.44747   0.00000  Uiso   1.00
H1609  H     0.91430   0.86103   0.47315   0.00000  Uiso   1.00
O1610  O     0.58292   0.69422   0.53938   0.00000  Uiso   1.00
C1611  C     0.57410   0.65761   0.54892   0.00000  Uiso   1.00
H1612  H     0.54422   0.65223   0.55257   0.00000  Uiso   1.00
H1613  H     0.58738   0.65079   0.57689   0.00000  Uiso   1.00
H1614  H     0.58568   0.63898   0.52683   0.00000  Uiso   1.00
O1615  O     0.68658   0.57732   0.46068   0.00000  Uiso   1.00
C1616  C     0.65326   0.55985   0.45075   0.00000  Uiso   1.00
H1617  H     0.65680   0.54103   0.42584   0.00000  Uiso   1.00
H1618  H     0.63339   0.58106   0.44195   0.00000  Uiso   1.00
H1619  H     0.64100   0.54432   0.47537   0.00000  Uiso   1.00
O1620  O     0.81342   0.92269   0.53933   0.00000  Uiso   1.00
C1621  C     0.84674   0.94015   0.54925   0.00000  Uiso   1.00
H1622  H     0.86663   0.91895   0.55802   0.00000  Uiso   1.00
H1623  H     0.84320   0.95896   0.57417   0.00000  Uiso   1.00
H1624  H     0.85898   0.95571   0.52463   0.00000  Uiso   1.00
O1625  O     0.82733   0.93660   0.96067   0.00000  Uiso   1.00
C1626  C     0.80987   0.90327   0.95075   0.00000  Uiso   1.00
H1627  H     0.83108   0.88340   0.94196   0.00000  Uiso   1.00
H1628  H     0.79105   0.90681   0.92584   0.00000  Uiso   1.00
H1629  H     0.79433   0.89102   0.97538   0.00000  Uiso   1.00
O1630  O     0.67267   0.56340   0.03932   0.00000  Uiso   1.00
C1631  C     0.69012   0.59673   0.04925   0.00000  Uiso   1.00
H1632  H     0.70894   0.59320   0.07417   0.00000  Uiso   1.00
H1633  H     0.66891   0.61660   0.05802   0.00000  Uiso   1.00
H1634  H     0.70567   0.60898   0.02463   0.00000  Uiso   1.00
O1635  O     0.55581   0.66709   0.96062   0.00000  Uiso   1.00
C1636  C     0.59242   0.67593   0.95108   0.00000  Uiso   1.00
H1637  H     0.59778   0.70581   0.94742   0.00000  Uiso   1.00
H1638  H     0.59924   0.66265   0.92312   0.00000  Uiso   1.00
H1639  H     0.61105   0.66438   0.97318   0.00000  Uiso   1.00
O1640  O     0.94420   0.83291   0.03939   0.00000  Uiso   1.00
C1641  C     0.90759   0.82408   0.04892   0.00000  Uiso   1.00
H1642  H     0.90077   0.83734   0.07690   0.00000  Uiso   1.00
H1643  H     0.90221   0.79420   0.05255   0.00000  Uiso   1.00
H1644  H     0.88896   0.83566   0.02684   0.00000  Uiso   1.00
O1645  O     0.66711   0.55583   0.96061   0.00000  Uiso   1.00
C1646  C     0.67594   0.59243   0.95108   0.00000  Uiso   1.00
H1647  H     0.66269   0.59925   0.92311   0.00000  Uiso   1.00
H1648  H     0.70583   0.59780   0.94745   0.00000  Uiso   1.00
H1649  H     0.66437   0.61107   0.97317   0.00000  Uiso   1.00
O1650  O     0.83290   0.94418   0.03938   0.00000  Uiso   1.00
C1651  C     0.82407   0.90757   0.04892   0.00000  Uiso   1.00
H1652  H     0.79418   0.90220   0.05254   0.00000  Uiso   1.00
H1653  H     0.83733   0.90075   0.07689   0.00000  Uiso   1.00
H1654  H     0.83564   0.88894   0.02683   0.00000  Uiso   1.00
O1655  O     0.93663   0.82735   0.96068   0.00000  Uiso   1.00
C1656  C     0.90329   0.80991   0.95076   0.00000  Uiso   1.00
H1657  H     0.90681   0.79110   0.92583   0.00000  Uiso   1.00
H1658  H     0.88342   0.83113   0.94200   0.00000  Uiso   1.00
H1659  H     0.89104   0.79435   0.97538   0.00000  Uiso   1.00
O1660  O     0.56339   0.67266   0.03933   0.00000  Uiso   1.00
C1661  C     0.59672   0.69011   0.04925   0.00000  Uiso   1.00
H1662  H     0.61660   0.66890   0.05799   0.00000  Uiso   1.00
H1663  H     0.59319   0.70890   0.07419   0.00000  Uiso   1.00
H1664  H     0.60896   0.70568   0.02463   0.00000  Uiso   1.00
O1665  O     0.69497   0.85915   0.22280   0.00000  Uiso   1.00
C1666  C     0.69891   0.86893   0.18342   0.00000  Uiso   1.00
H1667  H     0.72781   0.86474   0.17482   0.00000  Uiso   1.00
H1668  H     0.69250   0.89820   0.17816   0.00000  Uiso   1.00
H1669  H     0.68174   0.85125   0.16458   0.00000  Uiso   1.00
O1670  O     0.80546   0.64147   0.77863   0.00000  Uiso   1.00
C1671  C     0.79801   0.62357   0.81420   0.00000  Uiso   1.00
H1672  H     0.82284   0.61507   0.83055   0.00000  Uiso   1.00
H1673  H     0.78026   0.59934   0.80904   0.00000  Uiso   1.00
H1674  H     0.78255   0.64254   0.83307   0.00000  Uiso   1.00
O1675  O     0.64556   0.69799   0.25977   0.00000  Uiso   1.00
C1676  C     0.64880   0.71524   0.22328   0.00000  Uiso   1.00
H1677  H     0.66544   0.74041   0.22692   0.00000  Uiso   1.00
H1678  H     0.62151   0.72319   0.21220   0.00000  Uiso   1.00
H1679  H     0.66300   0.69821   0.20132   0.00000  Uiso   1.00
O1680  O     0.85443   0.80208   0.73957   0.00000  Uiso   1.00
C1681  C     0.85182   0.78411   0.77574   0.00000  Uiso   1.00
H1682  H     0.87910   0.77448   0.78519   0.00000  Uiso   1.00
H1683  H     0.83379   0.75989   0.77224   0.00000  Uiso   1.00
H1684  H     0.83953   0.80122   0.79892   0.00000  Uiso   1.00
O1685  O     0.80617   0.64048   0.21939   0.00000  Uiso   1.00
C1686  C     0.80553   0.63056   0.17985   0.00000  Uiso   1.00
H1687  H     0.77879   0.63842   0.16740   0.00000  Uiso   1.00
H1688  H     0.80838   0.60053   0.17614   0.00000  Uiso   1.00
H1689  H     0.82701   0.64515   0.16290   0.00000  Uiso   1.00
O1690  O     0.69357   0.85908   0.78108   0.00000  Uiso   1.00
C1691  C     0.69741   0.87534   0.81807   0.00000  Uiso   1.00
H1692  H     0.67116   0.87811   0.83428   0.00000  Uiso   1.00
H1693  H     0.71077   0.90255   0.81539   0.00000  Uiso   1.00
H1694  H     0.71560   0.85795   0.83586   0.00000  Uiso   1.00
O1695  O     0.90121   0.84784   0.17965   0.00000  Uiso   1.00
C1696  C     0.93058   0.86841   0.16378   0.00000  Uiso   1.00
H1697  H     0.95434   0.85022   0.15958   0.00000  Uiso   1.00
H1698  H     0.93986   0.89214   0.18162   0.00000  Uiso   1.00
H1699  H     0.92279   0.87836   0.13460   0.00000  Uiso   1.00
O1700  O     0.59880   0.65216   0.82035   0.00000  Uiso   1.00
C1701  C     0.56943   0.63158   0.83622   0.00000  Uiso   1.00
H1702  H     0.56016   0.60784   0.81839   0.00000  Uiso   1.00
H1703  H     0.54566   0.64976   0.84041   0.00000  Uiso   1.00
H1704  H     0.57722   0.62165   0.86541   0.00000  Uiso   1.00
O1705  O     0.65217   0.59880   0.82035   0.00000  Uiso   1.00
C1706  C     0.63160   0.56943   0.83622   0.00000  Uiso   1.00
H1707  H     0.64979   0.54566   0.84042   0.00000  Uiso   1.00
H1708  H     0.60786   0.56015   0.81839   0.00000  Uiso   1.00
H1709  H     0.62165   0.57721   0.86540   0.00000  Uiso   1.00
O1710  O     0.84784   0.90121   0.17965   0.00000  Uiso   1.00
C1711  C     0.86842   0.93057   0.16378   0.00000  Uiso   1.00
H1712  H     0.89217   0.93983   0.18161   0.00000  Uiso   1.00
H1713  H     0.85024   0.95434   0.15959   0.00000  Uiso   1.00
H1714  H     0.87835   0.92278   0.13459   0.00000  Uiso   1.00
O1715  O     0.64099   0.80486   0.77695   0.00000  Uiso   1.00
C1716  C     0.63098   0.80047   0.81622   0.00000  Uiso   1.00
H1717  H     0.63390   0.77122   0.82408   0.00000  Uiso   1.00
H1718  H     0.60203   0.80803   0.82176   0.00000  Uiso   1.00
H1719  H     0.64942   0.81639   0.83542   0.00000  Uiso   1.00
O1720  O     0.85844   0.69468   0.22149   0.00000  Uiso   1.00
C1721  C     0.87641   0.70228   0.18599   0.00000  Uiso   1.00
H1722  H     0.88522   0.67752   0.16968   0.00000  Uiso   1.00
H1723  H     0.90046   0.72024   0.19125   0.00000  Uiso   1.00
H1724  H     0.85736   0.71754   0.16703   0.00000  Uiso   1.00
O1725  O     0.80187   0.85414   0.74145   0.00000  Uiso   1.00
C1726  C     0.78387   0.85529   0.77774   0.00000  Uiso   1.00
H1727  H     0.76862   0.88123   0.78048   0.00000  Uiso   1.00
H1728  H     0.80226   0.85236   0.80330   0.00000  Uiso   1.00
H1729  H     0.76379   0.83247   0.77898   0.00000  Uiso   1.00
O1730  O     0.69813   0.64584   0.25867   0.00000  Uiso   1.00
C1731  C     0.71648   0.64425   0.22258   0.00000  Uiso   1.00
H1732  H     0.69823   0.64493   0.19671   0.00000  Uiso   1.00
H1733  H     0.73327   0.61916   0.22126   0.00000  Uiso   1.00
H1734  H     0.73521   0.66813   0.22042   0.00000  Uiso   1.00
O1735  O     0.85962   0.69384   0.78037   0.00000  Uiso   1.00
C1736  C     0.86954   0.69476   0.81989   0.00000  Uiso   1.00
H1737  H     0.86206   0.72175   0.83198   0.00000  Uiso   1.00
H1738  H     0.89952   0.69152   0.82369   0.00000  Uiso   1.00
H1739  H     0.85462   0.67367   0.83705   0.00000  Uiso   1.00
O1740  O     0.64105   0.80636   0.21944   0.00000  Uiso   1.00
C1741  C     0.62426   0.80161   0.18284   0.00000  Uiso   1.00
H1742  H     0.61983   0.82760   0.16660   0.00000  Uiso   1.00
H1743  H     0.59784   0.78686   0.18623   0.00000  Uiso   1.00
H1744  H     0.64219   0.78425   0.16471   0.00000  Uiso   1.00
O1745  O     0.94511   0.60903   0.72293   0.00000  Uiso   1.00
C1746  C     0.94943   0.61906   0.68366   0.00000  Uiso   1.00
H1747  H     0.97863   0.61596   0.67568   0.00000  Uiso   1.00
H1748  H     0.94203   0.64806   0.67821   0.00000  Uiso   1.00
H1749  H     0.93331   0.60075   0.66449   0.00000  Uiso   1.00
O1750  O     0.55533   0.89154   0.27854   0.00000  Uiso   1.00
C1751  C     0.54775   0.87357   0.31405   0.00000  Uiso   1.00
H1752  H     0.57252   0.86478   0.33035   0.00000  Uiso   1.00
H1753  H     0.52981   0.84951   0.30879   0.00000  Uiso   1.00
H1754  H     0.53248   0.89260   0.33301   0.00000  Uiso   1.00
O1755  O     0.89585   0.94812   0.75862   0.00000  Uiso   1.00
C1756  C     0.89486   0.96611   0.72232   0.00000  Uiso   1.00
H1757  H     0.86883   0.98117   0.71934   0.00000  Uiso   1.00
H1758  H     0.89814   0.94774   0.69680   0.00000  Uiso   1.00
H1759  H     0.91755   0.98635   0.72128   0.00000  Uiso   1.00
O1760  O     0.60416   0.55187   0.24133   0.00000  Uiso   1.00
C1761  C     0.60577   0.53351   0.27741   0.00000  Uiso   1.00
H1762  H     0.60514   0.55176   0.30329   0.00000  Uiso   1.00
H1763  H     0.63085   0.51669   0.27870   0.00000  Uiso   1.00
H1764  H     0.58187   0.51480   0.27960   0.00000  Uiso   1.00
O1765  O     0.55613   0.89042   0.71971   0.00000  Uiso   1.00
C1766  C     0.55520   0.88053   0.68018   0.00000  Uiso   1.00
H1767  H     0.52825   0.88817   0.66807   0.00000  Uiso   1.00
H1768  H     0.55826   0.85053   0.67637   0.00000  Uiso   1.00
H1769  H     0.57638   0.89534   0.66304   0.00000  Uiso   1.00
O1770  O     0.94365   0.60895   0.28055   0.00000  Uiso   1.00
C1771  C     0.94840   0.62574   0.31715   0.00000  Uiso   1.00
H1772  H     0.92240   0.63016   0.33339   0.00000  Uiso   1.00
H1773  H     0.96315   0.65216   0.31376   0.00000  Uiso   1.00
H1774  H     0.96576   0.60781   0.33528   0.00000  Uiso   1.00
O1775  O     0.65120   0.59783   0.67965   0.00000  Uiso   1.00
C1776  C     0.68056   0.61840   0.66376   0.00000  Uiso   1.00
H1777  H     0.70435   0.60023   0.65961   0.00000  Uiso   1.00
H1778  H     0.68980   0.64217   0.68157   0.00000  Uiso   1.00
H1779  H     0.67278   0.62830   0.63456   0.00000  Uiso   1.00
O1780  O     0.84880   0.90216   0.32035   0.00000  Uiso   1.00
C1781  C     0.81944   0.88158   0.33623   0.00000  Uiso   1.00
H1782  H     0.81018   0.85782   0.31841   0.00000  Uiso   1.00
H1783  H     0.79565   0.89976   0.34040   0.00000  Uiso   1.00
H1784  H     0.82722   0.87167   0.36542   0.00000  Uiso   1.00
O1785  O     0.90216   0.84879   0.32035   0.00000  Uiso   1.00
C1786  C     0.88159   0.81941   0.33621   0.00000  Uiso   1.00
H1787  H     0.89979   0.79566   0.34043   0.00000  Uiso   1.00
H1788  H     0.85787   0.81012   0.31835   0.00000  Uiso   1.00
H1789  H     0.87162   0.82720   0.36538   0.00000  Uiso   1.00
O1790  O     0.59785   0.65121   0.67965   0.00000  Uiso   1.00
C1791  C     0.61843   0.68059   0.66380   0.00000  Uiso   1.00
H1792  H     0.64213   0.68989   0.68167   0.00000  Uiso   1.00
H1793  H     0.60022   0.70434   0.65956   0.00000  Uiso   1.00
H1794  H     0.62842   0.67280   0.63464   0.00000  Uiso   1.00
O1795  O     0.89085   0.55502   0.27717   0.00000  Uiso   1.00
C1796  C     0.88111   0.55107   0.31656   0.00000  Uiso   1.00
H1797  H     0.88524   0.52216   0.32513   0.00000  Uiso   1.00
H1798  H     0.85186   0.55755   0.32186   0.00000  Uiso   1.00
H1799  H     0.89885   0.56818   0.33539   0.00000  Uiso   1.00
O1800  O     0.60851   0.94456   0.72145   0.00000  Uiso   1.00
C1801  C     0.62639   0.95205   0.68587   0.00000  Uiso   1.00
H1802  H     0.63493   0.92722   0.66952   0.00000  Uiso   1.00
H1803  H     0.65060   0.96982   0.69103   0.00000  Uiso   1.00
H1804  H     0.60739   0.96747   0.66701   0.00000  Uiso   1.00
O1805  O     0.55201   0.60444   0.24024   0.00000  Uiso   1.00
C1806  C     0.53477   0.60118   0.27673   0.00000  Uiso   1.00
H1807  H     0.50956   0.58462   0.27308   0.00000  Uiso   1.00
H1808  H     0.52692   0.62847   0.28790   0.00000  Uiso   1.00
H1809  H     0.55178   0.58687   0.29864   0.00000  Uiso   1.00
O1810  O     0.94793   0.89558   0.76041   0.00000  Uiso   1.00
C1811  C     0.96594   0.89804   0.72425   0.00000  Uiso   1.00
H1812  H     0.97600   0.87079   0.71521   0.00000  Uiso   1.00
H1813  H     0.98989   0.91647   0.72757   0.00000  Uiso   1.00
H1814  H     0.94872   0.90977   0.70082   0.00000  Uiso   1.00
O1815  O     0.60952   0.94384   0.28060   0.00000  Uiso   1.00
C1816  C     0.61943   0.94448   0.32014   0.00000  Uiso   1.00
H1817  H     0.61161   0.97125   0.33256   0.00000  Uiso   1.00
H1818  H     0.64945   0.94160   0.32387   0.00000  Uiso   1.00
H1819  H     0.60479   0.92305   0.33710   0.00000  Uiso   1.00
O1820  O     0.89090   0.55644   0.71888   0.00000  Uiso   1.00
C1821  C     0.87456   0.55257   0.68193   0.00000  Uiso   1.00
H1822  H     0.87160   0.57882   0.66576   0.00000  Uiso   1.00
H1823  H     0.84744   0.53904   0.68468   0.00000  Uiso   1.00
H1824  H     0.89201   0.53450   0.66406   0.00000  Uiso   1.00
F1825  F     0.94512   0.78428   0.39800   0.00000  Uiso   1.00
F1826  F     0.55489   0.71573   0.60200   0.00000  Uiso   1.00
F1827  F     0.71696   0.55572   0.39820   0.00000  Uiso   1.00
F1828  F     0.78305   0.94428   0.60180   0.00000  Uiso   1.00
F1829  F     0.55574   0.71699   0.39820   0.00000  Uiso   1.00
F1830  F     0.94426   0.78300   0.60180   0.00000  Uiso   1.00
F1831  F     0.78430   0.94513   0.39800   0.00000  Uiso   1.00
F1832  F     0.71569   0.55486   0.60200   0.00000  Uiso   1.00
F1833  F     0.69514   0.53430   0.89800   0.00000  Uiso   1.00
F1834  F     0.80487   0.96571   0.10200   0.00000  Uiso   1.00
F1835  F     0.96699   0.80574   0.89820   0.00000  Uiso   1.00
F1836  F     0.53302   0.69427   0.10180   0.00000  Uiso   1.00
F1837  F     0.80572   0.96696   0.89820   0.00000  Uiso   1.00
F1838  F     0.69427   0.53303   0.10180   0.00000  Uiso   1.00
F1839  F     0.53428   0.69512   0.89800   0.00000  Uiso   1.00
F1840  F     0.96571   0.80487   0.10200   0.00000  Uiso   1.00
loop_
_geom_bond_atom_site_label_1
_geom_bond_atom_site_label_2
_geom_bond_distance
_geom_bond_site_symmetry_2
_ccdc_geom_bond_type
C1     C101    1.404   .     A
C1     C17     1.399   .     A
C1     F445    1.358   .     S
C2     C102    1.404   .     A
C2     F446    1.358   .     S
C2     C18     1.399   .     A
C3     C103    1.403   .     A
C3     F447    1.360   .     S
C3     C939    1.399   1_545 S
C4     F448    1.360   .     S
C4     C104    1.403   .     A
C4     C940    1.399   .     S
C5     F449    1.360   .     S
C5     C97     1.403   .     A
C5     C477    1.399   1_455 S
C6     C98     1.403   .     A
C6     F450    1.360   .     S
C6     C478    1.399   .     S
C7     C99     1.404   .     A
C7     C19     1.399   .     A
C7     F451    1.358   .     S
C8     F452    1.358   .     S
C8     C100    1.404   .     A
C8     C20     1.399   .     A
C9     C109    1.404   .     A
C9     F453    1.358   .     S
C9     C941    1.399   1_545 S
C10    F454    1.358   .     S
C10    C110    1.404   .     A
C10    C942    1.399   .     S
C11    F455    1.360   .     S
C11    C23     1.399   .     A
C11    C111    1.403   .     A
C12    F456    1.360   .     S
C12    C112    1.403   .     A
C12    C24     1.398   .     A
C13    C21     1.399   .     A
C13    F457    1.360   .     S
C13    C105    1.403   .     A
C14    F458    1.360   .     S
C14    C22     1.399   .     A
C14    C106    1.403   .     A
C15    C107    1.404   .     A
C15    F459    1.358   .     S
C15    C483    1.399   1_455 S
C16    F460    1.358   .     S
C16    C108    1.404   .     A
C16    C484    1.399   .     S
C17    C43     1.463   .     S
C17    C465    1.399   .     S
C18    C44     1.463   .     S
C18    C466    1.399   1_455 S
C19    C41     1.463   .     S
C19    C923    1.399   .     S
C20    C42     1.463   .     S
C20    C924    1.399   1_545 S
C21    C929    1.399   .     S
C21    C967    1.463   .     S
C22    C930    1.399   1_545 S
C22    C48     1.463   .     S
C23    C475    1.399   .     S
C23    C505    1.463   .     S
C24    C476    1.399   1_455 S
C24    C46     1.463   .     S
C25    C97     1.415   .     A
C25    O205    1.385   .     S
C25    C30     1.402   .     A
C26    O210    1.385   .     S
C26    C98     1.415   .     A
C26    C29     1.402   .     A
C27    C99     1.414   .     A
C27    O215    1.386   .     S
C27    C32     1.402   .     A
C28    O220    1.386   .     S
C28    C31     1.402   .     A
C28    C100    1.414   .     A
C29    C101    1.414   .     A
C29    O225    1.386   .     S
C30    C102    1.414   .     A
C30    O230    1.386   .     S
C31    C103    1.415   .     A
C31    O235    1.385   .     S
C32    C104    1.415   .     A
C32    O240    1.385   .     S
C33    O245    1.385   .     S
C33    C105    1.415   .     A
C33    C38     1.402   1_556 S
C34    C106    1.415   .     A
C34    O250    1.385   .     S
C34    C37     1.402   1_554 S
C35    C107    1.414   .     A
C35    O255    1.386   .     S
C35    C40     1.402   1_556 S
C36    C108    1.414   .     A
C36    O260    1.386   .     S
C36    C39     1.402   1_554 S
C37    C109    1.414   .     A
C37    O265    1.386   .     S
C37    C34     1.402   1_556 S
C38    C110    1.414   .     A
C38    O270    1.386   .     S
C38    C33     1.402   1_554 S
C39    C111    1.415   .     A
C39    O275    1.385   .     S
C39    C36     1.402   1_556 S
C40    C112    1.415   .     A
C40    O280    1.385   .     S
C40    C35     1.402   1_554 S
C41    O141    1.279   .     A
C41    O1065   1.279   .     S
C42    O142    1.279   .     A
C42    O1066   1.279   1_545 S
C43    O147    1.279   .     A
C43    O603    1.279   .     S
C44    O148    1.279   .     A
C44    O604    1.279   1_455 S
C45    O149    1.279   .     A
C45    C483    1.463   1_455 S
C45    O153    1.279   .     S
C46    O150    1.279   .     A
C46    O154    1.279   .     S
C47    O151    1.279   .     A
C47    O155    1.279   .     A
C47    C941    1.463   1_545 S
C48    O152    1.279   .     S
C48    O156    1.279   .     S
C49    C115    1.456   .     S
C49    O157    1.280   .     A
C49    O183    1.280   .     A
C50    O184    1.280   .     A
C50    O158    1.280   .     A
C50    C116    1.456   .     S
C51    O181    1.280   .     A
C51    C117    1.445   .     S
C51    O159    1.278   .     A
C52    O182    1.280   .     A
C52    O160    1.278   .     A
C52    C118    1.447   .     S
C53    C119    1.457   .     S
C53    O187    1.279   .     A
C53    O161    1.279   .     A
C54    O162    1.279   .     A
C54    O188    1.279   .     A
C54    C120    1.457   .     S
C55    C113    1.445   .     S
C55    O163    1.280   .     A
C55    O185    1.278   .     A
C56    O164    1.280   .     A
C56    C114    1.447   .     S
C56    O186    1.278   .     A
C57    C123    1.446   .     S
C57    O175    1.278   .     A
C57    O165    1.280   .     A
C58    O166    1.280   .     A
C58    O176    1.279   .     A
C58    C124    1.447   .     S
C59    O167    1.280   .     A
C59    C125    1.457   .     S
C59    O173    1.280   .     A
C60    O174    1.280   .     A
C60    O168    1.280   .     A
C60    C126    1.457   .     S
C61    O179    1.280   .     A
C61    O169    1.278   .     A
C61    C127    1.446   .     S
C62    O170    1.279   .     A
C62    O180    1.280   .     A
C62    C128    1.447   .     S
C63    O171    1.279   .     A
C63    C121    1.457   .     S
C63    O177    1.279   .     A
C64    O172    1.279   .     A
C64    O178    1.279   .     A
C64    C122    1.457   .     S
C65    O285    1.385   .     S
C65    C128    1.404   .     A
C65    C80     1.397   .     A
C66    C79     1.397   .     A
C66    C127    1.409   .     A
C66    O290    1.387   .     S
C67    C126    1.409   .     A
C67    O295    1.384   .     S
C67    C78     1.395   .     A
C68    C77     1.395   .     A
C68    O300    1.384   .     S
C68    C125    1.410   .     A
C69    C76     1.397   .     A
C69    C124    1.405   .     A
C69    O305    1.383   .     S
C70    C75     1.398   .     A
C70    O310    1.384   .     S
C70    C123    1.410   .     A
C71    C122    1.410   .     A
C71    C74     1.401   .     A
C71    O315    1.387   .     S
C72    C73     1.401   .     A
C72    O320    1.387   .     S
C72    C121    1.410   .     A
C73    O325    1.387   .     S
C73    C120    1.410   .     A
C74    O330    1.387   .     S
C74    C119    1.410   .     A
C75    C118    1.405   .     A
C75    O335    1.385   .     S
C76    C117    1.409   .     A
C76    O340    1.387   .     S
C77    O345    1.385   .     S
C77    C116    1.410   .     A
C78    C115    1.410   .     A
C78    O350    1.385   .     S
C79    C114    1.405   .     A
C79    O355    1.383   .     S
C80    O360    1.384   .     S
C80    C113    1.409   .     A
C81    C114    1.405   .     A
C81    C96     1.398   .     A
C81    O365    1.385   .     S
C82    C95     1.397   .     A
C82    C113    1.409   .     A
C82    O370    1.387   .     S
C83    C94     1.395   .     A
C83    O375    1.385   .     S
C83    C116    1.410   .     A
C84    C93     1.395   .     A
C84    O380    1.385   .     S
C84    C115    1.410   .     A
C85    C92     1.397   .     A
C85    O385    1.383   .     S
C85    C118    1.405   .     A
C86    C117    1.409   .     A
C86    O390    1.384   .     S
C86    C91     1.397   .     A
C87    O395    1.387   .     S
C87    C90     1.401   .     A
C87    C120    1.410   .     A
C88    C119    1.410   .     A
C88    C89     1.401   .     A
C88    O400    1.387   .     S
C89    O405    1.387   .     S
C89    C122    1.410   .     A
C90    O410    1.387   .     S
C90    C121    1.410   .     A
C91    O415    1.385   .     S
C91    C124    1.404   .     A
C92    C123    1.409   .     A
C92    O420    1.387   .     S
C93    C126    1.409   .     A
C93    O425    1.384   .     S
C94    O430    1.384   .     S
C94    C125    1.409   .     A
C95    O435    1.383   .     S
C95    C128    1.405   .     A
C96    C127    1.410   .     A
C96    O440    1.384   .     S
C97    C589    1.418   1_455 S
C98    C590    1.418   .     S
C99    C131    1.419   .     A
C100   C132    1.419   .     A
C101   C129    1.419   .     A
C102   C130    1.419   .     A
C103   C1051   1.418   1_545 S
C104   C1052   1.418   .     S
C105   C133    1.418   .     A
C106   C134    1.418   .     A
C107   C595    1.419   1_455 S
C108   C596    1.419   .     S
C109   C1053   1.419   1_545 S
C110   C1054   1.419   .     S
C111   C135    1.418   .     A
C112   C136    1.418   .     A
C129   C557    1.418   .     S
C129   C590    1.408   .     S
C130   C558    1.418   1_455 S
C130   C589    1.408   1_455 S
C131   C1023   1.418   .     S
C131   C1052   1.408   .     S
C132   C1024   1.418   1_545 S
C132   C1051   1.408   1_545 S
C133   C1029   1.419   .     S
C133   C1054   1.408   1_556 S
C134   C1030   1.419   1_545 S
C134   C1053   1.408   1_544 S
C135   C567    1.419   .     S
C135   C596    1.408   1_556 S
C136   C568    1.419   1_455 S
C136   C595    1.408   1_454 S
O137   Zn193   1.945   .     S
O137   Zn200   1.948   .     S
O137   Zn189   1.948   .     S
O137   Zn1124  1.945   1_545 S
O138   Zn194   1.945   .     S
O138   Zn203   1.945   .     S
O138   Zn190   1.948   .     S
O138   Zn1119  1.948   1_545 S
O139   Zn195   1.945   .     S
O139   Zn662   1.945   1_455 S
O139   Zn191   1.948   .     S
O139   Zn198   1.948   .     S
O140   Zn196   1.945   .     S
O140   Zn201   1.945   .     S
O140   Zn192   1.948   .     S
O140   Zn657   1.948   1_455 S
O141   Zn204   1.953   .     S
O142   Zn203   1.953   .     S
O143   Zn198   1.952   .     S
O143   C503    1.279   1_455 S
O144   Zn197   1.952   .     S
O144   C504    1.279   .     S
O145   Zn200   1.952   .     S
O145   C961    1.279   1_545 S
O146   Zn199   1.952   .     S
O146   C962    1.279   .     S
O147   Zn202   1.953   .     S
O148   Zn201   1.953   .     S
O149   Zn196   1.953   .     S
O150   Zn195   1.953   .     S
O151   Zn190   1.952   .     S
O152   Zn189   1.952   .     S
O153   Zn192   1.952   .     S
O154   Zn191   1.952   .     S
O155   Zn194   1.953   .     S
O156   Zn193   1.953   .     S
O157   Zn200   1.939   .     S
O158   Zn199   1.939   .     S
O159   Zn202   1.927   .     S
O160   Zn201   1.927   .     S
O161   Zn204   1.939   .     S
O162   Zn203   1.939   .     S
O163   Zn198   1.926   .     S
O164   Zn197   1.926   .     S
O165   Zn199   1.926   .     S
O166   Zn200   1.926   .     S
O167   Zn197   1.939   .     S
O168   Zn198   1.939   .     S
O169   Zn203   1.927   .     S
O170   Zn204   1.927   .     S
O171   Zn201   1.939   .     S
O172   Zn202   1.939   .     S
O173   Zn652   1.939   .     S
O174   Zn191   1.939   .     S
O175   Zn1114  1.927   .     S
O176   Zn193   1.927   .     S
O177   Zn196   1.939   .     S
O178   Zn655   1.939   .     S
O179   Zn190   1.926   .     S
O180   Zn1109  1.926   .     S
O181   Zn651   1.926   .     S
O182   Zn192   1.926   .     S
O183   Zn189   1.939   .     S
O184   Zn1110  1.939   .     S
O185   Zn195   1.927   .     S
O186   Zn656   1.927   .     S
O187   Zn1113  1.939   .     S
O188   Zn194   1.939   .     S
Zn189  O1100   1.926   1_545 S
Zn190  O1104   1.939   1_545 S
Zn191  O641    1.926   1_455 S
Zn192  O633    1.939   1_455 S
Zn193  O1107   1.939   1_545 S
Zn194  O1095   1.927   1_545 S
Zn195  O638    1.939   1_455 S
Zn196  O646    1.927   1_455 S
Zn197  O600    1.948   .     S
Zn199  O1058   1.948   .     S
Zn202  O599    1.945   .     S
Zn204  O1057   1.945   .     S
O205   C206    1.415   .     S
C206   H207    1.109   .     S
C206   H208    1.110   .     S
C206   H209    1.113   .     S
O210   C211    1.415   .     S
C211   H214    1.113   .     S
C211   H212    1.110   .     S
C211   H213    1.109   .     S
O215   C216    1.414   .     S
C216   H219    1.109   .     S
C216   H218    1.109   .     S
C216   H217    1.116   .     S
O220   C221    1.414   .     S
C221   H222    1.109   .     S
C221   H224    1.109   .     S
C221   H223    1.116   .     S
O225   C226    1.414   .     S
C226   H227    1.109   .     S
C226   H228    1.116   .     S
C226   H229    1.109   .     S
O230   C231    1.414   .     S
C231   H233    1.109   .     S
C231   H234    1.109   .     S
C231   H232    1.116   .     S
O235   C236    1.415   .     S
C236   H237    1.110   .     S
C236   H239    1.113   .     S
C236   H238    1.109   .     S
O240   C241    1.415   .     S
C241   H242    1.109   .     S
C241   H244    1.113   .     S
C241   H243    1.110   .     S
O245   C246    1.415   .     S
C246   H247    1.109   .     S
C246   H249    1.113   .     S
C246   H248    1.110   .     S
O250   C251    1.415   .     S
C251   H252    1.110   .     S
C251   H254    1.113   .     S
C251   H253    1.109   .     S
O255   C256    1.414   .     S
C256   H259    1.109   .     S
C256   H258    1.109   .     S
C256   H257    1.116   .     S
O260   C261    1.414   .     S
C261   H262    1.109   .     S
C261   H264    1.109   .     S
C261   H263    1.116   .     S
O265   C266    1.414   .     S
C266   H269    1.109   .     S
C266   H268    1.116   .     S
C266   H267    1.109   .     S
O270   C271    1.414   .     S
C271   H272    1.116   .     S
C271   H274    1.109   .     S
C271   H273    1.109   .     S
O275   C276    1.415   .     S
C276   H279    1.113   .     S
C276   H277    1.110   .     S
C276   H278    1.109   .     S
O280   C281    1.415   .     S
C281   H284    1.113   .     S
C281   H282    1.109   .     S
C281   H283    1.110   .     S
O285   C286    1.411   .     S
C286   H289    1.110   .     S
C286   H288    1.113   .     S
C286   H287    1.109   .     S
O290   C291    1.415   .     S
C291   H292    1.116   .     S
C291   H293    1.110   .     S
C291   H294    1.109   .     S
O295   C296    1.411   .     S
C296   H297    1.107   .     S
C296   H299    1.112   .     S
C296   H298    1.110   .     S
O300   C301    1.412   .     S
C301   H302    1.110   .     S
C301   H304    1.113   .     S
C301   H303    1.108   .     S
O305   C306    1.412   .     S
C306   H307    1.109   .     S
C306   H308    1.112   .     S
C306   H309    1.111   .     S
O310   C311    1.415   .     S
C311   H313    1.109   .     S
C311   H312    1.116   .     S
C311   H314    1.109   .     S
O315   C316    1.416   .     S
C316   H317    1.108   .     S
C316   H319    1.108   .     S
C316   H318    1.116   .     S
O320   C321    1.416   .     S
C321   H322    1.116   .     S
C321   H324    1.108   .     S
C321   H323    1.108   .     S
O325   C326    1.416   .     S
C326   H327    1.108   .     S
C326   H329    1.108   .     S
C326   H328    1.116   .     S
O330   C331    1.416   .     S
C331   H334    1.108   .     S
C331   H332    1.116   .     S
C331   H333    1.108   .     S
O335   C336    1.411   .     S
C336   H337    1.109   .     S
C336   H339    1.109   .     S
C336   H338    1.113   .     S
O340   C341    1.415   .     S
C341   H343    1.110   .     S
C341   H344    1.109   .     S
C341   H342    1.116   .     S
O345   C346    1.414   .     S
C346   H348    1.115   .     S
C346   H349    1.109   .     S
C346   H347    1.108   .     S
O350   C351    1.415   .     S
C351   H352    1.116   .     S
C351   H354    1.109   .     S
C351   H353    1.109   .     S
O355   C356    1.412   .     S
C356   H359    1.111   .     S
C356   H358    1.112   .     S
C356   H357    1.109   .     S
O360   C361    1.415   .     S
C361   H364    1.109   .     S
C361   H363    1.110   .     S
C361   H362    1.116   .     S
O365   C366    1.411   .     S
C366   H369    1.109   .     S
C366   H367    1.109   .     S
C366   H368    1.113   .     S
O370   C371    1.415   .     S
C371   H374    1.109   .     S
C371   H372    1.116   .     S
C371   H373    1.110   .     S
O375   C376    1.414   .     S
C376   H379    1.109   .     S
C376   H378    1.115   .     S
C376   H377    1.108   .     S
O380   C381    1.415   .     S
C381   H382    1.116   .     S
C381   H384    1.109   .     S
C381   H383    1.109   .     S
O385   C386    1.412   .     S
C386   H388    1.112   .     S
C386   H389    1.111   .     S
C386   H387    1.109   .     S
O390   C391    1.415   .     S
C391   H394    1.109   .     S
C391   H393    1.110   .     S
C391   H392    1.116   .     S
O395   C396    1.416   .     S
C396   H398    1.116   .     S
C396   H397    1.108   .     S
C396   H399    1.108   .     S
O400   C401    1.416   .     S
C401   H403    1.108   .     S
C401   H402    1.116   .     S
C401   H404    1.108   .     S
O405   C406    1.416   .     S
C406   H408    1.116   .     S
C406   H407    1.108   .     S
C406   H409    1.108   .     S
O410   C411    1.416   .     S
C411   H413    1.108   .     S
C411   H414    1.108   .     S
C411   H412    1.116   .     S
O415   C416    1.411   .     S
C416   H417    1.109   .     S
C416   H419    1.110   .     S
C416   H418    1.113   .     S
O420   C421    1.415   .     S
C421   H422    1.116   .     S
C421   H424    1.109   .     S
C421   H423    1.110   .     S
O425   C426    1.411   .     S
C426   H427    1.107   .     S
C426   H428    1.110   .     S
C426   H429    1.112   .     S
O430   C431    1.412   .     S
C431   H432    1.110   .     S
C431   H434    1.113   .     S
C431   H433    1.108   .     S
O435   C436    1.412   .     S
C436   H439    1.111   .     S
C436   H437    1.109   .     S
C436   H438    1.112   .     S
O440   C441    1.415   .     S
C441   H444    1.109   .     S
C441   H443    1.109   .     S
C441   H442    1.116   .     S
C461   C561    1.404   .     A
C461   C477    1.399   .     A
C461   F905    1.358   .     S
C462   C562    1.404   .     A
C462   F906    1.358   .     S
C462   C478    1.399   .     A
C463   C563    1.403   .     A
C463   F907    1.360   .     S
C463   C1399   1.399   1_545 S
C464   F908    1.360   .     S
C464   C564    1.403   .     A
C464   C1400   1.399   .     S
C465   F909    1.360   .     S
C465   C557    1.403   .     A
C466   C558    1.403   .     A
C466   F910    1.360   .     S
C466   C18     1.399   1_655 S
C467   C559    1.404   .     A
C467   C479    1.399   .     A
C467   F911    1.358   .     S
C468   F912    1.358   .     S
C468   C560    1.404   .     A
C468   C480    1.399   .     A
C469   C569    1.404   .     A
C469   F913    1.358   .     S
C469   C1401   1.399   1_545 S
C470   F914    1.358   .     S
C470   C570    1.404   .     A
C470   C1402   1.399   .     S
C471   F915    1.360   .     S
C471   C483    1.399   .     A
C471   C571    1.403   .     A
C472   F916    1.360   .     S
C472   C572    1.403   .     A
C472   C484    1.398   .     A
C473   C481    1.399   .     A
C473   F917    1.360   .     S
C473   C565    1.403   .     A
C474   F918    1.360   .     S
C474   C482    1.399   .     A
C474   C566    1.403   .     A
C475   C567    1.404   .     A
C475   F919    1.358   .     S
C476   F920    1.358   .     S
C476   C568    1.404   .     A
C476   C24     1.399   1_655 S
C477   C503    1.463   .     S
C477   C5      1.399   1_655 S
C478   C504    1.463   .     S
C479   C501    1.463   .     S
C479   C1383   1.399   .     S
C480   C502    1.463   .     S
C480   C1384   1.399   1_545 S
C481   C1389   1.399   .     S
C481   C1427   1.463   .     S
C482   C1390   1.399   1_545 S
C482   C508    1.463   .     S
C483   C15     1.399   1_655 S
C483   C45     1.463   1_655 S
C484   C506    1.463   .     S
C485   C557    1.415   .     A
C485   O665    1.385   .     S
C485   C490    1.402   .     A
C486   O670    1.385   .     S
C486   C558    1.415   .     A
C486   C489    1.402   .     A
C487   C559    1.414   .     A
C487   O675    1.386   .     S
C487   C492    1.402   .     A
C488   O680    1.386   .     S
C488   C491    1.402   .     A
C488   C560    1.414   .     A
C489   C561    1.414   .     A
C489   O685    1.386   .     S
C490   C562    1.414   .     A
C490   O690    1.386   .     S
C491   C563    1.415   .     A
C491   O695    1.385   .     S
C492   C564    1.415   .     A
C492   O700    1.385   .     S
C493   O705    1.385   .     S
C493   C565    1.415   .     A
C493   C498    1.402   1_556 S
C494   C566    1.415   .     A
C494   O710    1.385   .     S
C494   C497    1.402   1_554 S
C495   C567    1.414   .     A
C495   O715    1.386   .     S
C495   C500    1.402   1_556 S
C496   C568    1.414   .     A
C496   O720    1.386   .     S
C496   C499    1.402   1_554 S
C497   C569    1.414   .     A
C497   O725    1.386   .     S
C497   C494    1.402   1_556 S
C498   C570    1.414   .     A
C498   O730    1.386   .     S
C498   C493    1.402   1_554 S
C499   C571    1.415   .     A
C499   O735    1.385   .     S
C499   C496    1.402   1_556 S
C500   C572    1.415   .     A
C500   O740    1.385   .     S
C500   C495    1.402   1_554 S
C501   O601    1.279   .     A
C501   O1525   1.279   .     S
C502   O602    1.279   .     A
C502   O1526   1.279   1_545 S
C503   O607    1.279   .     A
C503   O143    1.279   1_655 S
C504   O608    1.279   .     A
C505   O609    1.279   .     A
C505   O613    1.279   .     S
C506   O610    1.279   .     A
C506   O614    1.279   .     S
C507   O611    1.279   .     A
C507   O615    1.279   .     A
C507   C1401   1.463   1_545 S
C508   O612    1.279   .     S
C508   O616    1.279   .     S
C509   C575    1.456   .     S
C509   O617    1.280   .     A
C509   O643    1.280   .     A
C510   O644    1.280   .     A
C510   O618    1.280   .     A
C510   C576    1.456   .     S
C511   O641    1.280   .     A
C511   C577    1.445   .     S
C511   O619    1.278   .     A
C512   O642    1.280   .     A
C512   O620    1.278   .     A
C512   C578    1.447   .     S
C513   C579    1.457   .     S
C513   O647    1.279   .     A
C513   O621    1.279   .     A
C514   O622    1.279   .     A
C514   O648    1.279   .     A
C514   C580    1.457   .     S
C515   C573    1.445   .     S
C515   O623    1.280   .     A
C515   O645    1.278   .     A
C516   O624    1.280   .     A
C516   C574    1.447   .     S
C516   O646    1.278   .     A
C517   C583    1.446   .     S
C517   O635    1.278   .     A
C517   O625    1.280   .     A
C518   O626    1.280   .     A
C518   O636    1.279   .     A
C518   C584    1.447   .     S
C519   O627    1.280   .     A
C519   C585    1.457   .     S
C519   O633    1.280   .     A
C520   O634    1.280   .     A
C520   O628    1.280   .     A
C520   C586    1.457   .     S
C521   O639    1.280   .     A
C521   O629    1.278   .     A
C521   C587    1.446   .     S
C522   O630    1.279   .     A
C522   O640    1.280   .     A
C522   C588    1.447   .     S
C523   O631    1.279   .     A
C523   C581    1.457   .     S
C523   O637    1.279   .     A
C524   O632    1.279   .     A
C524   O638    1.279   .     A
C524   C582    1.457   .     S
C525   O745    1.385   .     S
C525   C588    1.404   .     A
C525   C540    1.397   .     A
C526   C539    1.397   .     A
C526   C587    1.409   .     A
C526   O750    1.387   .     S
C527   C586    1.409   .     A
C527   O755    1.384   .     S
C527   C538    1.395   .     A
C528   C537    1.395   .     A
C528   O760    1.384   .     S
C528   C585    1.410   .     A
C529   C536    1.397   .     A
C529   C584    1.405   .     A
C529   O765    1.383   .     S
C530   C535    1.398   .     A
C530   O770    1.384   .     S
C530   C583    1.410   .     A
C531   C582    1.410   .     A
C531   C534    1.401   .     A
C531   O775    1.387   .     S
C532   C533    1.401   .     A
C532   O780    1.387   .     S
C532   C581    1.410   .     A
C533   O785    1.387   .     S
C533   C580    1.410   .     A
C534   O790    1.387   .     S
C534   C579    1.410   .     A
C535   C578    1.405   .     A
C535   O795    1.385   .     S
C536   C577    1.409   .     A
C536   O800    1.387   .     S
C537   O805    1.385   .     S
C537   C576    1.410   .     A
C538   C575    1.410   .     A
C538   O810    1.385   .     S
C539   C574    1.405   .     A
C539   O815    1.383   .     S
C540   O820    1.384   .     S
C540   C573    1.409   .     A
C541   C574    1.405   .     A
C541   C556    1.398   .     A
C541   O825    1.385   .     S
C542   C555    1.397   .     A
C542   C573    1.409   .     A
C542   O830    1.387   .     S
C543   C554    1.395   .     A
C543   O835    1.385   .     S
C543   C576    1.410   .     A
C544   C553    1.395   .     A
C544   O840    1.385   .     S
C544   C575    1.410   .     A
C545   C552    1.397   .     A
C545   O845    1.383   .     S
C545   C578    1.405   .     A
C546   C577    1.409   .     A
C546   O850    1.384   .     S
C546   C551    1.397   .     A
C547   O855    1.387   .     S
C547   C550    1.401   .     A
C547   C580    1.410   .     A
C548   C579    1.410   .     A
C548   C549    1.401   .     A
C548   O860    1.387   .     S
C549   O865    1.387   .     S
C549   C582    1.410   .     A
C550   O870    1.387   .     S
C550   C581    1.410   .     A
C551   O875    1.385   .     S
C551   C584    1.404   .     A
C552   C583    1.409   .     A
C552   O880    1.387   .     S
C553   C586    1.409   .     A
C553   O885    1.384   .     S
C554   O890    1.384   .     S
C554   C585    1.409   .     A
C555   O895    1.383   .     S
C555   C588    1.405   .     A
C556   C587    1.410   .     A
C556   O900    1.384   .     S
C558   C130    1.418   1_655 S
C559   C591    1.419   .     A
C560   C592    1.419   .     A
C561   C589    1.419   .     A
C562   C590    1.419   .     A
C563   C1511   1.418   1_545 S
C564   C1512   1.418   .     S
C565   C593    1.418   .     A
C566   C594    1.418   .     A
C568   C136    1.419   1_655 S
C569   C1513   1.419   1_545 S
C570   C1514   1.419   .     S
C571   C595    1.418   .     A
C572   C596    1.418   .     A
C589   C97     1.418   1_655 S
C589   C130    1.408   1_655 S
C591   C1483   1.418   .     S
C591   C1512   1.408   .     S
C592   C1484   1.418   1_545 S
C592   C1511   1.408   1_545 S
C593   C1489   1.419   .     S
C593   C1514   1.408   1_556 S
C594   C1490   1.419   1_545 S
C594   C1513   1.408   1_544 S
C595   C107    1.419   1_655 S
C595   C136    1.408   1_656 S
C596   C135    1.408   1_554 S
O597   Zn653   1.945   .     S
O597   Zn660   1.948   .     S
O597   Zn649   1.948   .     S
O597   Zn1584  1.945   1_545 S
O598   Zn654   1.945   .     S
O598   Zn663   1.945   .     S
O598   Zn650   1.948   .     S
O598   Zn1579  1.948   1_545 S
O599   Zn655   1.945   .     S
O599   Zn651   1.948   .     S
O599   Zn658   1.948   .     S
O600   Zn656   1.945   .     S
O600   Zn661   1.945   .     S
O600   Zn652   1.948   .     S
O601   Zn664   1.953   .     S
O602   Zn663   1.953   .     S
O603   Zn658   1.952   .     S
O604   Zn657   1.952   .     S
O604   C44     1.279   1_655 S
O605   Zn660   1.952   .     S
O605   C1421   1.279   1_545 S
O606   Zn659   1.952   .     S
O606   C1422   1.279   .     S
O607   Zn662   1.953   .     S
O608   Zn661   1.953   .     S
O609   Zn656   1.953   .     S
O610   Zn655   1.953   .     S
O611   Zn650   1.952   .     S
O612   Zn649   1.952   .     S
O613   Zn652   1.952   .     S
O614   Zn651   1.952   .     S
O615   Zn654   1.953   .     S
O616   Zn653   1.953   .     S
O617   Zn660   1.939   .     S
O618   Zn659   1.939   .     S
O619   Zn662   1.927   .     S
O620   Zn661   1.927   .     S
O621   Zn664   1.939   .     S
O622   Zn663   1.939   .     S
O623   Zn658   1.926   .     S
O624   Zn657   1.926   .     S
O625   Zn659   1.926   .     S
O626   Zn660   1.926   .     S
O627   Zn657   1.939   .     S
O628   Zn658   1.939   .     S
O629   Zn663   1.927   .     S
O630   Zn664   1.927   .     S
O631   Zn661   1.939   .     S
O632   Zn662   1.939   .     S
O633   Zn192   1.939   1_655 S
O634   Zn651   1.939   .     S
O635   Zn1574  1.927   .     S
O636   Zn653   1.927   .     S
O637   Zn656   1.939   .     S
O638   Zn195   1.939   1_655 S
O639   Zn650   1.926   .     S
O640   Zn1569  1.926   .     S
O641   Zn191   1.926   1_655 S
O642   Zn652   1.926   .     S
O643   Zn649   1.939   .     S
O644   Zn1570  1.939   .     S
O645   Zn655   1.927   .     S
O646   Zn196   1.927   1_655 S
O647   Zn1573  1.939   .     S
O648   Zn654   1.939   .     S
Zn649  O1560   1.926   1_545 S
Zn650  O1564   1.939   1_545 S
Zn653  O1567   1.939   1_545 S
Zn654  O1555   1.927   1_545 S
Zn657  O140    1.948   1_655 S
Zn659  O1518   1.948   .     S
Zn662  O139    1.945   1_655 S
Zn664  O1517   1.945   .     S
O665   C666    1.415   .     S
C666   H667    1.109   .     S
C666   H668    1.110   .     S
C666   H669    1.113   .     S
O670   C671    1.415   .     S
C671   H674    1.113   .     S
C671   H672    1.110   .     S
C671   H673    1.109   .     S
O675   C676    1.414   .     S
C676   H679    1.109   .     S
C676   H678    1.109   .     S
C676   H677    1.116   .     S
O680   C681    1.414   .     S
C681   H682    1.109   .     S
C681   H684    1.109   .     S
C681   H683    1.116   .     S
O685   C686    1.414   .     S
C686   H687    1.109   .     S
C686   H688    1.116   .     S
C686   H689    1.109   .     S
O690   C691    1.414   .     S
C691   H693    1.109   .     S
C691   H694    1.109   .     S
C691   H692    1.116   .     S
O695   C696    1.415   .     S
C696   H697    1.110   .     S
C696   H699    1.113   .     S
C696   H698    1.109   .     S
O700   C701    1.415   .     S
C701   H702    1.109   .     S
C701   H704    1.113   .     S
C701   H703    1.110   .     S
O705   C706    1.415   .     S
C706   H707    1.109   .     S
C706   H709    1.113   .     S
C706   H708    1.110   .     S
O710   C711    1.415   .     S
C711   H712    1.110   .     S
C711   H714    1.113   .     S
C711   H713    1.109   .     S
O715   C716    1.414   .     S
C716   H719    1.109   .     S
C716   H718    1.109   .     S
C716   H717    1.116   .     S
O720   C721    1.414   .     S
C721   H722    1.109   .     S
C721   H724    1.109   .     S
C721   H723    1.116   .     S
O725   C726    1.414   .     S
C726   H729    1.109   .     S
C726   H728    1.116   .     S
C726   H727    1.109   .     S
O730   C731    1.414   .     S
C731   H732    1.116   .     S
C731   H734    1.109   .     S
C731   H733    1.109   .     S
O735   C736    1.415   .     S
C736   H739    1.113   .     S
C736   H737    1.110   .     S
C736   H738    1.109   .     S
O740   C741    1.415   .     S
C741   H744    1.113   .     S
C741   H742    1.109   .     S
C741   H743    1.110   .     S
O745   C746    1.411   .     S
C746   H749    1.110   .     S
C746   H748    1.113   .     S
C746   H747    1.109   .     S
O750   C751    1.415   .     S
C751   H752    1.116   .     S
C751   H753    1.110   .     S
C751   H754    1.109   .     S
O755   C756    1.411   .     S
C756   H757    1.107   .     S
C756   H759    1.112   .     S
C756   H758    1.110   .     S
O760   C761    1.412   .     S
C761   H762    1.110   .     S
C761   H764    1.113   .     S
C761   H763    1.108   .     S
O765   C766    1.412   .     S
C766   H767    1.109   .     S
C766   H768    1.112   .     S
C766   H769    1.111   .     S
O770   C771    1.415   .     S
C771   H773    1.109   .     S
C771   H772    1.116   .     S
C771   H774    1.109   .     S
O775   C776    1.416   .     S
C776   H777    1.108   .     S
C776   H779    1.108   .     S
C776   H778    1.116   .     S
O780   C781    1.416   .     S
C781   H782    1.116   .     S
C781   H784    1.108   .     S
C781   H783    1.108   .     S
O785   C786    1.416   .     S
C786   H787    1.108   .     S
C786   H789    1.108   .     S
C786   H788    1.116   .     S
O790   C791    1.416   .     S
C791   H794    1.108   .     S
C791   H792    1.116   .     S
C791   H793    1.108   .     S
O795   C796    1.411   .     S
C796   H797    1.109   .     S
C796   H799    1.109   .     S
C796   H798    1.113   .     S
O800   C801    1.415   .     S
C801   H803    1.110   .     S
C801   H804    1.109   .     S
C801   H802    1.116   .     S
O805   C806    1.414   .     S
C806   H808    1.115   .     S
C806   H809    1.109   .     S
C806   H807    1.108   .     S
O810   C811    1.415   .     S
C811   H812    1.116   .     S
C811   H814    1.109   .     S
C811   H813    1.109   .     S
O815   C816    1.412   .     S
C816   H819    1.111   .     S
C816   H818    1.112   .     S
C816   H817    1.109   .     S
O820   C821    1.415   .     S
C821   H824    1.109   .     S
C821   H823    1.110   .     S
C821   H822    1.116   .     S
O825   C826    1.411   .     S
C826   H829    1.109   .     S
C826   H827    1.109   .     S
C826   H828    1.113   .     S
O830   C831    1.415   .     S
C831   H834    1.109   .     S
C831   H832    1.116   .     S
C831   H833    1.110   .     S
O835   C836    1.414   .     S
C836   H839    1.109   .     S
C836   H838    1.115   .     S
C836   H837    1.108   .     S
O840   C841    1.415   .     S
C841   H842    1.116   .     S
C841   H844    1.109   .     S
C841   H843    1.109   .     S
O845   C846    1.412   .     S
C846   H848    1.112   .     S
C846   H849    1.111   .     S
C846   H847    1.109   .     S
O850   C851    1.415   .     S
C851   H854    1.109   .     S
C851   H853    1.110   .     S
C851   H852    1.116   .     S
O855   C856    1.416   .     S
C856   H858    1.116   .     S
C856   H857    1.108   .     S
C856   H859    1.108   .     S
O860   C861    1.416   .     S
C861   H863    1.108   .     S
C861   H862    1.116   .     S
C861   H864    1.108   .     S
O865   C866    1.416   .     S
C866   H868    1.116   .     S
C866   H867    1.108   .     S
C866   H869    1.108   .     S
O870   C871    1.416   .     S
C871   H873    1.108   .     S
C871   H874    1.108   .     S
C871   H872    1.116   .     S
O875   C876    1.411   .     S
C876   H877    1.109   .     S
C876   H879    1.110   .     S
C876   H878    1.113   .     S
O880   C881    1.415   .     S
C881   H882    1.116   .     S
C881   H884    1.109   .     S
C881   H883    1.110   .     S
O885   C886    1.411   .     S
C886   H887    1.107   .     S
C886   H888    1.110   .     S
C886   H889    1.112   .     S
O890   C891    1.412   .     S
C891   H892    1.110   .     S
C891   H894    1.113   .     S
C891   H893    1.108   .     S
O895   C896    1.412   .     S
C896   H899    1.111   .     S
C896   H897    1.109   .     S
C896   H898    1.112   .     S
O900   C901    1.415   .     S
C901   H904    1.109   .     S
C901   H903    1.109   .     S
C901   H902    1.116   .     S
C921   C1021   1.404   .     A
C921   C937    1.399   .     A
C921   F1365   1.358   .     S
C922   C1022   1.404   .     A
C922   F1366   1.358   .     S
C922   C938    1.399   .     A
C923   C1023   1.403   .     A
C923   F1367   1.360   .     S
C924   F1368   1.360   .     S
C924   C1024   1.403   .     A
C924   C20     1.399   1_565 S
C925   F1369   1.360   .     S
C925   C1017   1.403   .     A
C925   C1397   1.399   1_455 S
C926   C1018   1.403   .     A
C926   F1370   1.360   .     S
C926   C1398   1.399   .     S
C927   C1019   1.404   .     A
C927   C939    1.399   .     A
C927   F1371   1.358   .     S
C928   F1372   1.358   .     S
C928   C1020   1.404   .     A
C928   C940    1.399   .     A
C929   C1029   1.404   .     A
C929   F1373   1.358   .     S
C930   F1374   1.358   .     S
C930   C1030   1.404   .     A
C930   C22     1.399   1_565 S
C931   F1375   1.360   .     S
C931   C943    1.399   .     A
C931   C1031   1.403   .     A
C932   F1376   1.360   .     S
C932   C1032   1.403   .     A
C932   C944    1.398   .     A
C933   C941    1.399   .     A
C933   F1377   1.360   .     S
C933   C1025   1.403   .     A
C934   F1378   1.360   .     S
C934   C942    1.399   .     A
C934   C1026   1.403   .     A
C935   C1027   1.404   .     A
C935   F1379   1.358   .     S
C935   C1403   1.399   1_455 S
C936   F1380   1.358   .     S
C936   C1028   1.404   .     A
C936   C1404   1.399   .     S
C937   C963    1.463   .     S
C937   C1385   1.399   .     S
C938   C964    1.463   .     S
C938   C1386   1.399   1_455 S
C939   C961    1.463   .     S
C939   C3      1.399   1_565 S
C940   C962    1.463   .     S
C941   C9      1.399   1_565 S
C941   C47     1.463   1_565 S
C942   C968    1.463   .     S
C943   C1395   1.399   .     S
C943   C1425   1.463   .     S
C944   C1396   1.399   1_455 S
C944   C966    1.463   .     S
C945   C1017   1.415   .     A
C945   O1125   1.385   .     S
C945   C950    1.402   .     A
C946   O1130   1.385   .     S
C946   C1018   1.415   .     A
C946   C949    1.402   .     A
C947   C1019   1.414   .     A
C947   O1135   1.386   .     S
C947   C952    1.402   .     A
C948   O1140   1.386   .     S
C948   C951    1.402   .     A
C948   C1020   1.414   .     A
C949   C1021   1.414   .     A
C949   O1145   1.386   .     S
C950   C1022   1.414   .     A
C950   O1150   1.386   .     S
C951   C1023   1.415   .     A
C951   O1155   1.385   .     S
C952   C1024   1.415   .     A
C952   O1160   1.385   .     S
C953   O1165   1.385   .     S
C953   C1025   1.415   .     A
C953   C958    1.402   1_556 S
C954   C1026   1.415   .     A
C954   O1170   1.385   .     S
C954   C957    1.402   1_554 S
C955   C1027   1.414   .     A
C955   O1175   1.386   .     S
C955   C960    1.402   1_556 S
C956   C1028   1.414   .     A
C956   O1180   1.386   .     S
C956   C959    1.402   1_554 S
C957   C1029   1.414   .     A
C957   O1185   1.386   .     S
C957   C954    1.402   1_556 S
C958   C1030   1.414   .     A
C958   O1190   1.386   .     S
C958   C953    1.402   1_554 S
C959   C1031   1.415   .     A
C959   O1195   1.385   .     S
C959   C956    1.402   1_556 S
C960   C1032   1.415   .     A
C960   O1200   1.385   .     S
C960   C955    1.402   1_554 S
C961   O1061   1.279   .     A
C961   O145    1.279   1_565 S
C962   O1062   1.279   .     A
C963   O1067   1.279   .     A
C963   O1523   1.279   .     S
C964   O1068   1.279   .     A
C964   O1524   1.279   1_455 S
C965   O1069   1.279   .     A
C965   C1403   1.463   1_455 S
C965   O1073   1.279   .     S
C966   O1070   1.279   .     A
C966   O1074   1.279   .     S
C967   O1071   1.279   .     A
C967   O1075   1.279   .     A
C968   O1072   1.279   .     S
C968   O1076   1.279   .     S
C969   C1035   1.456   .     S
C969   O1077   1.280   .     A
C969   O1103   1.280   .     A
C970   O1104   1.280   .     A
C970   O1078   1.280   .     A
C970   C1036   1.456   .     S
C971   O1101   1.280   .     A
C971   C1037   1.445   .     S
C971   O1079   1.278   .     A
C972   O1102   1.280   .     A
C972   O1080   1.278   .     A
C972   C1038   1.447   .     S
C973   C1039   1.457   .     S
C973   O1107   1.279   .     A
C973   O1081   1.279   .     A
C974   O1082   1.279   .     A
C974   O1108   1.279   .     A
C974   C1040   1.457   .     S
C975   C1033   1.445   .     S
C975   O1083   1.280   .     A
C975   O1105   1.278   .     A
C976   O1084   1.280   .     A
C976   C1034   1.447   .     S
C976   O1106   1.278   .     A
C977   C1043   1.446   .     S
C977   O1095   1.278   .     A
C977   O1085   1.280   .     A
C978   O1086   1.280   .     A
C978   O1096   1.279   .     A
C978   C1044   1.447   .     S
C979   O1087   1.280   .     A
C979   C1045   1.457   .     S
C979   O1093   1.280   .     A
C980   O1094   1.280   .     A
C980   O1088   1.280   .     A
C980   C1046   1.457   .     S
C981   O1099   1.280   .     A
C981   O1089   1.278   .     A
C981   C1047   1.446   .     S
C982   O1090   1.279   .     A
C982   O1100   1.280   .     A
C982   C1048   1.447   .     S
C983   O1091   1.279   .     A
C983   C1041   1.457   .     S
C983   O1097   1.279   .     A
C984   O1092   1.279   .     A
C984   O1098   1.279   .     A
C984   C1042   1.457   .     S
C985   O1205   1.385   .     S
C985   C1048   1.404   .     A
C985   C1000   1.397   .     A
C986   C999    1.397   .     A
C986   C1047   1.409   .     A
C986   O1210   1.387   .     S
C987   C1046   1.409   .     A
C987   O1215   1.384   .     S
C987   C998    1.395   .     A
C988   C997    1.395   .     A
C988   O1220   1.384   .     S
C988   C1045   1.410   .     A
C989   C996    1.397   .     A
C989   C1044   1.405   .     A
C989   O1225   1.383   .     S
C990   C995    1.398   .     A
C990   O1230   1.384   .     S
C990   C1043   1.410   .     A
C991   C1042   1.410   .     A
C991   C994    1.401   .     A
C991   O1235   1.387   .     S
C992   C993    1.401   .     A
C992   O1240   1.387   .     S
C992   C1041   1.410   .     A
C993   O1245   1.387   .     S
C993   C1040   1.410   .     A
C994   O1250   1.387   .     S
C994   C1039   1.410   .     A
C995   C1038   1.405   .     A
C995   O1255   1.385   .     S
C996   C1037   1.409   .     A
C996   O1260   1.387   .     S
C997   O1265   1.385   .     S
C997   C1036   1.410   .     A
C998   C1035   1.410   .     A
C998   O1270   1.385   .     S
C999   C1034   1.405   .     A
C999   O1275   1.383   .     S
C1000  O1280   1.384   .     S
C1000  C1033   1.409   .     A
C1001  C1034   1.405   .     A
C1001  C1016   1.398   .     A
C1001  O1285   1.385   .     S
C1002  C1015   1.397   .     A
C1002  C1033   1.409   .     A
C1002  O1290   1.387   .     S
C1003  C1014   1.395   .     A
C1003  O1295   1.385   .     S
C1003  C1036   1.410   .     A
C1004  C1013   1.395   .     A
C1004  O1300   1.385   .     S
C1004  C1035   1.410   .     A
C1005  C1012   1.397   .     A
C1005  O1305   1.383   .     S
C1005  C1038   1.405   .     A
C1006  C1037   1.409   .     A
C1006  O1310   1.384   .     S
C1006  C1011   1.397   .     A
C1007  O1315   1.387   .     S
C1007  C1010   1.401   .     A
C1007  C1040   1.410   .     A
C1008  C1039   1.410   .     A
C1008  C1009   1.401   .     A
C1008  O1320   1.387   .     S
C1009  O1325   1.387   .     S
C1009  C1042   1.410   .     A
C1010  O1330   1.387   .     S
C1010  C1041   1.410   .     A
C1011  O1335   1.385   .     S
C1011  C1044   1.404   .     A
C1012  C1043   1.409   .     A
C1012  O1340   1.387   .     S
C1013  C1046   1.409   .     A
C1013  O1345   1.384   .     S
C1014  O1350   1.384   .     S
C1014  C1045   1.409   .     A
C1015  O1355   1.383   .     S
C1015  C1048   1.405   .     A
C1016  C1047   1.410   .     A
C1016  O1360   1.384   .     S
C1017  C1509   1.418   1_455 S
C1018  C1510   1.418   .     S
C1019  C1051   1.419   .     A
C1020  C1052   1.419   .     A
C1021  C1049   1.419   .     A
C1022  C1050   1.419   .     A
C1024  C132    1.418   1_565 S
C1025  C1053   1.418   .     A
C1026  C1054   1.418   .     A
C1027  C1515   1.419   1_455 S
C1028  C1516   1.419   .     S
C1030  C134    1.419   1_565 S
C1031  C1055   1.418   .     A
C1032  C1056   1.418   .     A
C1049  C1477   1.418   .     S
C1049  C1510   1.408   .     S
C1050  C1478   1.418   1_455 S
C1050  C1509   1.408   1_455 S
C1051  C103    1.418   1_565 S
C1051  C132    1.408   1_565 S
C1053  C109    1.419   1_565 S
C1053  C134    1.408   1_566 S
C1054  C133    1.408   1_554 S
C1055  C1487   1.419   .     S
C1055  C1516   1.408   1_556 S
C1056  C1488   1.419   1_455 S
C1056  C1515   1.408   1_454 S
O1057  Zn1113  1.945   .     S
O1057  Zn1120  1.948   .     S
O1057  Zn1109  1.948   .     S
O1058  Zn1114  1.945   .     S
O1058  Zn1123  1.945   .     S
O1058  Zn1110  1.948   .     S
O1059  Zn1115  1.945   .     S
O1059  Zn1582  1.945   1_455 S
O1059  Zn1111  1.948   .     S
O1059  Zn1118  1.948   .     S
O1060  Zn1116  1.945   .     S
O1060  Zn1121  1.945   .     S
O1060  Zn1112  1.948   .     S
O1060  Zn1577  1.948   1_455 S
O1061  Zn1124  1.953   .     S
O1062  Zn1123  1.953   .     S
O1063  Zn1118  1.952   .     S
O1063  C1423   1.279   1_455 S
O1064  Zn1117  1.952   .     S
O1064  C1424   1.279   .     S
O1065  Zn1120  1.952   .     S
O1066  Zn1119  1.952   .     S
O1066  C42     1.279   1_565 S
O1067  Zn1122  1.953   .     S
O1068  Zn1121  1.953   .     S
O1069  Zn1116  1.953   .     S
O1070  Zn1115  1.953   .     S
O1071  Zn1110  1.952   .     S
O1072  Zn1109  1.952   .     S
O1073  Zn1112  1.952   .     S
O1074  Zn1111  1.952   .     S
O1075  Zn1114  1.953   .     S
O1076  Zn1113  1.953   .     S
O1077  Zn1120  1.939   .     S
O1078  Zn1119  1.939   .     S
O1079  Zn1122  1.927   .     S
O1080  Zn1121  1.927   .     S
O1081  Zn1124  1.939   .     S
O1082  Zn1123  1.939   .     S
O1083  Zn1118  1.926   .     S
O1084  Zn1117  1.926   .     S
O1085  Zn1119  1.926   .     S
O1086  Zn1120  1.926   .     S
O1087  Zn1117  1.939   .     S
O1088  Zn1118  1.939   .     S
O1089  Zn1123  1.927   .     S
O1090  Zn1124  1.927   .     S
O1091  Zn1121  1.939   .     S
O1092  Zn1122  1.939   .     S
O1093  Zn1572  1.939   .     S
O1094  Zn1111  1.939   .     S
O1095  Zn194   1.927   1_565 S
O1096  Zn1113  1.927   .     S
O1097  Zn1116  1.939   .     S
O1098  Zn1575  1.939   .     S
O1099  Zn1110  1.926   .     S
O1100  Zn189   1.926   1_565 S
O1101  Zn1571  1.926   .     S
O1102  Zn1112  1.926   .     S
O1103  Zn1109  1.939   .     S
O1104  Zn190   1.939   1_565 S
O1105  Zn1115  1.927   .     S
O1106  Zn1576  1.927   .     S
O1107  Zn193   1.939   1_565 S
O1108  Zn1114  1.939   .     S
Zn1111 O1561   1.926   1_455 S
Zn1112 O1553   1.939   1_455 S
Zn1115 O1558   1.939   1_455 S
Zn1116 O1566   1.927   1_455 S
Zn1117 O1520   1.948   .     S
Zn1119 O138    1.948   1_565 S
Zn1122 O1519   1.945   .     S
Zn1124 O137    1.945   1_565 S
O1125  C1126   1.415   .     S
C1126  H1127   1.109   .     S
C1126  H1128   1.110   .     S
C1126  H1129   1.113   .     S
O1130  C1131   1.415   .     S
C1131  H1134   1.113   .     S
C1131  H1132   1.110   .     S
C1131  H1133   1.109   .     S
O1135  C1136   1.414   .     S
C1136  H1139   1.109   .     S
C1136  H1138   1.109   .     S
C1136  H1137   1.116   .     S
O1140  C1141   1.414   .     S
C1141  H1142   1.109   .     S
C1141  H1144   1.109   .     S
C1141  H1143   1.116   .     S
O1145  C1146   1.414   .     S
C1146  H1147   1.109   .     S
C1146  H1148   1.116   .     S
C1146  H1149   1.109   .     S
O1150  C1151   1.414   .     S
C1151  H1153   1.109   .     S
C1151  H1154   1.109   .     S
C1151  H1152   1.116   .     S
O1155  C1156   1.415   .     S
C1156  H1157   1.110   .     S
C1156  H1159   1.113   .     S
C1156  H1158   1.109   .     S
O1160  C1161   1.415   .     S
C1161  H1162   1.109   .     S
C1161  H1164   1.113   .     S
C1161  H1163   1.110   .     S
O1165  C1166   1.415   .     S
C1166  H1167   1.109   .     S
C1166  H1169   1.113   .     S
C1166  H1168   1.110   .     S
O1170  C1171   1.415   .     S
C1171  H1172   1.110   .     S
C1171  H1174   1.113   .     S
C1171  H1173   1.109   .     S
O1175  C1176   1.414   .     S
C1176  H1179   1.109   .     S
C1176  H1178   1.109   .     S
C1176  H1177   1.116   .     S
O1180  C1181   1.414   .     S
C1181  H1182   1.109   .     S
C1181  H1184   1.109   .     S
C1181  H1183   1.116   .     S
O1185  C1186   1.414   .     S
C1186  H1189   1.109   .     S
C1186  H1188   1.116   .     S
C1186  H1187   1.109   .     S
O1190  C1191   1.414   .     S
C1191  H1192   1.116   .     S
C1191  H1194   1.109   .     S
C1191  H1193   1.109   .     S
O1195  C1196   1.415   .     S
C1196  H1199   1.113   .     S
C1196  H1197   1.110   .     S
C1196  H1198   1.109   .     S
O1200  C1201   1.415   .     S
C1201  H1204   1.113   .     S
C1201  H1202   1.109   .     S
C1201  H1203   1.110   .     S
O1205  C1206   1.411   .     S
C1206  H1209   1.110   .     S
C1206  H1208   1.113   .     S
C1206  H1207   1.109   .     S
O1210  C1211   1.415   .     S
C1211  H1212   1.116   .     S
C1211  H1213   1.110   .     S
C1211  H1214   1.109   .     S
O1215  C1216   1.411   .     S
C1216  H1217   1.107   .     S
C1216  H1219   1.112   .     S
C1216  H1218   1.110   .     S
O1220  C1221   1.412   .     S
C1221  H1222   1.110   .     S
C1221  H1224   1.113   .     S
C1221  H1223   1.108   .     S
O1225  C1226   1.412   .     S
C1226  H1227   1.109   .     S
C1226  H1228   1.112   .     S
C1226  H1229   1.111   .     S
O1230  C1231   1.415   .     S
C1231  H1233   1.109   .     S
C1231  H1232   1.116   .     S
C1231  H1234   1.109   .     S
O1235  C1236   1.416   .     S
C1236  H1237   1.108   .     S
C1236  H1239   1.108   .     S
C1236  H1238   1.116   .     S
O1240  C1241   1.416   .     S
C1241  H1242   1.116   .     S
C1241  H1244   1.108   .     S
C1241  H1243   1.108   .     S
O1245  C1246   1.416   .     S
C1246  H1247   1.108   .     S
C1246  H1249   1.108   .     S
C1246  H1248   1.116   .     S
O1250  C1251   1.416   .     S
C1251  H1254   1.108   .     S
C1251  H1252   1.116   .     S
C1251  H1253   1.108   .     S
O1255  C1256   1.411   .     S
C1256  H1257   1.109   .     S
C1256  H1259   1.109   .     S
C1256  H1258   1.113   .     S
O1260  C1261   1.415   .     S
C1261  H1263   1.110   .     S
C1261  H1264   1.109   .     S
C1261  H1262   1.116   .     S
O1265  C1266   1.414   .     S
C1266  H1268   1.115   .     S
C1266  H1269   1.109   .     S
C1266  H1267   1.108   .     S
O1270  C1271   1.415   .     S
C1271  H1272   1.116   .     S
C1271  H1274   1.109   .     S
C1271  H1273   1.109   .     S
O1275  C1276   1.412   .     S
C1276  H1279   1.111   .     S
C1276  H1278   1.112   .     S
C1276  H1277   1.109   .     S
O1280  C1281   1.415   .     S
C1281  H1284   1.109   .     S
C1281  H1283   1.110   .     S
C1281  H1282   1.116   .     S
O1285  C1286   1.411   .     S
C1286  H1289   1.109   .     S
C1286  H1287   1.109   .     S
C1286  H1288   1.113   .     S
O1290  C1291   1.415   .     S
C1291  H1294   1.109   .     S
C1291  H1292   1.116   .     S
C1291  H1293   1.110   .     S
O1295  C1296   1.414   .     S
C1296  H1299   1.109   .     S
C1296  H1298   1.115   .     S
C1296  H1297   1.108   .     S
O1300  C1301   1.415   .     S
C1301  H1302   1.116   .     S
C1301  H1304   1.109   .     S
C1301  H1303   1.109   .     S
O1305  C1306   1.412   .     S
C1306  H1308   1.112   .     S
C1306  H1309   1.111   .     S
C1306  H1307   1.109   .     S
O1310  C1311   1.415   .     S
C1311  H1314   1.109   .     S
C1311  H1313   1.110   .     S
C1311  H1312   1.116   .     S
O1315  C1316   1.416   .     S
C1316  H1318   1.116   .     S
C1316  H1317   1.108   .     S
C1316  H1319   1.108   .     S
O1320  C1321   1.416   .     S
C1321  H1323   1.108   .     S
C1321  H1322   1.116   .     S
C1321  H1324   1.108   .     S
O1325  C1326   1.416   .     S
C1326  H1328   1.116   .     S
C1326  H1327   1.108   .     S
C1326  H1329   1.108   .     S
O1330  C1331   1.416   .     S
C1331  H1333   1.108   .     S
C1331  H1334   1.108   .     S
C1331  H1332   1.116   .     S
O1335  C1336   1.411   .     S
C1336  H1337   1.109   .     S
C1336  H1339   1.110   .     S
C1336  H1338   1.113   .     S
O1340  C1341   1.415   .     S
C1341  H1342   1.116   .     S
C1341  H1344   1.109   .     S
C1341  H1343   1.110   .     S
O1345  C1346   1.411   .     S
C1346  H1347   1.107   .     S
C1346  H1348   1.110   .     S
C1346  H1349   1.112   .     S
O1350  C1351   1.412   .     S
C1351  H1352   1.110   .     S
C1351  H1354   1.113   .     S
C1351  H1353   1.108   .     S
O1355  C1356   1.412   .     S
C1356  H1359   1.111   .     S
C1356  H1357   1.109   .     S
C1356  H1358   1.112   .     S
O1360  C1361   1.415   .     S
C1361  H1364   1.109   .     S
C1361  H1363   1.109   .     S
C1361  H1362   1.116   .     S
C1381  C1481   1.404   .     A
C1381  C1397   1.399   .     A
C1381  F1825   1.358   .     S
C1382  C1482   1.404   .     A
C1382  F1826   1.358   .     S
C1382  C1398   1.399   .     A
C1383  C1483   1.403   .     A
C1383  F1827   1.360   .     S
C1384  F1828   1.360   .     S
C1384  C1484   1.403   .     A
C1384  C480    1.399   1_565 S
C1385  F1829   1.360   .     S
C1385  C1477   1.403   .     A
C1386  C1478   1.403   .     A
C1386  F1830   1.360   .     S
C1386  C938    1.399   1_655 S
C1387  C1479   1.404   .     A
C1387  C1399   1.399   .     A
C1387  F1831   1.358   .     S
C1388  F1832   1.358   .     S
C1388  C1480   1.404   .     A
C1388  C1400   1.399   .     A
C1389  C1489   1.404   .     A
C1389  F1833   1.358   .     S
C1390  F1834   1.358   .     S
C1390  C1490   1.404   .     A
C1390  C482    1.399   1_565 S
C1391  F1835   1.360   .     S
C1391  C1403   1.399   .     A
C1391  C1491   1.403   .     A
C1392  F1836   1.360   .     S
C1392  C1492   1.403   .     A
C1392  C1404   1.398   .     A
C1393  C1401   1.399   .     A
C1393  F1837   1.360   .     S
C1393  C1485   1.403   .     A
C1394  F1838   1.360   .     S
C1394  C1402   1.399   .     A
C1394  C1486   1.403   .     A
C1395  C1487   1.404   .     A
C1395  F1839   1.358   .     S
C1396  F1840   1.358   .     S
C1396  C1488   1.404   .     A
C1396  C944    1.399   1_655 S
C1397  C1423   1.463   .     S
C1397  C925    1.399   1_655 S
C1398  C1424   1.463   .     S
C1399  C1421   1.463   .     S
C1399  C463    1.399   1_565 S
C1400  C1422   1.463   .     S
C1401  C469    1.399   1_565 S
C1401  C507    1.463   1_565 S
C1402  C1428   1.463   .     S
C1403  C935    1.399   1_655 S
C1403  C965    1.463   1_655 S
C1404  C1426   1.463   .     S
C1405  C1477   1.415   .     A
C1405  O1585   1.385   .     S
C1405  C1410   1.402   .     A
C1406  O1590   1.385   .     S
C1406  C1478   1.415   .     A
C1406  C1409   1.402   .     A
C1407  C1479   1.414   .     A
C1407  O1595   1.386   .     S
C1407  C1412   1.402   .     A
C1408  O1600   1.386   .     S
C1408  C1411   1.402   .     A
C1408  C1480   1.414   .     A
C1409  C1481   1.414   .     A
C1409  O1605   1.386   .     S
C1410  C1482   1.414   .     A
C1410  O1610   1.386   .     S
C1411  C1483   1.415   .     A
C1411  O1615   1.385   .     S
C1412  C1484   1.415   .     A
C1412  O1620   1.385   .     S
C1413  O1625   1.385   .     S
C1413  C1485   1.415   .     A
C1413  C1418   1.402   1_556 S
C1414  C1486   1.415   .     A
C1414  O1630   1.385   .     S
C1414  C1417   1.402   1_554 S
C1415  C1487   1.414   .     A
C1415  O1635   1.386   .     S
C1415  C1420   1.402   1_556 S
C1416  C1488   1.414   .     A
C1416  O1640   1.386   .     S
C1416  C1419   1.402   1_554 S
C1417  C1489   1.414   .     A
C1417  O1645   1.386   .     S
C1417  C1414   1.402   1_556 S
C1418  C1490   1.414   .     A
C1418  O1650   1.386   .     S
C1418  C1413   1.402   1_554 S
C1419  C1491   1.415   .     A
C1419  O1655   1.385   .     S
C1419  C1416   1.402   1_556 S
C1420  C1492   1.415   .     A
C1420  O1660   1.385   .     S
C1420  C1415   1.402   1_554 S
C1421  O1521   1.279   .     A
C1421  O605    1.279   1_565 S
C1422  O1522   1.279   .     A
C1423  O1527   1.279   .     A
C1423  O1063   1.279   1_655 S
C1424  O1528   1.279   .     A
C1425  O1529   1.279   .     A
C1425  O1533   1.279   .     S
C1426  O1530   1.279   .     A
C1426  O1534   1.279   .     S
C1427  O1531   1.279   .     A
C1427  O1535   1.279   .     A
C1428  O1532   1.279   .     S
C1428  O1536   1.279   .     S
C1429  C1495   1.456   .     S
C1429  O1537   1.280   .     A
C1429  O1563   1.280   .     A
C1430  O1564   1.280   .     A
C1430  O1538   1.280   .     A
C1430  C1496   1.456   .     S
C1431  O1561   1.280   .     A
C1431  C1497   1.445   .     S
C1431  O1539   1.278   .     A
C1432  O1562   1.280   .     A
C1432  O1540   1.278   .     A
C1432  C1498   1.447   .     S
C1433  C1499   1.457   .     S
C1433  O1567   1.279   .     A
C1433  O1541   1.279   .     A
C1434  O1542   1.279   .     A
C1434  O1568   1.279   .     A
C1434  C1500   1.457   .     S
C1435  C1493   1.445   .     S
C1435  O1543   1.280   .     A
C1435  O1565   1.278   .     A
C1436  O1544   1.280   .     A
C1436  C1494   1.447   .     S
C1436  O1566   1.278   .     A
C1437  C1503   1.446   .     S
C1437  O1555   1.278   .     A
C1437  O1545   1.280   .     A
C1438  O1546   1.280   .     A
C1438  O1556   1.279   .     A
C1438  C1504   1.447   .     S
C1439  O1547   1.280   .     A
C1439  C1505   1.457   .     S
C1439  O1553   1.280   .     A
C1440  O1554   1.280   .     A
C1440  O1548   1.280   .     A
C1440  C1506   1.457   .     S
C1441  O1559   1.280   .     A
C1441  O1549   1.278   .     A
C1441  C1507   1.446   .     S
C1442  O1550   1.279   .     A
C1442  O1560   1.280   .     A
C1442  C1508   1.447   .     S
C1443  O1551   1.279   .     A
C1443  C1501   1.457   .     S
C1443  O1557   1.279   .     A
C1444  O1552   1.279   .     A
C1444  O1558   1.279   .     A
C1444  C1502   1.457   .     S
C1445  O1665   1.385   .     S
C1445  C1508   1.404   .     A
C1445  C1460   1.397   .     A
C1446  C1459   1.397   .     A
C1446  C1507   1.409   .     A
C1446  O1670   1.387   .     S
C1447  C1506   1.409   .     A
C1447  O1675   1.384   .     S
C1447  C1458   1.395   .     A
C1448  C1457   1.395   .     A
C1448  O1680   1.384   .     S
C1448  C1505   1.410   .     A
C1449  C1456   1.397   .     A
C1449  C1504   1.405   .     A
C1449  O1685   1.383   .     S
C1450  C1455   1.398   .     A
C1450  O1690   1.384   .     S
C1450  C1503   1.410   .     A
C1451  C1502   1.410   .     A
C1451  C1454   1.401   .     A
C1451  O1695   1.387   .     S
C1452  C1453   1.401   .     A
C1452  O1700   1.387   .     S
C1452  C1501   1.410   .     A
C1453  O1705   1.387   .     S
C1453  C1500   1.410   .     A
C1454  O1710   1.387   .     S
C1454  C1499   1.410   .     A
C1455  C1498   1.405   .     A
C1455  O1715   1.385   .     S
C1456  C1497   1.409   .     A
C1456  O1720   1.387   .     S
C1457  O1725   1.385   .     S
C1457  C1496   1.410   .     A
C1458  C1495   1.410   .     A
C1458  O1730   1.385   .     S
C1459  C1494   1.405   .     A
C1459  O1735   1.383   .     S
C1460  O1740   1.384   .     S
C1460  C1493   1.409   .     A
C1461  C1494   1.405   .     A
C1461  C1476   1.398   .     A
C1461  O1745   1.385   .     S
C1462  C1475   1.397   .     A
C1462  C1493   1.409   .     A
C1462  O1750   1.387   .     S
C1463  C1474   1.395   .     A
C1463  O1755   1.385   .     S
C1463  C1496   1.410   .     A
C1464  C1473   1.395   .     A
C1464  O1760   1.385   .     S
C1464  C1495   1.410   .     A
C1465  C1472   1.397   .     A
C1465  O1765   1.383   .     S
C1465  C1498   1.405   .     A
C1466  C1497   1.409   .     A
C1466  O1770   1.384   .     S
C1466  C1471   1.397   .     A
C1467  O1775   1.387   .     S
C1467  C1470   1.401   .     A
C1467  C1500   1.410   .     A
C1468  C1499   1.410   .     A
C1468  C1469   1.401   .     A
C1468  O1780   1.387   .     S
C1469  O1785   1.387   .     S
C1469  C1502   1.410   .     A
C1470  O1790   1.387   .     S
C1470  C1501   1.410   .     A
C1471  O1795   1.385   .     S
C1471  C1504   1.404   .     A
C1472  C1503   1.409   .     A
C1472  O1800   1.387   .     S
C1473  C1506   1.409   .     A
C1473  O1805   1.384   .     S
C1474  O1810   1.384   .     S
C1474  C1505   1.409   .     A
C1475  O1815   1.383   .     S
C1475  C1508   1.405   .     A
C1476  C1507   1.410   .     A
C1476  O1820   1.384   .     S
C1478  C1050   1.418   1_655 S
C1479  C1511   1.419   .     A
C1480  C1512   1.419   .     A
C1481  C1509   1.419   .     A
C1482  C1510   1.419   .     A
C1484  C592    1.418   1_565 S
C1485  C1513   1.418   .     A
C1486  C1514   1.418   .     A
C1488  C1056   1.419   1_655 S
C1490  C594    1.419   1_565 S
C1491  C1515   1.418   .     A
C1492  C1516   1.418   .     A
C1509  C1017   1.418   1_655 S
C1509  C1050   1.408   1_655 S
C1511  C563    1.418   1_565 S
C1511  C592    1.408   1_565 S
C1513  C569    1.419   1_565 S
C1513  C594    1.408   1_566 S
C1514  C593    1.408   1_554 S
C1515  C1027   1.419   1_655 S
C1515  C1056   1.408   1_656 S
C1516  C1055   1.408   1_554 S
O1517  Zn1573  1.945   .     S
O1517  Zn1580  1.948   .     S
O1517  Zn1569  1.948   .     S
O1518  Zn1574  1.945   .     S
O1518  Zn1583  1.945   .     S
O1518  Zn1570  1.948   .     S
O1519  Zn1575  1.945   .     S
O1519  Zn1571  1.948   .     S
O1519  Zn1578  1.948   .     S
O1520  Zn1576  1.945   .     S
O1520  Zn1581  1.945   .     S
O1520  Zn1572  1.948   .     S
O1521  Zn1584  1.953   .     S
O1522  Zn1583  1.953   .     S
O1523  Zn1578  1.952   .     S
O1524  Zn1577  1.952   .     S
O1524  C964    1.279   1_655 S
O1525  Zn1580  1.952   .     S
O1526  Zn1579  1.952   .     S
O1526  C502    1.279   1_565 S
O1527  Zn1582  1.953   .     S
O1528  Zn1581  1.953   .     S
O1529  Zn1576  1.953   .     S
O1530  Zn1575  1.953   .     S
O1531  Zn1570  1.952   .     S
O1532  Zn1569  1.952   .     S
O1533  Zn1572  1.952   .     S
O1534  Zn1571  1.952   .     S
O1535  Zn1574  1.953   .     S
O1536  Zn1573  1.953   .     S
O1537  Zn1580  1.939   .     S
O1538  Zn1579  1.939   .     S
O1539  Zn1582  1.927   .     S
O1540  Zn1581  1.927   .     S
O1541  Zn1584  1.939   .     S
O1542  Zn1583  1.939   .     S
O1543  Zn1578  1.926   .     S
O1544  Zn1577  1.926   .     S
O1545  Zn1579  1.926   .     S
O1546  Zn1580  1.926   .     S
O1547  Zn1577  1.939   .     S
O1548  Zn1578  1.939   .     S
O1549  Zn1583  1.927   .     S
O1550  Zn1584  1.927   .     S
O1551  Zn1581  1.939   .     S
O1552  Zn1582  1.939   .     S
O1553  Zn1112  1.939   1_655 S
O1554  Zn1571  1.939   .     S
O1555  Zn654   1.927   1_565 S
O1556  Zn1573  1.927   .     S
O1557  Zn1576  1.939   .     S
O1558  Zn1115  1.939   1_655 S
O1559  Zn1570  1.926   .     S
O1560  Zn649   1.926   1_565 S
O1561  Zn1111  1.926   1_655 S
O1562  Zn1572  1.926   .     S
O1563  Zn1569  1.939   .     S
O1564  Zn650   1.939   1_565 S
O1565  Zn1575  1.927   .     S
O1566  Zn1116  1.927   1_655 S
O1567  Zn653   1.939   1_565 S
O1568  Zn1574  1.939   .     S
Zn1577 O1060   1.948   1_655 S
Zn1579 O598    1.948   1_565 S
Zn1582 O1059   1.945   1_655 S
Zn1584 O597    1.945   1_565 S
O1585  C1586   1.415   .     S
C1586  H1587   1.109   .     S
C1586  H1588   1.110   .     S
C1586  H1589   1.113   .     S
O1590  C1591   1.415   .     S
C1591  H1594   1.113   .     S
C1591  H1592   1.110   .     S
C1591  H1593   1.109   .     S
O1595  C1596   1.414   .     S
C1596  H1599   1.109   .     S
C1596  H1598   1.109   .     S
C1596  H1597   1.116   .     S
O1600  C1601   1.414   .     S
C1601  H1602   1.109   .     S
C1601  H1604   1.109   .     S
C1601  H1603   1.116   .     S
O1605  C1606   1.414   .     S
C1606  H1607   1.109   .     S
C1606  H1608   1.116   .     S
C1606  H1609   1.109   .     S
O1610  C1611   1.414   .     S
C1611  H1613   1.109   .     S
C1611  H1614   1.109   .     S
C1611  H1612   1.116   .     S
O1615  C1616   1.415   .     S
C1616  H1617   1.110   .     S
C1616  H1619   1.113   .     S
C1616  H1618   1.109   .     S
O1620  C1621   1.415   .     S
C1621  H1622   1.109   .     S
C1621  H1624   1.113   .     S
C1621  H1623   1.110   .     S
O1625  C1626   1.415   .     S
C1626  H1627   1.109   .     S
C1626  H1629   1.113   .     S
C1626  H1628   1.110   .     S
O1630  C1631   1.415   .     S
C1631  H1632   1.110   .     S
C1631  H1634   1.113   .     S
C1631  H1633   1.109   .     S
O1635  C1636   1.414   .     S
C1636  H1639   1.109   .     S
C1636  H1638   1.109   .     S
C1636  H1637   1.116   .     S
O1640  C1641   1.414   .     S
C1641  H1642   1.109   .     S
C1641  H1644   1.109   .     S
C1641  H1643   1.116   .     S
O1645  C1646   1.414   .     S
C1646  H1649   1.109   .     S
C1646  H1648   1.116   .     S
C1646  H1647   1.109   .     S
O1650  C1651   1.414   .     S
C1651  H1652   1.116   .     S
C1651  H1654   1.109   .     S
C1651  H1653   1.109   .     S
O1655  C1656   1.415   .     S
C1656  H1659   1.113   .     S
C1656  H1657   1.110   .     S
C1656  H1658   1.109   .     S
O1660  C1661   1.415   .     S
C1661  H1664   1.113   .     S
C1661  H1662   1.109   .     S
C1661  H1663   1.110   .     S
O1665  C1666   1.411   .     S
C1666  H1669   1.110   .     S
C1666  H1668   1.113   .     S
C1666  H1667   1.109   .     S
O1670  C1671   1.415   .     S
C1671  H1672   1.116   .     S
C1671  H1673   1.110   .     S
C1671  H1674   1.109   .     S
O1675  C1676   1.411   .     S
C1676  H1677   1.107   .     S
C1676  H1679   1.112   .     S
C1676  H1678   1.110   .     S
O1680  C1681   1.412   .     S
C1681  H1682   1.110   .     S
C1681  H1684   1.113   .     S
C1681  H1683   1.108   .     S
O1685  C1686   1.412   .     S
C1686  H1687   1.109   .     S
C1686  H1688   1.112   .     S
C1686  H1689   1.111   .     S
O1690  C1691   1.415   .     S
C1691  H1693   1.109   .     S
C1691  H1692   1.116   .     S
C1691  H1694   1.109   .     S
O1695  C1696   1.416   .     S
C1696  H1697   1.108   .     S
C1696  H1699   1.108   .     S
C1696  H1698   1.116   .     S
O1700  C1701   1.416   .     S
C1701  H1702   1.116   .     S
C1701  H1704   1.108   .     S
C1701  H1703   1.108   .     S
O1705  C1706   1.416   .     S
C1706  H1707   1.108   .     S
C1706  H1709   1.108   .     S
C1706  H1708   1.116   .     S
O1710  C1711   1.416   .     S
C1711  H1714   1.108   .     S
C1711  H1712   1.116   .     S
C1711  H1713   1.108   .     S
O1715  C1716   1.411   .     S
C1716  H1717   1.109   .     S
C1716  H1719   1.109   .     S
C1716  H1718   1.113   .     S
O1720  C1721   1.415   .     S
C1721  H1723   1.110   .     S
C1721  H1724   1.109   .     S
C1721  H1722   1.116   .     S
O1725  C1726   1.414   .     S
C1726  H1728   1.115   .     S
C1726  H1729   1.109   .     S
C1726  H1727   1.108   .     S
O1730  C1731   1.415   .     S
C1731  H1732   1.116   .     S
C1731  H1734   1.109   .     S
C1731  H1733   1.109   .     S
O1735  C1736   1.412   .     S
C1736  H1739   1.111   .     S
C1736  H1738   1.112   .     S
C1736  H1737   1.109   .     S
O1740  C1741   1.415   .     S
C1741  H1744   1.109   .     S
C1741  H1743   1.110   .     S
C1741  H1742   1.116   .     S
O1745  C1746   1.411   .     S
C1746  H1749   1.109   .     S
C1746  H1747   1.109   .     S
C1746  H1748   1.113   .     S
O1750  C1751   1.415   .     S
C1751  H1754   1.109   .     S
C1751  H1752   1.116   .     S
C1751  H1753   1.110   .     S
O1755  C1756   1.414   .     S
C1756  H1759   1.109   .     S
C1756  H1758   1.115   .     S
C1756  H1757   1.108   .     S
O1760  C1761   1.415   .     S
C1761  H1762   1.116   .     S
C1761  H1764   1.109   .     S
C1761  H1763   1.109   .     S
O1765  C1766   1.412   .     S
C1766  H1768   1.112   .     S
C1766  H1769   1.111   .     S
C1766  H1767   1.109   .     S
O1770  C1771   1.415   .     S
C1771  H1774   1.109   .     S
C1771  H1773   1.110   .     S
C1771  H1772   1.116   .     S
O1775  C1776   1.416   .     S
C1776  H1778   1.116   .     S
C1776  H1777   1.108   .     S
C1776  H1779   1.108   .     S
O1780  C1781   1.416   .     S
C1781  H1783   1.108   .     S
C1781  H1782   1.116   .     S
C1781  H1784   1.108   .     S
O1785  C1786   1.416   .     S
C1786  H1788   1.116   .     S
C1786  H1787   1.108   .     S
C1786  H1789   1.108   .     S
O1790  C1791   1.416   .     S
C1791  H1793   1.108   .     S
C1791  H1794   1.108   .     S
C1791  H1792   1.116   .     S
O1795  C1796   1.411   .     S
C1796  H1797   1.109   .     S
C1796  H1799   1.110   .     S
C1796  H1798   1.113   .     S
O1800  C1801   1.415   .     S
C1801  H1802   1.116   .     S
C1801  H1804   1.109   .     S
C1801  H1803   1.110   .     S
O1805  C1806   1.411   .     S
C1806  H1807   1.107   .     S
C1806  H1808   1.110   .     S
C1806  H1809   1.112   .     S
O1810  C1811   1.412   .     S
C1811  H1812   1.110   .     S
C1811  H1814   1.113   .     S
C1811  H1813   1.108   .     S
O1815  C1816   1.412   .     S
C1816  H1819   1.111   .     S
C1816  H1817   1.109   .     S
C1816  H1818   1.112   .     S
O1820  C1821   1.415   .     S
C1821  H1824   1.109   .     S
C1821  H1823   1.109   .     S
C1821  H1822   1.116   .     S
