data_str_m2_o1_o18_pcu_sym.11
_audit_creation_date              2020-01-03
_audit_creation_method            'Materials Studio'
_symmetry_space_group_name_H-M    'P1'
_symmetry_Int_Tables_number       1
_symmetry_cell_setting            triclinic
loop_
_symmetry_equiv_pos_as_xyz
  x,y,z
_cell_length_a                    28.8134
_cell_length_b                    32.3906
_cell_length_c                    30.9019
_cell_angle_alpha                 88.8673
_cell_angle_beta                  73.2699
_cell_angle_gamma                 91.2052
loop_
_atom_site_label
_atom_site_type_symbol
_atom_site_fract_x
_atom_site_fract_y
_atom_site_fract_z
_atom_site_U_iso_or_equiv
_atom_site_adp_type
_atom_site_occupancy
O1     O     0.03958   0.10655   0.25000   0.00000  Uiso   1.00
O2     O     0.29375   0.22678   0.25000   0.00000  Uiso   1.00
O3     O     0.29372   0.10654   0.25001   0.00000  Uiso   1.00
O4     O     0.03961   0.22679   0.24999   0.00000  Uiso   1.00
C5     C     0.33332   0.08755   0.24888   0.00000  Uiso   1.00
C6     C     0.00003   0.24581   0.25102   0.00000  Uiso   1.00
O7     O     0.01852   0.16668   0.31491   0.00000  Uiso   1.00
O8     O     0.31481   0.16666   0.18509   0.00000  Uiso   1.00
O9     O     0.27267   0.16667   0.31492   0.00000  Uiso   1.00
O10    O     0.06067   0.16667   0.18508   0.00000  Uiso   1.00
C11    C     0.30589   0.16884   0.33610   0.00000  Uiso   1.00
C12    C     0.02758   0.16563   0.16358   0.00000  Uiso   1.00
Cu13   Cu    0.04689   0.16667   0.25000   0.00000  Uiso   1.00
Cu14   Cu    0.28645   0.16666   0.25000   0.00000  Uiso   1.00
C15    C     0.29077   0.18015   0.38416   0.00000  Uiso   1.00
C16    C     0.04246   0.16469   0.11333   0.00000  Uiso   1.00
C17    C     0.29665   0.22589   0.44401   0.00000  Uiso   1.00
C18    C     0.02387   0.15488   0.04197   0.00000  Uiso   1.00
C19    C     0.31710   0.21010   0.40104   0.00000  Uiso   1.00
C20    C     0.00887   0.15408   0.08929   0.00000  Uiso   1.00
C21    C     0.24424   0.16762   0.41059   0.00000  Uiso   1.00
C22    C     0.09054   0.17583   0.08875   0.00000  Uiso   1.00
C23    C     0.22021   0.18944   0.44923   0.00000  Uiso   1.00
C24    C     0.10417   0.18085   0.04130   0.00000  Uiso   1.00
C25    C     0.24830   0.21594   0.46807   0.00000  Uiso   1.00
C26    C     0.07155   0.16681   0.01804   0.00000  Uiso   1.00
C27    C     0.16939   0.18497   0.47033   0.00000  Uiso   1.00
C28    C     0.15088   0.19651   0.01609   0.00000  Uiso   1.00
C29    C     0.17877   0.22499   0.03372   0.00000  Uiso   1.00
C30    C     0.13566   0.17232   0.44696   0.00000  Uiso   1.00
C31    C     0.22713   0.23387   0.00956   0.00000  Uiso   1.00
C32    C     0.08719   0.16423   0.47107   0.00000  Uiso   1.00
H33    H     0.24793   0.25602   0.02274   0.00000  Uiso   1.00
H34    H     0.06176   0.15541   0.45276   0.00000  Uiso   1.00
C35    C     0.29467   0.02097   0.27766   0.00000  Uiso   1.00
C36    C     0.03864   0.31244   0.22194   0.00000  Uiso   1.00
H37    H     0.26593   0.03733   0.30072   0.00000  Uiso   1.00
H38    H     0.06737   0.29606   0.19889   0.00000  Uiso   1.00
C39    C     0.29426   0.31142   0.28044   0.00000  Uiso   1.00
C40    C     0.03889   0.02202   0.21895   0.00000  Uiso   1.00
C41    C     0.00017   0.29047   0.25217   0.00000  Uiso   1.00
C42    C     0.33316   0.04293   0.24751   0.00000  Uiso   1.00
C43    C     0.18413   0.13429   0.26905   0.00000  Uiso   1.00
C44    C     0.14922   0.19904   0.23091   0.00000  Uiso   1.00
C45    C     0.13480   0.13485   0.26953   0.00000  Uiso   1.00
C46    C     0.19856   0.19846   0.23041   0.00000  Uiso   1.00
N47    N     0.11736   0.16668   0.24999   0.00000  Uiso   1.00
N48    N     0.21597   0.16666   0.25001   0.00000  Uiso   1.00
F49    F     0.12525   0.17820   0.11047   0.00000  Uiso   1.00
F50    F     0.22346   0.13307   0.39936   0.00000  Uiso   1.00
N51    N     0.29392   0.13921   0.11215   0.00000  Uiso   1.00
O52    O     0.28737   0.10588   0.13765   0.00000  Uiso   1.00
O53    O     0.25709   0.15476   0.10178   0.00000  Uiso   1.00
N54    N     0.02932   0.22730   0.37386   0.00000  Uiso   1.00
O55    O     0.03473   0.26707   0.36668   0.00000  Uiso   1.00
O56    O     0.06737   0.20458   0.36329   0.00000  Uiso   1.00
F57    F     0.32324   0.25288   0.46101   0.00000  Uiso   1.00
F58    F     0.32551   0.14234   0.01936   0.00000  Uiso   1.00
N59    N     0.15683   0.25034   0.07156   0.00000  Uiso   1.00
O60    O     0.11325   0.26373   0.07721   0.00000  Uiso   1.00
O61    O     0.18321   0.26639   0.09510   0.00000  Uiso   1.00
N62    N     0.14782   0.17307   0.39853   0.00000  Uiso   1.00
O63    O     0.17076   0.20500   0.37519   0.00000  Uiso   1.00
O64    O     0.12991   0.14471   0.37822   0.00000  Uiso   1.00
N65    N     0.25488   0.28999   0.31308   0.00000  Uiso   1.00
O66    O     0.26346   0.25979   0.33777   0.00000  Uiso   1.00
O67    O     0.21136   0.30440   0.32285   0.00000  Uiso   1.00
N68    N     0.07775   0.04351   0.18572   0.00000  Uiso   1.00
O69    O     0.06864   0.07413   0.16181   0.00000  Uiso   1.00
O70    O     0.12120   0.02886   0.17472   0.00000  Uiso   1.00
N71    N     0.20004   0.09839   0.28752   0.00000  Uiso   1.00
O72    O     0.19212   0.06223   0.27299   0.00000  Uiso   1.00
O73    O     0.21139   0.10058   0.32513   0.00000  Uiso   1.00
N74    N     0.13337   0.23485   0.21223   0.00000  Uiso   1.00
O75    O     0.14242   0.27121   0.22557   0.00000  Uiso   1.00
O76    O     0.12001   0.23210   0.17571   0.00000  Uiso   1.00
F77    F     0.10432   0.10370   0.29127   0.00000  Uiso   1.00
F78    F     0.22912   0.22951   0.20852   0.00000  Uiso   1.00
O79    O     0.37291   0.10655   0.25000   0.00000  Uiso   1.00
O80    O     0.62709   0.22678   0.25000   0.00000  Uiso   1.00
O81    O     0.62706   0.10654   0.25001   0.00000  Uiso   1.00
O82    O     0.37294   0.22679   0.24999   0.00000  Uiso   1.00
C83    C     0.66666   0.08755   0.24888   0.00000  Uiso   1.00
C84    C     0.33336   0.24581   0.25102   0.00000  Uiso   1.00
O85    O     0.35186   0.16668   0.31491   0.00000  Uiso   1.00
O86    O     0.64814   0.16666   0.18509   0.00000  Uiso   1.00
O87    O     0.60600   0.16667   0.31492   0.00000  Uiso   1.00
O88    O     0.39400   0.16667   0.18508   0.00000  Uiso   1.00
C89    C     0.63923   0.16884   0.33610   0.00000  Uiso   1.00
C90    C     0.36091   0.16563   0.16358   0.00000  Uiso   1.00
Cu91   Cu    0.38022   0.16667   0.25000   0.00000  Uiso   1.00
Cu92   Cu    0.61978   0.16666   0.25000   0.00000  Uiso   1.00
C93    C     0.62410   0.18015   0.38416   0.00000  Uiso   1.00
C94    C     0.37579   0.16469   0.11333   0.00000  Uiso   1.00
C95    C     0.62998   0.22589   0.44401   0.00000  Uiso   1.00
C96    C     0.35720   0.15488   0.04197   0.00000  Uiso   1.00
C97    C     0.65044   0.21010   0.40104   0.00000  Uiso   1.00
C98    C     0.34221   0.15408   0.08929   0.00000  Uiso   1.00
C99    C     0.57757   0.16762   0.41059   0.00000  Uiso   1.00
C100   C     0.42388   0.17583   0.08875   0.00000  Uiso   1.00
C101   C     0.55354   0.18944   0.44923   0.00000  Uiso   1.00
C102   C     0.43750   0.18085   0.04130   0.00000  Uiso   1.00
C103   C     0.58164   0.21594   0.46807   0.00000  Uiso   1.00
C104   C     0.40488   0.16681   0.01804   0.00000  Uiso   1.00
C105   C     0.50273   0.18497   0.47033   0.00000  Uiso   1.00
C106   C     0.48421   0.19651   0.01609   0.00000  Uiso   1.00
C107   C     0.51210   0.22499   0.03372   0.00000  Uiso   1.00
C108   C     0.46899   0.17232   0.44696   0.00000  Uiso   1.00
C109   C     0.56047   0.23387   0.00956   0.00000  Uiso   1.00
C110   C     0.42053   0.16423   0.47107   0.00000  Uiso   1.00
H111   H     0.58127   0.25602   0.02274   0.00000  Uiso   1.00
H112   H     0.39509   0.15541   0.45276   0.00000  Uiso   1.00
C113   C     0.62800   0.02097   0.27766   0.00000  Uiso   1.00
C114   C     0.37198   0.31244   0.22194   0.00000  Uiso   1.00
H115   H     0.59927   0.03733   0.30072   0.00000  Uiso   1.00
H116   H     0.40070   0.29606   0.19889   0.00000  Uiso   1.00
C117   C     0.62759   0.31142   0.28044   0.00000  Uiso   1.00
C118   C     0.37222   0.02202   0.21895   0.00000  Uiso   1.00
C119   C     0.33351   0.29047   0.25217   0.00000  Uiso   1.00
C120   C     0.66649   0.04293   0.24751   0.00000  Uiso   1.00
C121   C     0.51747   0.13429   0.26905   0.00000  Uiso   1.00
C122   C     0.48256   0.19904   0.23091   0.00000  Uiso   1.00
C123   C     0.46813   0.13485   0.26953   0.00000  Uiso   1.00
C124   C     0.53190   0.19846   0.23041   0.00000  Uiso   1.00
N125   N     0.45069   0.16668   0.24999   0.00000  Uiso   1.00
N126   N     0.54931   0.16666   0.25001   0.00000  Uiso   1.00
F127   F     0.45858   0.17820   0.11047   0.00000  Uiso   1.00
F128   F     0.55679   0.13307   0.39936   0.00000  Uiso   1.00
N129   N     0.62725   0.13921   0.11215   0.00000  Uiso   1.00
O130   O     0.62070   0.10588   0.13765   0.00000  Uiso   1.00
O131   O     0.59043   0.15476   0.10178   0.00000  Uiso   1.00
N132   N     0.36266   0.22730   0.37386   0.00000  Uiso   1.00
O133   O     0.36806   0.26707   0.36668   0.00000  Uiso   1.00
O134   O     0.40071   0.20458   0.36329   0.00000  Uiso   1.00
F135   F     0.65657   0.25288   0.46101   0.00000  Uiso   1.00
F136   F     0.65884   0.14234   0.01936   0.00000  Uiso   1.00
N137   N     0.49016   0.25034   0.07156   0.00000  Uiso   1.00
O138   O     0.44659   0.26373   0.07721   0.00000  Uiso   1.00
O139   O     0.51655   0.26639   0.09510   0.00000  Uiso   1.00
N140   N     0.48115   0.17307   0.39853   0.00000  Uiso   1.00
O141   O     0.50410   0.20500   0.37519   0.00000  Uiso   1.00
O142   O     0.46324   0.14471   0.37822   0.00000  Uiso   1.00
N143   N     0.58821   0.28999   0.31308   0.00000  Uiso   1.00
O144   O     0.59679   0.25979   0.33777   0.00000  Uiso   1.00
O145   O     0.54469   0.30440   0.32285   0.00000  Uiso   1.00
N146   N     0.41109   0.04351   0.18572   0.00000  Uiso   1.00
O147   O     0.40197   0.07413   0.16181   0.00000  Uiso   1.00
O148   O     0.45453   0.02886   0.17472   0.00000  Uiso   1.00
N149   N     0.53337   0.09839   0.28752   0.00000  Uiso   1.00
O150   O     0.52546   0.06223   0.27299   0.00000  Uiso   1.00
O151   O     0.54472   0.10058   0.32513   0.00000  Uiso   1.00
N152   N     0.46670   0.23485   0.21223   0.00000  Uiso   1.00
O153   O     0.47576   0.27121   0.22557   0.00000  Uiso   1.00
O154   O     0.45334   0.23210   0.17571   0.00000  Uiso   1.00
F155   F     0.43765   0.10370   0.29127   0.00000  Uiso   1.00
F156   F     0.56245   0.22951   0.20852   0.00000  Uiso   1.00
O157   O     0.70625   0.10655   0.25000   0.00000  Uiso   1.00
O158   O     0.96042   0.22678   0.25000   0.00000  Uiso   1.00
O159   O     0.96039   0.10654   0.25001   0.00000  Uiso   1.00
O160   O     0.70628   0.22679   0.24999   0.00000  Uiso   1.00
C161   C     0.99999   0.08755   0.24888   0.00000  Uiso   1.00
C162   C     0.66670   0.24581   0.25102   0.00000  Uiso   1.00
O163   O     0.68519   0.16668   0.31491   0.00000  Uiso   1.00
O164   O     0.98148   0.16666   0.18509   0.00000  Uiso   1.00
O165   O     0.93933   0.16667   0.31492   0.00000  Uiso   1.00
O166   O     0.72733   0.16667   0.18508   0.00000  Uiso   1.00
C167   C     0.97256   0.16884   0.33610   0.00000  Uiso   1.00
C168   C     0.69424   0.16563   0.16358   0.00000  Uiso   1.00
Cu169  Cu    0.71355   0.16667   0.25000   0.00000  Uiso   1.00
Cu170  Cu    0.95311   0.16666   0.25000   0.00000  Uiso   1.00
C171   C     0.95744   0.18015   0.38416   0.00000  Uiso   1.00
C172   C     0.70913   0.16469   0.11333   0.00000  Uiso   1.00
C173   C     0.96331   0.22589   0.44401   0.00000  Uiso   1.00
C174   C     0.69054   0.15488   0.04197   0.00000  Uiso   1.00
C175   C     0.98377   0.21010   0.40104   0.00000  Uiso   1.00
C176   C     0.67554   0.15408   0.08929   0.00000  Uiso   1.00
C177   C     0.91090   0.16762   0.41059   0.00000  Uiso   1.00
C178   C     0.75721   0.17583   0.08875   0.00000  Uiso   1.00
C179   C     0.88687   0.18944   0.44923   0.00000  Uiso   1.00
C180   C     0.77084   0.18085   0.04130   0.00000  Uiso   1.00
C181   C     0.91497   0.21594   0.46807   0.00000  Uiso   1.00
C182   C     0.73822   0.16681   0.01804   0.00000  Uiso   1.00
C183   C     0.83606   0.18497   0.47033   0.00000  Uiso   1.00
C184   C     0.81755   0.19651   0.01609   0.00000  Uiso   1.00
C185   C     0.84543   0.22499   0.03372   0.00000  Uiso   1.00
C186   C     0.80233   0.17232   0.44696   0.00000  Uiso   1.00
C187   C     0.89380   0.23387   0.00956   0.00000  Uiso   1.00
C188   C     0.75386   0.16423   0.47107   0.00000  Uiso   1.00
H189   H     0.91460   0.25602   0.02274   0.00000  Uiso   1.00
H190   H     0.72842   0.15541   0.45276   0.00000  Uiso   1.00
C191   C     0.96134   0.02097   0.27766   0.00000  Uiso   1.00
C192   C     0.70531   0.31244   0.22194   0.00000  Uiso   1.00
H193   H     0.93260   0.03733   0.30072   0.00000  Uiso   1.00
H194   H     0.73404   0.29606   0.19889   0.00000  Uiso   1.00
C195   C     0.96093   0.31142   0.28044   0.00000  Uiso   1.00
C196   C     0.70556   0.02202   0.21895   0.00000  Uiso   1.00
C197   C     0.66684   0.29047   0.25217   0.00000  Uiso   1.00
C198   C     0.99983   0.04293   0.24751   0.00000  Uiso   1.00
C199   C     0.85080   0.13429   0.26905   0.00000  Uiso   1.00
C200   C     0.81589   0.19904   0.23091   0.00000  Uiso   1.00
C201   C     0.80147   0.13485   0.26953   0.00000  Uiso   1.00
C202   C     0.86523   0.19846   0.23041   0.00000  Uiso   1.00
N203   N     0.78403   0.16668   0.24999   0.00000  Uiso   1.00
N204   N     0.88264   0.16666   0.25001   0.00000  Uiso   1.00
F205   F     0.79191   0.17820   0.11047   0.00000  Uiso   1.00
F206   F     0.89013   0.13307   0.39936   0.00000  Uiso   1.00
N207   N     0.96058   0.13921   0.11215   0.00000  Uiso   1.00
O208   O     0.95404   0.10588   0.13765   0.00000  Uiso   1.00
O209   O     0.92376   0.15476   0.10178   0.00000  Uiso   1.00
N210   N     0.69599   0.22730   0.37386   0.00000  Uiso   1.00
O211   O     0.70139   0.26707   0.36668   0.00000  Uiso   1.00
O212   O     0.73404   0.20458   0.36329   0.00000  Uiso   1.00
F213   F     0.98991   0.25288   0.46101   0.00000  Uiso   1.00
F214   F     0.99218   0.14234   0.01936   0.00000  Uiso   1.00
N215   N     0.82349   0.25034   0.07156   0.00000  Uiso   1.00
O216   O     0.77992   0.26373   0.07721   0.00000  Uiso   1.00
O217   O     0.84988   0.26639   0.09510   0.00000  Uiso   1.00
N218   N     0.81448   0.17307   0.39853   0.00000  Uiso   1.00
O219   O     0.83743   0.20500   0.37519   0.00000  Uiso   1.00
O220   O     0.79658   0.14471   0.37822   0.00000  Uiso   1.00
N221   N     0.92155   0.28999   0.31308   0.00000  Uiso   1.00
O222   O     0.93012   0.25979   0.33777   0.00000  Uiso   1.00
O223   O     0.87803   0.30440   0.32285   0.00000  Uiso   1.00
N224   N     0.74442   0.04351   0.18572   0.00000  Uiso   1.00
O225   O     0.73530   0.07413   0.16181   0.00000  Uiso   1.00
O226   O     0.78786   0.02886   0.17472   0.00000  Uiso   1.00
N227   N     0.86671   0.09839   0.28752   0.00000  Uiso   1.00
O228   O     0.85879   0.06223   0.27299   0.00000  Uiso   1.00
O229   O     0.87805   0.10058   0.32513   0.00000  Uiso   1.00
N230   N     0.80003   0.23485   0.21223   0.00000  Uiso   1.00
O231   O     0.80909   0.27121   0.22557   0.00000  Uiso   1.00
O232   O     0.78667   0.23210   0.17571   0.00000  Uiso   1.00
F233   F     0.77099   0.10370   0.29127   0.00000  Uiso   1.00
F234   F     0.89578   0.22951   0.20852   0.00000  Uiso   1.00
O235   O     0.03958   0.43989   0.25000   0.00000  Uiso   1.00
O236   O     0.29375   0.56011   0.25000   0.00000  Uiso   1.00
O237   O     0.29372   0.43988   0.25001   0.00000  Uiso   1.00
O238   O     0.03961   0.56012   0.24999   0.00000  Uiso   1.00
C239   C     0.33332   0.42089   0.24888   0.00000  Uiso   1.00
C240   C     0.00003   0.57914   0.25102   0.00000  Uiso   1.00
O241   O     0.01852   0.50001   0.31491   0.00000  Uiso   1.00
O242   O     0.31481   0.49999   0.18509   0.00000  Uiso   1.00
O243   O     0.27267   0.50000   0.31492   0.00000  Uiso   1.00
O244   O     0.06067   0.50000   0.18508   0.00000  Uiso   1.00
C245   C     0.30589   0.50217   0.33610   0.00000  Uiso   1.00
C246   C     0.02758   0.49897   0.16358   0.00000  Uiso   1.00
Cu247  Cu    0.04689   0.50001   0.25000   0.00000  Uiso   1.00
Cu248  Cu    0.28645   0.49999   0.25000   0.00000  Uiso   1.00
C249   C     0.29077   0.51348   0.38416   0.00000  Uiso   1.00
C250   C     0.04246   0.49802   0.11333   0.00000  Uiso   1.00
C251   C     0.29665   0.55922   0.44401   0.00000  Uiso   1.00
C252   C     0.02387   0.48822   0.04197   0.00000  Uiso   1.00
C253   C     0.31710   0.54344   0.40104   0.00000  Uiso   1.00
C254   C     0.00887   0.48741   0.08929   0.00000  Uiso   1.00
C255   C     0.24424   0.50096   0.41059   0.00000  Uiso   1.00
C256   C     0.09054   0.50916   0.08875   0.00000  Uiso   1.00
C257   C     0.22021   0.52277   0.44923   0.00000  Uiso   1.00
C258   C     0.10417   0.51418   0.04130   0.00000  Uiso   1.00
C259   C     0.24830   0.54928   0.46807   0.00000  Uiso   1.00
C260   C     0.07155   0.50014   0.01804   0.00000  Uiso   1.00
C261   C     0.16939   0.51830   0.47033   0.00000  Uiso   1.00
C262   C     0.15088   0.52984   0.01609   0.00000  Uiso   1.00
C263   C     0.17877   0.55832   0.03372   0.00000  Uiso   1.00
C264   C     0.13566   0.50565   0.44696   0.00000  Uiso   1.00
C265   C     0.22713   0.56720   0.00956   0.00000  Uiso   1.00
C266   C     0.08719   0.49757   0.47107   0.00000  Uiso   1.00
H267   H     0.24793   0.58935   0.02274   0.00000  Uiso   1.00
H268   H     0.06176   0.48875   0.45276   0.00000  Uiso   1.00
C269   C     0.29467   0.35431   0.27766   0.00000  Uiso   1.00
C270   C     0.03864   0.64577   0.22194   0.00000  Uiso   1.00
H271   H     0.26593   0.37066   0.30072   0.00000  Uiso   1.00
H272   H     0.06737   0.62940   0.19889   0.00000  Uiso   1.00
C273   C     0.29426   0.64476   0.28044   0.00000  Uiso   1.00
C274   C     0.03889   0.35535   0.21895   0.00000  Uiso   1.00
C275   C     0.00017   0.62380   0.25217   0.00000  Uiso   1.00
C276   C     0.33316   0.37627   0.24751   0.00000  Uiso   1.00
C277   C     0.18413   0.46762   0.26905   0.00000  Uiso   1.00
C278   C     0.14922   0.53237   0.23091   0.00000  Uiso   1.00
C279   C     0.13480   0.46818   0.26953   0.00000  Uiso   1.00
C280   C     0.19856   0.53179   0.23041   0.00000  Uiso   1.00
N281   N     0.11736   0.50001   0.24999   0.00000  Uiso   1.00
N282   N     0.21597   0.49999   0.25001   0.00000  Uiso   1.00
F283   F     0.12525   0.51153   0.11047   0.00000  Uiso   1.00
F284   F     0.22346   0.46640   0.39936   0.00000  Uiso   1.00
N285   N     0.29392   0.47254   0.11215   0.00000  Uiso   1.00
O286   O     0.28737   0.43921   0.13765   0.00000  Uiso   1.00
O287   O     0.25709   0.48809   0.10178   0.00000  Uiso   1.00
N288   N     0.02932   0.56063   0.37386   0.00000  Uiso   1.00
O289   O     0.03473   0.60041   0.36668   0.00000  Uiso   1.00
O290   O     0.06737   0.53792   0.36329   0.00000  Uiso   1.00
F291   F     0.32324   0.58621   0.46101   0.00000  Uiso   1.00
F292   F     0.32551   0.47567   0.01936   0.00000  Uiso   1.00
N293   N     0.15683   0.58367   0.07156   0.00000  Uiso   1.00
O294   O     0.11325   0.59707   0.07721   0.00000  Uiso   1.00
O295   O     0.18321   0.59973   0.09510   0.00000  Uiso   1.00
N296   N     0.14782   0.50641   0.39853   0.00000  Uiso   1.00
O297   O     0.17076   0.53834   0.37519   0.00000  Uiso   1.00
O298   O     0.12991   0.47804   0.37822   0.00000  Uiso   1.00
N299   N     0.25488   0.62333   0.31308   0.00000  Uiso   1.00
O300   O     0.26346   0.59313   0.33777   0.00000  Uiso   1.00
O301   O     0.21136   0.63774   0.32285   0.00000  Uiso   1.00
N302   N     0.07775   0.37684   0.18572   0.00000  Uiso   1.00
O303   O     0.06864   0.40746   0.16181   0.00000  Uiso   1.00
O304   O     0.12120   0.36219   0.17472   0.00000  Uiso   1.00
N305   N     0.20004   0.43172   0.28752   0.00000  Uiso   1.00
O306   O     0.19212   0.39557   0.27299   0.00000  Uiso   1.00
O307   O     0.21139   0.43391   0.32513   0.00000  Uiso   1.00
N308   N     0.13337   0.56818   0.21223   0.00000  Uiso   1.00
O309   O     0.14242   0.60454   0.22557   0.00000  Uiso   1.00
O310   O     0.12001   0.56543   0.17571   0.00000  Uiso   1.00
F311   F     0.10432   0.43703   0.29127   0.00000  Uiso   1.00
F312   F     0.22912   0.56284   0.20852   0.00000  Uiso   1.00
O313   O     0.37291   0.43989   0.25000   0.00000  Uiso   1.00
O314   O     0.62709   0.56011   0.25000   0.00000  Uiso   1.00
O315   O     0.62706   0.43988   0.25001   0.00000  Uiso   1.00
O316   O     0.37294   0.56012   0.24999   0.00000  Uiso   1.00
C317   C     0.66666   0.42089   0.24888   0.00000  Uiso   1.00
C318   C     0.33336   0.57914   0.25102   0.00000  Uiso   1.00
O319   O     0.35186   0.50001   0.31491   0.00000  Uiso   1.00
O320   O     0.64814   0.49999   0.18509   0.00000  Uiso   1.00
O321   O     0.60600   0.50000   0.31492   0.00000  Uiso   1.00
O322   O     0.39400   0.50000   0.18508   0.00000  Uiso   1.00
C323   C     0.63923   0.50217   0.33610   0.00000  Uiso   1.00
C324   C     0.36091   0.49897   0.16358   0.00000  Uiso   1.00
Cu325  Cu    0.38022   0.50001   0.25000   0.00000  Uiso   1.00
Cu326  Cu    0.61978   0.49999   0.25000   0.00000  Uiso   1.00
C327   C     0.62410   0.51348   0.38416   0.00000  Uiso   1.00
C328   C     0.37579   0.49802   0.11333   0.00000  Uiso   1.00
C329   C     0.62998   0.55922   0.44401   0.00000  Uiso   1.00
C330   C     0.35720   0.48822   0.04197   0.00000  Uiso   1.00
C331   C     0.65044   0.54344   0.40104   0.00000  Uiso   1.00
C332   C     0.34221   0.48741   0.08929   0.00000  Uiso   1.00
C333   C     0.57757   0.50096   0.41059   0.00000  Uiso   1.00
C334   C     0.42388   0.50916   0.08875   0.00000  Uiso   1.00
C335   C     0.55354   0.52277   0.44923   0.00000  Uiso   1.00
C336   C     0.43750   0.51418   0.04130   0.00000  Uiso   1.00
C337   C     0.58164   0.54928   0.46807   0.00000  Uiso   1.00
C338   C     0.40488   0.50014   0.01804   0.00000  Uiso   1.00
C339   C     0.50273   0.51830   0.47033   0.00000  Uiso   1.00
C340   C     0.48421   0.52984   0.01609   0.00000  Uiso   1.00
C341   C     0.51210   0.55832   0.03372   0.00000  Uiso   1.00
C342   C     0.46899   0.50565   0.44696   0.00000  Uiso   1.00
C343   C     0.56047   0.56720   0.00956   0.00000  Uiso   1.00
C344   C     0.42053   0.49757   0.47107   0.00000  Uiso   1.00
H345   H     0.58127   0.58935   0.02274   0.00000  Uiso   1.00
H346   H     0.39509   0.48875   0.45276   0.00000  Uiso   1.00
C347   C     0.62800   0.35431   0.27766   0.00000  Uiso   1.00
C348   C     0.37198   0.64577   0.22194   0.00000  Uiso   1.00
H349   H     0.59927   0.37066   0.30072   0.00000  Uiso   1.00
H350   H     0.40070   0.62940   0.19889   0.00000  Uiso   1.00
C351   C     0.62759   0.64476   0.28044   0.00000  Uiso   1.00
C352   C     0.37222   0.35535   0.21895   0.00000  Uiso   1.00
C353   C     0.33351   0.62380   0.25217   0.00000  Uiso   1.00
C354   C     0.66649   0.37627   0.24751   0.00000  Uiso   1.00
C355   C     0.51747   0.46762   0.26905   0.00000  Uiso   1.00
C356   C     0.48256   0.53237   0.23091   0.00000  Uiso   1.00
C357   C     0.46813   0.46818   0.26953   0.00000  Uiso   1.00
C358   C     0.53190   0.53179   0.23041   0.00000  Uiso   1.00
N359   N     0.45069   0.50001   0.24999   0.00000  Uiso   1.00
N360   N     0.54931   0.49999   0.25001   0.00000  Uiso   1.00
F361   F     0.45858   0.51153   0.11047   0.00000  Uiso   1.00
F362   F     0.55679   0.46640   0.39936   0.00000  Uiso   1.00
N363   N     0.62725   0.47254   0.11215   0.00000  Uiso   1.00
O364   O     0.62070   0.43921   0.13765   0.00000  Uiso   1.00
O365   O     0.59043   0.48809   0.10178   0.00000  Uiso   1.00
N366   N     0.36266   0.56063   0.37386   0.00000  Uiso   1.00
O367   O     0.36806   0.60041   0.36668   0.00000  Uiso   1.00
O368   O     0.40071   0.53792   0.36329   0.00000  Uiso   1.00
F369   F     0.65657   0.58621   0.46101   0.00000  Uiso   1.00
F370   F     0.65884   0.47567   0.01936   0.00000  Uiso   1.00
N371   N     0.49016   0.58367   0.07156   0.00000  Uiso   1.00
O372   O     0.44659   0.59707   0.07721   0.00000  Uiso   1.00
O373   O     0.51655   0.59973   0.09510   0.00000  Uiso   1.00
N374   N     0.48115   0.50641   0.39853   0.00000  Uiso   1.00
O375   O     0.50410   0.53834   0.37519   0.00000  Uiso   1.00
O376   O     0.46324   0.47804   0.37822   0.00000  Uiso   1.00
N377   N     0.58821   0.62333   0.31308   0.00000  Uiso   1.00
O378   O     0.59679   0.59313   0.33777   0.00000  Uiso   1.00
O379   O     0.54469   0.63774   0.32285   0.00000  Uiso   1.00
N380   N     0.41109   0.37684   0.18572   0.00000  Uiso   1.00
O381   O     0.40197   0.40746   0.16181   0.00000  Uiso   1.00
O382   O     0.45453   0.36219   0.17472   0.00000  Uiso   1.00
N383   N     0.53337   0.43172   0.28752   0.00000  Uiso   1.00
O384   O     0.52546   0.39557   0.27299   0.00000  Uiso   1.00
O385   O     0.54472   0.43391   0.32513   0.00000  Uiso   1.00
N386   N     0.46670   0.56818   0.21223   0.00000  Uiso   1.00
O387   O     0.47576   0.60454   0.22557   0.00000  Uiso   1.00
O388   O     0.45334   0.56543   0.17571   0.00000  Uiso   1.00
F389   F     0.43765   0.43703   0.29127   0.00000  Uiso   1.00
F390   F     0.56245   0.56284   0.20852   0.00000  Uiso   1.00
O391   O     0.70625   0.43989   0.25000   0.00000  Uiso   1.00
O392   O     0.96042   0.56011   0.25000   0.00000  Uiso   1.00
O393   O     0.96039   0.43988   0.25001   0.00000  Uiso   1.00
O394   O     0.70628   0.56012   0.24999   0.00000  Uiso   1.00
C395   C     0.99999   0.42089   0.24888   0.00000  Uiso   1.00
C396   C     0.66670   0.57914   0.25102   0.00000  Uiso   1.00
O397   O     0.68519   0.50001   0.31491   0.00000  Uiso   1.00
O398   O     0.98148   0.49999   0.18509   0.00000  Uiso   1.00
O399   O     0.93933   0.50000   0.31492   0.00000  Uiso   1.00
O400   O     0.72733   0.50000   0.18508   0.00000  Uiso   1.00
C401   C     0.97256   0.50217   0.33610   0.00000  Uiso   1.00
C402   C     0.69424   0.49897   0.16358   0.00000  Uiso   1.00
Cu403  Cu    0.71355   0.50001   0.25000   0.00000  Uiso   1.00
Cu404  Cu    0.95311   0.49999   0.25000   0.00000  Uiso   1.00
C405   C     0.95744   0.51348   0.38416   0.00000  Uiso   1.00
C406   C     0.70913   0.49802   0.11333   0.00000  Uiso   1.00
C407   C     0.96331   0.55922   0.44401   0.00000  Uiso   1.00
C408   C     0.69054   0.48822   0.04197   0.00000  Uiso   1.00
C409   C     0.98377   0.54344   0.40104   0.00000  Uiso   1.00
C410   C     0.67554   0.48741   0.08929   0.00000  Uiso   1.00
C411   C     0.91090   0.50096   0.41059   0.00000  Uiso   1.00
C412   C     0.75721   0.50916   0.08875   0.00000  Uiso   1.00
C413   C     0.88687   0.52277   0.44923   0.00000  Uiso   1.00
C414   C     0.77084   0.51418   0.04130   0.00000  Uiso   1.00
C415   C     0.91497   0.54928   0.46807   0.00000  Uiso   1.00
C416   C     0.73822   0.50014   0.01804   0.00000  Uiso   1.00
C417   C     0.83606   0.51830   0.47033   0.00000  Uiso   1.00
C418   C     0.81755   0.52984   0.01609   0.00000  Uiso   1.00
C419   C     0.84543   0.55832   0.03372   0.00000  Uiso   1.00
C420   C     0.80233   0.50565   0.44696   0.00000  Uiso   1.00
C421   C     0.89380   0.56720   0.00956   0.00000  Uiso   1.00
C422   C     0.75386   0.49757   0.47107   0.00000  Uiso   1.00
H423   H     0.91460   0.58935   0.02274   0.00000  Uiso   1.00
H424   H     0.72842   0.48875   0.45276   0.00000  Uiso   1.00
C425   C     0.96134   0.35431   0.27766   0.00000  Uiso   1.00
C426   C     0.70531   0.64577   0.22194   0.00000  Uiso   1.00
H427   H     0.93260   0.37066   0.30072   0.00000  Uiso   1.00
H428   H     0.73404   0.62940   0.19889   0.00000  Uiso   1.00
C429   C     0.96093   0.64476   0.28044   0.00000  Uiso   1.00
C430   C     0.70556   0.35535   0.21895   0.00000  Uiso   1.00
C431   C     0.66684   0.62380   0.25217   0.00000  Uiso   1.00
C432   C     0.99983   0.37627   0.24751   0.00000  Uiso   1.00
C433   C     0.85080   0.46762   0.26905   0.00000  Uiso   1.00
C434   C     0.81589   0.53237   0.23091   0.00000  Uiso   1.00
C435   C     0.80147   0.46818   0.26953   0.00000  Uiso   1.00
C436   C     0.86523   0.53179   0.23041   0.00000  Uiso   1.00
N437   N     0.78403   0.50001   0.24999   0.00000  Uiso   1.00
N438   N     0.88264   0.49999   0.25001   0.00000  Uiso   1.00
F439   F     0.79191   0.51153   0.11047   0.00000  Uiso   1.00
F440   F     0.89013   0.46640   0.39936   0.00000  Uiso   1.00
N441   N     0.96058   0.47254   0.11215   0.00000  Uiso   1.00
O442   O     0.95404   0.43921   0.13765   0.00000  Uiso   1.00
O443   O     0.92376   0.48809   0.10178   0.00000  Uiso   1.00
N444   N     0.69599   0.56063   0.37386   0.00000  Uiso   1.00
O445   O     0.70139   0.60041   0.36668   0.00000  Uiso   1.00
O446   O     0.73404   0.53792   0.36329   0.00000  Uiso   1.00
F447   F     0.98991   0.58621   0.46101   0.00000  Uiso   1.00
F448   F     0.99218   0.47567   0.01936   0.00000  Uiso   1.00
N449   N     0.82349   0.58367   0.07156   0.00000  Uiso   1.00
O450   O     0.77992   0.59707   0.07721   0.00000  Uiso   1.00
O451   O     0.84988   0.59973   0.09510   0.00000  Uiso   1.00
N452   N     0.81448   0.50641   0.39853   0.00000  Uiso   1.00
O453   O     0.83743   0.53834   0.37519   0.00000  Uiso   1.00
O454   O     0.79658   0.47804   0.37822   0.00000  Uiso   1.00
N455   N     0.92155   0.62333   0.31308   0.00000  Uiso   1.00
O456   O     0.93012   0.59313   0.33777   0.00000  Uiso   1.00
O457   O     0.87803   0.63774   0.32285   0.00000  Uiso   1.00
N458   N     0.74442   0.37684   0.18572   0.00000  Uiso   1.00
O459   O     0.73530   0.40746   0.16181   0.00000  Uiso   1.00
O460   O     0.78786   0.36219   0.17472   0.00000  Uiso   1.00
N461   N     0.86671   0.43172   0.28752   0.00000  Uiso   1.00
O462   O     0.85879   0.39557   0.27299   0.00000  Uiso   1.00
O463   O     0.87805   0.43391   0.32513   0.00000  Uiso   1.00
N464   N     0.80003   0.56818   0.21223   0.00000  Uiso   1.00
O465   O     0.80909   0.60454   0.22557   0.00000  Uiso   1.00
O466   O     0.78667   0.56543   0.17571   0.00000  Uiso   1.00
F467   F     0.77099   0.43703   0.29127   0.00000  Uiso   1.00
F468   F     0.89578   0.56284   0.20852   0.00000  Uiso   1.00
O469   O     0.03958   0.77322   0.25000   0.00000  Uiso   1.00
O470   O     0.29375   0.89345   0.25000   0.00000  Uiso   1.00
O471   O     0.29372   0.77321   0.25001   0.00000  Uiso   1.00
O472   O     0.03961   0.89346   0.24999   0.00000  Uiso   1.00
C473   C     0.33332   0.75422   0.24888   0.00000  Uiso   1.00
C474   C     0.00003   0.91247   0.25102   0.00000  Uiso   1.00
O475   O     0.01852   0.83334   0.31491   0.00000  Uiso   1.00
O476   O     0.31481   0.83332   0.18509   0.00000  Uiso   1.00
O477   O     0.27267   0.83333   0.31492   0.00000  Uiso   1.00
O478   O     0.06067   0.83333   0.18508   0.00000  Uiso   1.00
C479   C     0.30589   0.83550   0.33610   0.00000  Uiso   1.00
C480   C     0.02758   0.83230   0.16358   0.00000  Uiso   1.00
Cu481  Cu    0.04689   0.83334   0.25000   0.00000  Uiso   1.00
Cu482  Cu    0.28645   0.83333   0.25000   0.00000  Uiso   1.00
C483   C     0.29077   0.84681   0.38416   0.00000  Uiso   1.00
C484   C     0.04246   0.83135   0.11333   0.00000  Uiso   1.00
C485   C     0.29665   0.89255   0.44401   0.00000  Uiso   1.00
C486   C     0.02387   0.82155   0.04197   0.00000  Uiso   1.00
C487   C     0.31710   0.87677   0.40104   0.00000  Uiso   1.00
C488   C     0.00887   0.82075   0.08929   0.00000  Uiso   1.00
C489   C     0.24424   0.83429   0.41059   0.00000  Uiso   1.00
C490   C     0.09054   0.84249   0.08875   0.00000  Uiso   1.00
C491   C     0.22021   0.85610   0.44923   0.00000  Uiso   1.00
C492   C     0.10417   0.84752   0.04130   0.00000  Uiso   1.00
C493   C     0.24830   0.88261   0.46807   0.00000  Uiso   1.00
C494   C     0.07155   0.83348   0.01804   0.00000  Uiso   1.00
C495   C     0.16939   0.85163   0.47033   0.00000  Uiso   1.00
C496   C     0.15088   0.86318   0.01609   0.00000  Uiso   1.00
C497   C     0.17877   0.89165   0.03372   0.00000  Uiso   1.00
C498   C     0.13566   0.83898   0.44696   0.00000  Uiso   1.00
C499   C     0.22713   0.90053   0.00956   0.00000  Uiso   1.00
C500   C     0.08719   0.83090   0.47107   0.00000  Uiso   1.00
H501   H     0.24793   0.92268   0.02274   0.00000  Uiso   1.00
H502   H     0.06176   0.82208   0.45276   0.00000  Uiso   1.00
C503   C     0.29467   0.68764   0.27766   0.00000  Uiso   1.00
C504   C     0.03864   0.97910   0.22194   0.00000  Uiso   1.00
H505   H     0.26593   0.70400   0.30072   0.00000  Uiso   1.00
H506   H     0.06737   0.96273   0.19889   0.00000  Uiso   1.00
C507   C     0.29426   0.97809   0.28044   0.00000  Uiso   1.00
C508   C     0.03889   0.68868   0.21895   0.00000  Uiso   1.00
C509   C     0.00017   0.95713   0.25217   0.00000  Uiso   1.00
C510   C     0.33316   0.70960   0.24751   0.00000  Uiso   1.00
C511   C     0.18413   0.80096   0.26905   0.00000  Uiso   1.00
C512   C     0.14922   0.86570   0.23091   0.00000  Uiso   1.00
C513   C     0.13480   0.80151   0.26953   0.00000  Uiso   1.00
C514   C     0.19856   0.86513   0.23041   0.00000  Uiso   1.00
N515   N     0.11736   0.83334   0.24999   0.00000  Uiso   1.00
N516   N     0.21597   0.83332   0.25001   0.00000  Uiso   1.00
F517   F     0.12525   0.84487   0.11047   0.00000  Uiso   1.00
F518   F     0.22346   0.79973   0.39936   0.00000  Uiso   1.00
N519   N     0.29392   0.80587   0.11215   0.00000  Uiso   1.00
O520   O     0.28737   0.77255   0.13765   0.00000  Uiso   1.00
O521   O     0.25709   0.82142   0.10178   0.00000  Uiso   1.00
N522   N     0.02932   0.89396   0.37386   0.00000  Uiso   1.00
O523   O     0.03473   0.93374   0.36668   0.00000  Uiso   1.00
O524   O     0.06737   0.87125   0.36329   0.00000  Uiso   1.00
F525   F     0.32324   0.91954   0.46101   0.00000  Uiso   1.00
F526   F     0.32551   0.80900   0.01936   0.00000  Uiso   1.00
N527   N     0.15683   0.91701   0.07156   0.00000  Uiso   1.00
O528   O     0.11325   0.93040   0.07721   0.00000  Uiso   1.00
O529   O     0.18321   0.93306   0.09510   0.00000  Uiso   1.00
N530   N     0.14782   0.83974   0.39853   0.00000  Uiso   1.00
O531   O     0.17076   0.87167   0.37519   0.00000  Uiso   1.00
O532   O     0.12991   0.81137   0.37822   0.00000  Uiso   1.00
N533   N     0.25488   0.95666   0.31308   0.00000  Uiso   1.00
O534   O     0.26346   0.92646   0.33777   0.00000  Uiso   1.00
O535   O     0.21136   0.97107   0.32285   0.00000  Uiso   1.00
N536   N     0.07775   0.71018   0.18572   0.00000  Uiso   1.00
O537   O     0.06864   0.74079   0.16181   0.00000  Uiso   1.00
O538   O     0.12120   0.69552   0.17472   0.00000  Uiso   1.00
N539   N     0.20004   0.76506   0.28752   0.00000  Uiso   1.00
O540   O     0.19212   0.72890   0.27299   0.00000  Uiso   1.00
O541   O     0.21139   0.76724   0.32513   0.00000  Uiso   1.00
N542   N     0.13337   0.90151   0.21223   0.00000  Uiso   1.00
O543   O     0.14242   0.93788   0.22557   0.00000  Uiso   1.00
O544   O     0.12001   0.89876   0.17571   0.00000  Uiso   1.00
F545   F     0.10432   0.77036   0.29127   0.00000  Uiso   1.00
F546   F     0.22912   0.89618   0.20852   0.00000  Uiso   1.00
O547   O     0.37291   0.77322   0.25000   0.00000  Uiso   1.00
O548   O     0.62709   0.89345   0.25000   0.00000  Uiso   1.00
O549   O     0.62706   0.77321   0.25001   0.00000  Uiso   1.00
O550   O     0.37294   0.89346   0.24999   0.00000  Uiso   1.00
C551   C     0.66666   0.75422   0.24888   0.00000  Uiso   1.00
C552   C     0.33336   0.91247   0.25102   0.00000  Uiso   1.00
O553   O     0.35186   0.83334   0.31491   0.00000  Uiso   1.00
O554   O     0.64814   0.83332   0.18509   0.00000  Uiso   1.00
O555   O     0.60600   0.83333   0.31492   0.00000  Uiso   1.00
O556   O     0.39400   0.83333   0.18508   0.00000  Uiso   1.00
C557   C     0.63923   0.83550   0.33610   0.00000  Uiso   1.00
C558   C     0.36091   0.83230   0.16358   0.00000  Uiso   1.00
Cu559  Cu    0.38022   0.83334   0.25000   0.00000  Uiso   1.00
Cu560  Cu    0.61978   0.83333   0.25000   0.00000  Uiso   1.00
C561   C     0.62410   0.84681   0.38416   0.00000  Uiso   1.00
C562   C     0.37579   0.83135   0.11333   0.00000  Uiso   1.00
C563   C     0.62998   0.89255   0.44401   0.00000  Uiso   1.00
C564   C     0.35720   0.82155   0.04197   0.00000  Uiso   1.00
C565   C     0.65044   0.87677   0.40104   0.00000  Uiso   1.00
C566   C     0.34221   0.82075   0.08929   0.00000  Uiso   1.00
C567   C     0.57757   0.83429   0.41059   0.00000  Uiso   1.00
C568   C     0.42388   0.84249   0.08875   0.00000  Uiso   1.00
C569   C     0.55354   0.85610   0.44923   0.00000  Uiso   1.00
C570   C     0.43750   0.84752   0.04130   0.00000  Uiso   1.00
C571   C     0.58164   0.88261   0.46807   0.00000  Uiso   1.00
C572   C     0.40488   0.83348   0.01804   0.00000  Uiso   1.00
C573   C     0.50273   0.85163   0.47033   0.00000  Uiso   1.00
C574   C     0.48421   0.86318   0.01609   0.00000  Uiso   1.00
C575   C     0.51210   0.89165   0.03372   0.00000  Uiso   1.00
C576   C     0.46899   0.83898   0.44696   0.00000  Uiso   1.00
C577   C     0.56047   0.90053   0.00956   0.00000  Uiso   1.00
C578   C     0.42053   0.83090   0.47107   0.00000  Uiso   1.00
H579   H     0.58127   0.92268   0.02274   0.00000  Uiso   1.00
H580   H     0.39509   0.82208   0.45276   0.00000  Uiso   1.00
C581   C     0.62800   0.68764   0.27766   0.00000  Uiso   1.00
C582   C     0.37198   0.97910   0.22194   0.00000  Uiso   1.00
H583   H     0.59927   0.70400   0.30072   0.00000  Uiso   1.00
H584   H     0.40070   0.96273   0.19889   0.00000  Uiso   1.00
C585   C     0.62759   0.97809   0.28044   0.00000  Uiso   1.00
C586   C     0.37222   0.68868   0.21895   0.00000  Uiso   1.00
C587   C     0.33351   0.95713   0.25217   0.00000  Uiso   1.00
C588   C     0.66649   0.70960   0.24751   0.00000  Uiso   1.00
C589   C     0.51747   0.80096   0.26905   0.00000  Uiso   1.00
C590   C     0.48256   0.86570   0.23091   0.00000  Uiso   1.00
C591   C     0.46813   0.80151   0.26953   0.00000  Uiso   1.00
C592   C     0.53190   0.86513   0.23041   0.00000  Uiso   1.00
N593   N     0.45069   0.83334   0.24999   0.00000  Uiso   1.00
N594   N     0.54931   0.83332   0.25001   0.00000  Uiso   1.00
F595   F     0.45858   0.84487   0.11047   0.00000  Uiso   1.00
F596   F     0.55679   0.79973   0.39936   0.00000  Uiso   1.00
N597   N     0.62725   0.80587   0.11215   0.00000  Uiso   1.00
O598   O     0.62070   0.77255   0.13765   0.00000  Uiso   1.00
O599   O     0.59043   0.82142   0.10178   0.00000  Uiso   1.00
N600   N     0.36266   0.89396   0.37386   0.00000  Uiso   1.00
O601   O     0.36806   0.93374   0.36668   0.00000  Uiso   1.00
O602   O     0.40071   0.87125   0.36329   0.00000  Uiso   1.00
F603   F     0.65657   0.91954   0.46101   0.00000  Uiso   1.00
F604   F     0.65884   0.80900   0.01936   0.00000  Uiso   1.00
N605   N     0.49016   0.91701   0.07156   0.00000  Uiso   1.00
O606   O     0.44659   0.93040   0.07721   0.00000  Uiso   1.00
O607   O     0.51655   0.93306   0.09510   0.00000  Uiso   1.00
N608   N     0.48115   0.83974   0.39853   0.00000  Uiso   1.00
O609   O     0.50410   0.87167   0.37519   0.00000  Uiso   1.00
O610   O     0.46324   0.81137   0.37822   0.00000  Uiso   1.00
N611   N     0.58821   0.95666   0.31308   0.00000  Uiso   1.00
O612   O     0.59679   0.92646   0.33777   0.00000  Uiso   1.00
O613   O     0.54469   0.97107   0.32285   0.00000  Uiso   1.00
N614   N     0.41109   0.71018   0.18572   0.00000  Uiso   1.00
O615   O     0.40197   0.74079   0.16181   0.00000  Uiso   1.00
O616   O     0.45453   0.69552   0.17472   0.00000  Uiso   1.00
N617   N     0.53337   0.76506   0.28752   0.00000  Uiso   1.00
O618   O     0.52546   0.72890   0.27299   0.00000  Uiso   1.00
O619   O     0.54472   0.76724   0.32513   0.00000  Uiso   1.00
N620   N     0.46670   0.90151   0.21223   0.00000  Uiso   1.00
O621   O     0.47576   0.93788   0.22557   0.00000  Uiso   1.00
O622   O     0.45334   0.89876   0.17571   0.00000  Uiso   1.00
F623   F     0.43765   0.77036   0.29127   0.00000  Uiso   1.00
F624   F     0.56245   0.89618   0.20852   0.00000  Uiso   1.00
O625   O     0.70625   0.77322   0.25000   0.00000  Uiso   1.00
O626   O     0.96042   0.89345   0.25000   0.00000  Uiso   1.00
O627   O     0.96039   0.77321   0.25001   0.00000  Uiso   1.00
O628   O     0.70628   0.89346   0.24999   0.00000  Uiso   1.00
C629   C     0.99999   0.75422   0.24888   0.00000  Uiso   1.00
C630   C     0.66670   0.91247   0.25102   0.00000  Uiso   1.00
O631   O     0.68519   0.83334   0.31491   0.00000  Uiso   1.00
O632   O     0.98148   0.83332   0.18509   0.00000  Uiso   1.00
O633   O     0.93933   0.83333   0.31492   0.00000  Uiso   1.00
O634   O     0.72733   0.83333   0.18508   0.00000  Uiso   1.00
C635   C     0.97256   0.83550   0.33610   0.00000  Uiso   1.00
C636   C     0.69424   0.83230   0.16358   0.00000  Uiso   1.00
Cu637  Cu    0.71355   0.83334   0.25000   0.00000  Uiso   1.00
Cu638  Cu    0.95311   0.83333   0.25000   0.00000  Uiso   1.00
C639   C     0.95744   0.84681   0.38416   0.00000  Uiso   1.00
C640   C     0.70913   0.83135   0.11333   0.00000  Uiso   1.00
C641   C     0.96331   0.89255   0.44401   0.00000  Uiso   1.00
C642   C     0.69054   0.82155   0.04197   0.00000  Uiso   1.00
C643   C     0.98377   0.87677   0.40104   0.00000  Uiso   1.00
C644   C     0.67554   0.82075   0.08929   0.00000  Uiso   1.00
C645   C     0.91090   0.83429   0.41059   0.00000  Uiso   1.00
C646   C     0.75721   0.84249   0.08875   0.00000  Uiso   1.00
C647   C     0.88687   0.85610   0.44923   0.00000  Uiso   1.00
C648   C     0.77084   0.84752   0.04130   0.00000  Uiso   1.00
C649   C     0.91497   0.88261   0.46807   0.00000  Uiso   1.00
C650   C     0.73822   0.83348   0.01804   0.00000  Uiso   1.00
C651   C     0.83606   0.85163   0.47033   0.00000  Uiso   1.00
C652   C     0.81755   0.86318   0.01609   0.00000  Uiso   1.00
C653   C     0.84543   0.89165   0.03372   0.00000  Uiso   1.00
C654   C     0.80233   0.83898   0.44696   0.00000  Uiso   1.00
C655   C     0.89380   0.90053   0.00956   0.00000  Uiso   1.00
C656   C     0.75386   0.83090   0.47107   0.00000  Uiso   1.00
H657   H     0.91460   0.92268   0.02274   0.00000  Uiso   1.00
H658   H     0.72842   0.82208   0.45276   0.00000  Uiso   1.00
C659   C     0.96134   0.68764   0.27766   0.00000  Uiso   1.00
C660   C     0.70531   0.97910   0.22194   0.00000  Uiso   1.00
H661   H     0.93260   0.70400   0.30072   0.00000  Uiso   1.00
H662   H     0.73404   0.96273   0.19889   0.00000  Uiso   1.00
C663   C     0.96093   0.97809   0.28044   0.00000  Uiso   1.00
C664   C     0.70556   0.68868   0.21895   0.00000  Uiso   1.00
C665   C     0.66684   0.95713   0.25217   0.00000  Uiso   1.00
C666   C     0.99983   0.70960   0.24751   0.00000  Uiso   1.00
C667   C     0.85080   0.80096   0.26905   0.00000  Uiso   1.00
C668   C     0.81589   0.86570   0.23091   0.00000  Uiso   1.00
C669   C     0.80147   0.80151   0.26953   0.00000  Uiso   1.00
C670   C     0.86523   0.86513   0.23041   0.00000  Uiso   1.00
N671   N     0.78403   0.83334   0.24999   0.00000  Uiso   1.00
N672   N     0.88264   0.83332   0.25001   0.00000  Uiso   1.00
F673   F     0.79191   0.84487   0.11047   0.00000  Uiso   1.00
F674   F     0.89013   0.79973   0.39936   0.00000  Uiso   1.00
N675   N     0.96058   0.80587   0.11215   0.00000  Uiso   1.00
O676   O     0.95404   0.77255   0.13765   0.00000  Uiso   1.00
O677   O     0.92376   0.82142   0.10178   0.00000  Uiso   1.00
N678   N     0.69599   0.89396   0.37386   0.00000  Uiso   1.00
O679   O     0.70139   0.93374   0.36668   0.00000  Uiso   1.00
O680   O     0.73404   0.87125   0.36329   0.00000  Uiso   1.00
F681   F     0.98991   0.91954   0.46101   0.00000  Uiso   1.00
F682   F     0.99218   0.80900   0.01936   0.00000  Uiso   1.00
N683   N     0.82349   0.91701   0.07156   0.00000  Uiso   1.00
O684   O     0.77992   0.93040   0.07721   0.00000  Uiso   1.00
O685   O     0.84988   0.93306   0.09510   0.00000  Uiso   1.00
N686   N     0.81448   0.83974   0.39853   0.00000  Uiso   1.00
O687   O     0.83743   0.87167   0.37519   0.00000  Uiso   1.00
O688   O     0.79658   0.81137   0.37822   0.00000  Uiso   1.00
N689   N     0.92155   0.95666   0.31308   0.00000  Uiso   1.00
O690   O     0.93012   0.92646   0.33777   0.00000  Uiso   1.00
O691   O     0.87803   0.97107   0.32285   0.00000  Uiso   1.00
N692   N     0.74442   0.71018   0.18572   0.00000  Uiso   1.00
O693   O     0.73530   0.74079   0.16181   0.00000  Uiso   1.00
O694   O     0.78786   0.69552   0.17472   0.00000  Uiso   1.00
N695   N     0.86671   0.76506   0.28752   0.00000  Uiso   1.00
O696   O     0.85879   0.72890   0.27299   0.00000  Uiso   1.00
O697   O     0.87805   0.76724   0.32513   0.00000  Uiso   1.00
N698   N     0.80003   0.90151   0.21223   0.00000  Uiso   1.00
O699   O     0.80909   0.93788   0.22557   0.00000  Uiso   1.00
O700   O     0.78667   0.89876   0.17571   0.00000  Uiso   1.00
F701   F     0.77099   0.77036   0.29127   0.00000  Uiso   1.00
F702   F     0.89578   0.89618   0.20852   0.00000  Uiso   1.00
O703   O     0.03958   0.10655   0.75000   0.00000  Uiso   1.00
O704   O     0.29375   0.22678   0.75000   0.00000  Uiso   1.00
O705   O     0.29372   0.10654   0.75001   0.00000  Uiso   1.00
O706   O     0.03961   0.22679   0.74999   0.00000  Uiso   1.00
C707   C     0.33332   0.08755   0.74888   0.00000  Uiso   1.00
C708   C     0.00003   0.24581   0.75102   0.00000  Uiso   1.00
O709   O     0.01852   0.16668   0.81491   0.00000  Uiso   1.00
O710   O     0.31481   0.16666   0.68509   0.00000  Uiso   1.00
O711   O     0.27267   0.16667   0.81492   0.00000  Uiso   1.00
O712   O     0.06067   0.16667   0.68508   0.00000  Uiso   1.00
C713   C     0.30589   0.16884   0.83610   0.00000  Uiso   1.00
C714   C     0.02758   0.16563   0.66358   0.00000  Uiso   1.00
Cu715  Cu    0.04689   0.16667   0.75000   0.00000  Uiso   1.00
Cu716  Cu    0.28645   0.16666   0.75000   0.00000  Uiso   1.00
C717   C     0.29077   0.18015   0.88416   0.00000  Uiso   1.00
C718   C     0.04246   0.16469   0.61333   0.00000  Uiso   1.00
C719   C     0.29665   0.22589   0.94401   0.00000  Uiso   1.00
C720   C     0.02387   0.15488   0.54197   0.00000  Uiso   1.00
C721   C     0.31710   0.21010   0.90104   0.00000  Uiso   1.00
C722   C     0.00887   0.15408   0.58929   0.00000  Uiso   1.00
C723   C     0.24424   0.16762   0.91059   0.00000  Uiso   1.00
C724   C     0.09054   0.17583   0.58875   0.00000  Uiso   1.00
C725   C     0.22021   0.18944   0.94923   0.00000  Uiso   1.00
C726   C     0.10417   0.18085   0.54130   0.00000  Uiso   1.00
C727   C     0.24830   0.21594   0.96807   0.00000  Uiso   1.00
C728   C     0.07155   0.16681   0.51804   0.00000  Uiso   1.00
C729   C     0.16939   0.18497   0.97033   0.00000  Uiso   1.00
C730   C     0.15088   0.19651   0.51609   0.00000  Uiso   1.00
C731   C     0.17877   0.22499   0.53372   0.00000  Uiso   1.00
C732   C     0.13566   0.17232   0.94696   0.00000  Uiso   1.00
C733   C     0.22713   0.23387   0.50956   0.00000  Uiso   1.00
C734   C     0.08719   0.16423   0.97107   0.00000  Uiso   1.00
H735   H     0.24793   0.25602   0.52274   0.00000  Uiso   1.00
H736   H     0.06176   0.15541   0.95276   0.00000  Uiso   1.00
C737   C     0.29467   0.02097   0.77766   0.00000  Uiso   1.00
C738   C     0.03864   0.31244   0.72194   0.00000  Uiso   1.00
H739   H     0.26593   0.03733   0.80072   0.00000  Uiso   1.00
H740   H     0.06737   0.29606   0.69889   0.00000  Uiso   1.00
C741   C     0.29426   0.31142   0.78044   0.00000  Uiso   1.00
C742   C     0.03889   0.02202   0.71895   0.00000  Uiso   1.00
C743   C     0.00017   0.29047   0.75217   0.00000  Uiso   1.00
C744   C     0.33316   0.04293   0.74751   0.00000  Uiso   1.00
C745   C     0.18413   0.13429   0.76905   0.00000  Uiso   1.00
C746   C     0.14922   0.19904   0.73091   0.00000  Uiso   1.00
C747   C     0.13480   0.13485   0.76953   0.00000  Uiso   1.00
C748   C     0.19856   0.19846   0.73041   0.00000  Uiso   1.00
N749   N     0.11736   0.16668   0.74999   0.00000  Uiso   1.00
N750   N     0.21597   0.16666   0.75001   0.00000  Uiso   1.00
F751   F     0.12525   0.17820   0.61047   0.00000  Uiso   1.00
F752   F     0.22346   0.13307   0.89936   0.00000  Uiso   1.00
N753   N     0.29392   0.13921   0.61215   0.00000  Uiso   1.00
O754   O     0.28737   0.10588   0.63765   0.00000  Uiso   1.00
O755   O     0.25709   0.15476   0.60178   0.00000  Uiso   1.00
N756   N     0.02932   0.22730   0.87386   0.00000  Uiso   1.00
O757   O     0.03473   0.26707   0.86668   0.00000  Uiso   1.00
O758   O     0.06737   0.20458   0.86329   0.00000  Uiso   1.00
F759   F     0.32324   0.25288   0.96101   0.00000  Uiso   1.00
F760   F     0.32551   0.14234   0.51936   0.00000  Uiso   1.00
N761   N     0.15683   0.25034   0.57156   0.00000  Uiso   1.00
O762   O     0.11325   0.26373   0.57721   0.00000  Uiso   1.00
O763   O     0.18321   0.26639   0.59510   0.00000  Uiso   1.00
N764   N     0.14782   0.17307   0.89853   0.00000  Uiso   1.00
O765   O     0.17076   0.20500   0.87519   0.00000  Uiso   1.00
O766   O     0.12991   0.14471   0.87822   0.00000  Uiso   1.00
N767   N     0.25488   0.28999   0.81308   0.00000  Uiso   1.00
O768   O     0.26346   0.25979   0.83777   0.00000  Uiso   1.00
O769   O     0.21136   0.30440   0.82285   0.00000  Uiso   1.00
N770   N     0.07775   0.04351   0.68572   0.00000  Uiso   1.00
O771   O     0.06864   0.07413   0.66181   0.00000  Uiso   1.00
O772   O     0.12120   0.02886   0.67472   0.00000  Uiso   1.00
N773   N     0.20004   0.09839   0.78752   0.00000  Uiso   1.00
O774   O     0.19212   0.06223   0.77299   0.00000  Uiso   1.00
O775   O     0.21139   0.10058   0.82513   0.00000  Uiso   1.00
N776   N     0.13337   0.23485   0.71223   0.00000  Uiso   1.00
O777   O     0.14242   0.27121   0.72557   0.00000  Uiso   1.00
O778   O     0.12001   0.23210   0.67571   0.00000  Uiso   1.00
F779   F     0.10432   0.10370   0.79127   0.00000  Uiso   1.00
F780   F     0.22912   0.22951   0.70852   0.00000  Uiso   1.00
O781   O     0.37291   0.10655   0.75000   0.00000  Uiso   1.00
O782   O     0.62709   0.22678   0.75000   0.00000  Uiso   1.00
O783   O     0.62706   0.10654   0.75001   0.00000  Uiso   1.00
O784   O     0.37294   0.22679   0.74999   0.00000  Uiso   1.00
C785   C     0.66666   0.08755   0.74888   0.00000  Uiso   1.00
C786   C     0.33336   0.24581   0.75102   0.00000  Uiso   1.00
O787   O     0.35186   0.16668   0.81491   0.00000  Uiso   1.00
O788   O     0.64814   0.16666   0.68509   0.00000  Uiso   1.00
O789   O     0.60600   0.16667   0.81492   0.00000  Uiso   1.00
O790   O     0.39400   0.16667   0.68508   0.00000  Uiso   1.00
C791   C     0.63923   0.16884   0.83610   0.00000  Uiso   1.00
C792   C     0.36091   0.16563   0.66358   0.00000  Uiso   1.00
Cu793  Cu    0.38022   0.16667   0.75000   0.00000  Uiso   1.00
Cu794  Cu    0.61978   0.16666   0.75000   0.00000  Uiso   1.00
C795   C     0.62410   0.18015   0.88416   0.00000  Uiso   1.00
C796   C     0.37579   0.16469   0.61333   0.00000  Uiso   1.00
C797   C     0.62998   0.22589   0.94401   0.00000  Uiso   1.00
C798   C     0.35720   0.15488   0.54197   0.00000  Uiso   1.00
C799   C     0.65044   0.21010   0.90104   0.00000  Uiso   1.00
C800   C     0.34221   0.15408   0.58929   0.00000  Uiso   1.00
C801   C     0.57757   0.16762   0.91059   0.00000  Uiso   1.00
C802   C     0.42388   0.17583   0.58875   0.00000  Uiso   1.00
C803   C     0.55354   0.18944   0.94923   0.00000  Uiso   1.00
C804   C     0.43750   0.18085   0.54130   0.00000  Uiso   1.00
C805   C     0.58164   0.21594   0.96807   0.00000  Uiso   1.00
C806   C     0.40488   0.16681   0.51804   0.00000  Uiso   1.00
C807   C     0.50273   0.18497   0.97033   0.00000  Uiso   1.00
C808   C     0.48421   0.19651   0.51609   0.00000  Uiso   1.00
C809   C     0.51210   0.22499   0.53372   0.00000  Uiso   1.00
C810   C     0.46899   0.17232   0.94696   0.00000  Uiso   1.00
C811   C     0.56047   0.23387   0.50956   0.00000  Uiso   1.00
C812   C     0.42053   0.16423   0.97107   0.00000  Uiso   1.00
H813   H     0.58127   0.25602   0.52274   0.00000  Uiso   1.00
H814   H     0.39509   0.15541   0.95276   0.00000  Uiso   1.00
C815   C     0.62800   0.02097   0.77766   0.00000  Uiso   1.00
C816   C     0.37198   0.31244   0.72194   0.00000  Uiso   1.00
H817   H     0.59927   0.03733   0.80072   0.00000  Uiso   1.00
H818   H     0.40070   0.29606   0.69889   0.00000  Uiso   1.00
C819   C     0.62759   0.31142   0.78044   0.00000  Uiso   1.00
C820   C     0.37222   0.02202   0.71895   0.00000  Uiso   1.00
C821   C     0.33351   0.29047   0.75217   0.00000  Uiso   1.00
C822   C     0.66649   0.04293   0.74751   0.00000  Uiso   1.00
C823   C     0.51747   0.13429   0.76905   0.00000  Uiso   1.00
C824   C     0.48256   0.19904   0.73091   0.00000  Uiso   1.00
C825   C     0.46813   0.13485   0.76953   0.00000  Uiso   1.00
C826   C     0.53190   0.19846   0.73041   0.00000  Uiso   1.00
N827   N     0.45069   0.16668   0.74999   0.00000  Uiso   1.00
N828   N     0.54931   0.16666   0.75001   0.00000  Uiso   1.00
F829   F     0.45858   0.17820   0.61047   0.00000  Uiso   1.00
F830   F     0.55679   0.13307   0.89936   0.00000  Uiso   1.00
N831   N     0.62725   0.13921   0.61215   0.00000  Uiso   1.00
O832   O     0.62070   0.10588   0.63765   0.00000  Uiso   1.00
O833   O     0.59043   0.15476   0.60178   0.00000  Uiso   1.00
N834   N     0.36266   0.22730   0.87386   0.00000  Uiso   1.00
O835   O     0.36806   0.26707   0.86668   0.00000  Uiso   1.00
O836   O     0.40071   0.20458   0.86329   0.00000  Uiso   1.00
F837   F     0.65657   0.25288   0.96101   0.00000  Uiso   1.00
F838   F     0.65884   0.14234   0.51936   0.00000  Uiso   1.00
N839   N     0.49016   0.25034   0.57156   0.00000  Uiso   1.00
O840   O     0.44659   0.26373   0.57721   0.00000  Uiso   1.00
O841   O     0.51655   0.26639   0.59510   0.00000  Uiso   1.00
N842   N     0.48115   0.17307   0.89853   0.00000  Uiso   1.00
O843   O     0.50410   0.20500   0.87519   0.00000  Uiso   1.00
O844   O     0.46324   0.14471   0.87822   0.00000  Uiso   1.00
N845   N     0.58821   0.28999   0.81308   0.00000  Uiso   1.00
O846   O     0.59679   0.25979   0.83777   0.00000  Uiso   1.00
O847   O     0.54469   0.30440   0.82285   0.00000  Uiso   1.00
N848   N     0.41109   0.04351   0.68572   0.00000  Uiso   1.00
O849   O     0.40197   0.07413   0.66181   0.00000  Uiso   1.00
O850   O     0.45453   0.02886   0.67472   0.00000  Uiso   1.00
N851   N     0.53337   0.09839   0.78752   0.00000  Uiso   1.00
O852   O     0.52546   0.06223   0.77299   0.00000  Uiso   1.00
O853   O     0.54472   0.10058   0.82513   0.00000  Uiso   1.00
N854   N     0.46670   0.23485   0.71223   0.00000  Uiso   1.00
O855   O     0.47576   0.27121   0.72557   0.00000  Uiso   1.00
O856   O     0.45334   0.23210   0.67571   0.00000  Uiso   1.00
F857   F     0.43765   0.10370   0.79127   0.00000  Uiso   1.00
F858   F     0.56245   0.22951   0.70852   0.00000  Uiso   1.00
O859   O     0.70625   0.10655   0.75000   0.00000  Uiso   1.00
O860   O     0.96042   0.22678   0.75000   0.00000  Uiso   1.00
O861   O     0.96039   0.10654   0.75001   0.00000  Uiso   1.00
O862   O     0.70628   0.22679   0.74999   0.00000  Uiso   1.00
C863   C     0.99999   0.08755   0.74888   0.00000  Uiso   1.00
C864   C     0.66670   0.24581   0.75102   0.00000  Uiso   1.00
O865   O     0.68519   0.16668   0.81491   0.00000  Uiso   1.00
O866   O     0.98148   0.16666   0.68509   0.00000  Uiso   1.00
O867   O     0.93933   0.16667   0.81492   0.00000  Uiso   1.00
O868   O     0.72733   0.16667   0.68508   0.00000  Uiso   1.00
C869   C     0.97256   0.16884   0.83610   0.00000  Uiso   1.00
C870   C     0.69424   0.16563   0.66358   0.00000  Uiso   1.00
Cu871  Cu    0.71355   0.16667   0.75000   0.00000  Uiso   1.00
Cu872  Cu    0.95311   0.16666   0.75000   0.00000  Uiso   1.00
C873   C     0.95744   0.18015   0.88416   0.00000  Uiso   1.00
C874   C     0.70913   0.16469   0.61333   0.00000  Uiso   1.00
C875   C     0.96331   0.22589   0.94401   0.00000  Uiso   1.00
C876   C     0.69054   0.15488   0.54197   0.00000  Uiso   1.00
C877   C     0.98377   0.21010   0.90104   0.00000  Uiso   1.00
C878   C     0.67554   0.15408   0.58929   0.00000  Uiso   1.00
C879   C     0.91090   0.16762   0.91059   0.00000  Uiso   1.00
C880   C     0.75721   0.17583   0.58875   0.00000  Uiso   1.00
C881   C     0.88687   0.18944   0.94923   0.00000  Uiso   1.00
C882   C     0.77084   0.18085   0.54130   0.00000  Uiso   1.00
C883   C     0.91497   0.21594   0.96807   0.00000  Uiso   1.00
C884   C     0.73822   0.16681   0.51804   0.00000  Uiso   1.00
C885   C     0.83606   0.18497   0.97033   0.00000  Uiso   1.00
C886   C     0.81755   0.19651   0.51609   0.00000  Uiso   1.00
C887   C     0.84543   0.22499   0.53372   0.00000  Uiso   1.00
C888   C     0.80233   0.17232   0.94696   0.00000  Uiso   1.00
C889   C     0.89380   0.23387   0.50956   0.00000  Uiso   1.00
C890   C     0.75386   0.16423   0.97107   0.00000  Uiso   1.00
H891   H     0.91460   0.25602   0.52274   0.00000  Uiso   1.00
H892   H     0.72842   0.15541   0.95276   0.00000  Uiso   1.00
C893   C     0.96134   0.02097   0.77766   0.00000  Uiso   1.00
C894   C     0.70531   0.31244   0.72194   0.00000  Uiso   1.00
H895   H     0.93260   0.03733   0.80072   0.00000  Uiso   1.00
H896   H     0.73404   0.29606   0.69889   0.00000  Uiso   1.00
C897   C     0.96093   0.31142   0.78044   0.00000  Uiso   1.00
C898   C     0.70556   0.02202   0.71895   0.00000  Uiso   1.00
C899   C     0.66684   0.29047   0.75217   0.00000  Uiso   1.00
C900   C     0.99983   0.04293   0.74751   0.00000  Uiso   1.00
C901   C     0.85080   0.13429   0.76905   0.00000  Uiso   1.00
C902   C     0.81589   0.19904   0.73091   0.00000  Uiso   1.00
C903   C     0.80147   0.13485   0.76953   0.00000  Uiso   1.00
C904   C     0.86523   0.19846   0.73041   0.00000  Uiso   1.00
N905   N     0.78403   0.16668   0.74999   0.00000  Uiso   1.00
N906   N     0.88264   0.16666   0.75001   0.00000  Uiso   1.00
F907   F     0.79191   0.17820   0.61047   0.00000  Uiso   1.00
F908   F     0.89013   0.13307   0.89936   0.00000  Uiso   1.00
N909   N     0.96058   0.13921   0.61215   0.00000  Uiso   1.00
O910   O     0.95404   0.10588   0.63765   0.00000  Uiso   1.00
O911   O     0.92376   0.15476   0.60178   0.00000  Uiso   1.00
N912   N     0.69599   0.22730   0.87386   0.00000  Uiso   1.00
O913   O     0.70139   0.26707   0.86668   0.00000  Uiso   1.00
O914   O     0.73404   0.20458   0.86329   0.00000  Uiso   1.00
F915   F     0.98991   0.25288   0.96101   0.00000  Uiso   1.00
F916   F     0.99218   0.14234   0.51936   0.00000  Uiso   1.00
N917   N     0.82349   0.25034   0.57156   0.00000  Uiso   1.00
O918   O     0.77992   0.26373   0.57721   0.00000  Uiso   1.00
O919   O     0.84988   0.26639   0.59510   0.00000  Uiso   1.00
N920   N     0.81448   0.17307   0.89853   0.00000  Uiso   1.00
O921   O     0.83743   0.20500   0.87519   0.00000  Uiso   1.00
O922   O     0.79658   0.14471   0.87822   0.00000  Uiso   1.00
N923   N     0.92155   0.28999   0.81308   0.00000  Uiso   1.00
O924   O     0.93012   0.25979   0.83777   0.00000  Uiso   1.00
O925   O     0.87803   0.30440   0.82285   0.00000  Uiso   1.00
N926   N     0.74442   0.04351   0.68572   0.00000  Uiso   1.00
O927   O     0.73530   0.07413   0.66181   0.00000  Uiso   1.00
O928   O     0.78786   0.02886   0.67472   0.00000  Uiso   1.00
N929   N     0.86671   0.09839   0.78752   0.00000  Uiso   1.00
O930   O     0.85879   0.06223   0.77299   0.00000  Uiso   1.00
O931   O     0.87805   0.10058   0.82513   0.00000  Uiso   1.00
N932   N     0.80003   0.23485   0.71223   0.00000  Uiso   1.00
O933   O     0.80909   0.27121   0.72557   0.00000  Uiso   1.00
O934   O     0.78667   0.23210   0.67571   0.00000  Uiso   1.00
F935   F     0.77099   0.10370   0.79127   0.00000  Uiso   1.00
F936   F     0.89578   0.22951   0.70852   0.00000  Uiso   1.00
O937   O     0.03958   0.43989   0.75000   0.00000  Uiso   1.00
O938   O     0.29375   0.56011   0.75000   0.00000  Uiso   1.00
O939   O     0.29372   0.43988   0.75001   0.00000  Uiso   1.00
O940   O     0.03961   0.56012   0.74999   0.00000  Uiso   1.00
C941   C     0.33332   0.42089   0.74888   0.00000  Uiso   1.00
C942   C     0.00003   0.57914   0.75102   0.00000  Uiso   1.00
O943   O     0.01852   0.50001   0.81491   0.00000  Uiso   1.00
O944   O     0.31481   0.49999   0.68509   0.00000  Uiso   1.00
O945   O     0.27267   0.50000   0.81492   0.00000  Uiso   1.00
O946   O     0.06067   0.50000   0.68508   0.00000  Uiso   1.00
C947   C     0.30589   0.50217   0.83610   0.00000  Uiso   1.00
C948   C     0.02758   0.49897   0.66358   0.00000  Uiso   1.00
Cu949  Cu    0.04689   0.50001   0.75000   0.00000  Uiso   1.00
Cu950  Cu    0.28645   0.49999   0.75000   0.00000  Uiso   1.00
C951   C     0.29077   0.51348   0.88416   0.00000  Uiso   1.00
C952   C     0.04246   0.49802   0.61333   0.00000  Uiso   1.00
C953   C     0.29665   0.55922   0.94401   0.00000  Uiso   1.00
C954   C     0.02387   0.48822   0.54197   0.00000  Uiso   1.00
C955   C     0.31710   0.54344   0.90104   0.00000  Uiso   1.00
C956   C     0.00887   0.48741   0.58929   0.00000  Uiso   1.00
C957   C     0.24424   0.50096   0.91059   0.00000  Uiso   1.00
C958   C     0.09054   0.50916   0.58875   0.00000  Uiso   1.00
C959   C     0.22021   0.52277   0.94923   0.00000  Uiso   1.00
C960   C     0.10417   0.51418   0.54130   0.00000  Uiso   1.00
C961   C     0.24830   0.54928   0.96807   0.00000  Uiso   1.00
C962   C     0.07155   0.50014   0.51804   0.00000  Uiso   1.00
C963   C     0.16939   0.51830   0.97033   0.00000  Uiso   1.00
C964   C     0.15088   0.52984   0.51609   0.00000  Uiso   1.00
C965   C     0.17877   0.55832   0.53372   0.00000  Uiso   1.00
C966   C     0.13566   0.50565   0.94696   0.00000  Uiso   1.00
C967   C     0.22713   0.56720   0.50956   0.00000  Uiso   1.00
C968   C     0.08719   0.49757   0.97107   0.00000  Uiso   1.00
H969   H     0.24793   0.58935   0.52274   0.00000  Uiso   1.00
H970   H     0.06176   0.48875   0.95276   0.00000  Uiso   1.00
C971   C     0.29467   0.35431   0.77766   0.00000  Uiso   1.00
C972   C     0.03864   0.64577   0.72194   0.00000  Uiso   1.00
H973   H     0.26593   0.37066   0.80072   0.00000  Uiso   1.00
H974   H     0.06737   0.62940   0.69889   0.00000  Uiso   1.00
C975   C     0.29426   0.64476   0.78044   0.00000  Uiso   1.00
C976   C     0.03889   0.35535   0.71895   0.00000  Uiso   1.00
C977   C     0.00017   0.62380   0.75217   0.00000  Uiso   1.00
C978   C     0.33316   0.37627   0.74751   0.00000  Uiso   1.00
C979   C     0.18413   0.46762   0.76905   0.00000  Uiso   1.00
C980   C     0.14922   0.53237   0.73091   0.00000  Uiso   1.00
C981   C     0.13480   0.46818   0.76953   0.00000  Uiso   1.00
C982   C     0.19856   0.53179   0.73041   0.00000  Uiso   1.00
N983   N     0.11736   0.50001   0.74999   0.00000  Uiso   1.00
N984   N     0.21597   0.49999   0.75001   0.00000  Uiso   1.00
F985   F     0.12525   0.51153   0.61047   0.00000  Uiso   1.00
F986   F     0.22346   0.46640   0.89936   0.00000  Uiso   1.00
N987   N     0.29392   0.47254   0.61215   0.00000  Uiso   1.00
O988   O     0.28737   0.43921   0.63765   0.00000  Uiso   1.00
O989   O     0.25709   0.48809   0.60178   0.00000  Uiso   1.00
N990   N     0.02932   0.56063   0.87386   0.00000  Uiso   1.00
O991   O     0.03473   0.60041   0.86668   0.00000  Uiso   1.00
O992   O     0.06737   0.53792   0.86329   0.00000  Uiso   1.00
F993   F     0.32324   0.58621   0.96101   0.00000  Uiso   1.00
F994   F     0.32551   0.47567   0.51936   0.00000  Uiso   1.00
N995   N     0.15683   0.58367   0.57156   0.00000  Uiso   1.00
O996   O     0.11325   0.59707   0.57721   0.00000  Uiso   1.00
O997   O     0.18321   0.59973   0.59510   0.00000  Uiso   1.00
N998   N     0.14782   0.50641   0.89853   0.00000  Uiso   1.00
O999   O     0.17076   0.53834   0.87519   0.00000  Uiso   1.00
O1000  O     0.12991   0.47804   0.87822   0.00000  Uiso   1.00
N1001  N     0.25488   0.62333   0.81308   0.00000  Uiso   1.00
O1002  O     0.26346   0.59313   0.83777   0.00000  Uiso   1.00
O1003  O     0.21136   0.63774   0.82285   0.00000  Uiso   1.00
N1004  N     0.07775   0.37684   0.68572   0.00000  Uiso   1.00
O1005  O     0.06864   0.40746   0.66181   0.00000  Uiso   1.00
O1006  O     0.12120   0.36219   0.67472   0.00000  Uiso   1.00
N1007  N     0.20004   0.43172   0.78752   0.00000  Uiso   1.00
O1008  O     0.19212   0.39557   0.77299   0.00000  Uiso   1.00
O1009  O     0.21139   0.43391   0.82513   0.00000  Uiso   1.00
N1010  N     0.13337   0.56818   0.71223   0.00000  Uiso   1.00
O1011  O     0.14242   0.60454   0.72557   0.00000  Uiso   1.00
O1012  O     0.12001   0.56543   0.67571   0.00000  Uiso   1.00
F1013  F     0.10432   0.43703   0.79127   0.00000  Uiso   1.00
F1014  F     0.22912   0.56284   0.70852   0.00000  Uiso   1.00
O1015  O     0.37291   0.43989   0.75000   0.00000  Uiso   1.00
O1016  O     0.62709   0.56011   0.75000   0.00000  Uiso   1.00
O1017  O     0.62706   0.43988   0.75001   0.00000  Uiso   1.00
O1018  O     0.37294   0.56012   0.74999   0.00000  Uiso   1.00
C1019  C     0.66666   0.42089   0.74888   0.00000  Uiso   1.00
C1020  C     0.33336   0.57914   0.75102   0.00000  Uiso   1.00
O1021  O     0.35186   0.50001   0.81491   0.00000  Uiso   1.00
O1022  O     0.64814   0.49999   0.68509   0.00000  Uiso   1.00
O1023  O     0.60600   0.50000   0.81492   0.00000  Uiso   1.00
O1024  O     0.39400   0.50000   0.68508   0.00000  Uiso   1.00
C1025  C     0.63923   0.50217   0.83610   0.00000  Uiso   1.00
C1026  C     0.36091   0.49897   0.66358   0.00000  Uiso   1.00
Cu1027 Cu    0.38022   0.50001   0.75000   0.00000  Uiso   1.00
Cu1028 Cu    0.61978   0.49999   0.75000   0.00000  Uiso   1.00
C1029  C     0.62410   0.51348   0.88416   0.00000  Uiso   1.00
C1030  C     0.37579   0.49802   0.61333   0.00000  Uiso   1.00
C1031  C     0.62998   0.55922   0.94401   0.00000  Uiso   1.00
C1032  C     0.35720   0.48822   0.54197   0.00000  Uiso   1.00
C1033  C     0.65044   0.54344   0.90104   0.00000  Uiso   1.00
C1034  C     0.34221   0.48741   0.58929   0.00000  Uiso   1.00
C1035  C     0.57757   0.50096   0.91059   0.00000  Uiso   1.00
C1036  C     0.42388   0.50916   0.58875   0.00000  Uiso   1.00
C1037  C     0.55354   0.52277   0.94923   0.00000  Uiso   1.00
C1038  C     0.43750   0.51418   0.54130   0.00000  Uiso   1.00
C1039  C     0.58164   0.54928   0.96807   0.00000  Uiso   1.00
C1040  C     0.40488   0.50014   0.51804   0.00000  Uiso   1.00
C1041  C     0.50273   0.51830   0.97033   0.00000  Uiso   1.00
C1042  C     0.48421   0.52984   0.51609   0.00000  Uiso   1.00
C1043  C     0.51210   0.55832   0.53372   0.00000  Uiso   1.00
C1044  C     0.46899   0.50565   0.94696   0.00000  Uiso   1.00
C1045  C     0.56047   0.56720   0.50956   0.00000  Uiso   1.00
C1046  C     0.42053   0.49757   0.97107   0.00000  Uiso   1.00
H1047  H     0.58127   0.58935   0.52274   0.00000  Uiso   1.00
H1048  H     0.39509   0.48875   0.95276   0.00000  Uiso   1.00
C1049  C     0.62800   0.35431   0.77766   0.00000  Uiso   1.00
C1050  C     0.37198   0.64577   0.72194   0.00000  Uiso   1.00
H1051  H     0.59927   0.37066   0.80072   0.00000  Uiso   1.00
H1052  H     0.40070   0.62940   0.69889   0.00000  Uiso   1.00
C1053  C     0.62759   0.64476   0.78044   0.00000  Uiso   1.00
C1054  C     0.37222   0.35535   0.71895   0.00000  Uiso   1.00
C1055  C     0.33351   0.62380   0.75217   0.00000  Uiso   1.00
C1056  C     0.66649   0.37627   0.74751   0.00000  Uiso   1.00
C1057  C     0.51747   0.46762   0.76905   0.00000  Uiso   1.00
C1058  C     0.48256   0.53237   0.73091   0.00000  Uiso   1.00
C1059  C     0.46813   0.46818   0.76953   0.00000  Uiso   1.00
C1060  C     0.53190   0.53179   0.73041   0.00000  Uiso   1.00
N1061  N     0.45069   0.50001   0.74999   0.00000  Uiso   1.00
N1062  N     0.54931   0.49999   0.75001   0.00000  Uiso   1.00
F1063  F     0.45858   0.51153   0.61047   0.00000  Uiso   1.00
F1064  F     0.55679   0.46640   0.89936   0.00000  Uiso   1.00
N1065  N     0.62725   0.47254   0.61215   0.00000  Uiso   1.00
O1066  O     0.62070   0.43921   0.63765   0.00000  Uiso   1.00
O1067  O     0.59043   0.48809   0.60178   0.00000  Uiso   1.00
N1068  N     0.36266   0.56063   0.87386   0.00000  Uiso   1.00
O1069  O     0.36806   0.60041   0.86668   0.00000  Uiso   1.00
O1070  O     0.40071   0.53792   0.86329   0.00000  Uiso   1.00
F1071  F     0.65657   0.58621   0.96101   0.00000  Uiso   1.00
F1072  F     0.65884   0.47567   0.51936   0.00000  Uiso   1.00
N1073  N     0.49016   0.58367   0.57156   0.00000  Uiso   1.00
O1074  O     0.44659   0.59707   0.57721   0.00000  Uiso   1.00
O1075  O     0.51655   0.59973   0.59510   0.00000  Uiso   1.00
N1076  N     0.48115   0.50641   0.89853   0.00000  Uiso   1.00
O1077  O     0.50410   0.53834   0.87519   0.00000  Uiso   1.00
O1078  O     0.46324   0.47804   0.87822   0.00000  Uiso   1.00
N1079  N     0.58821   0.62333   0.81308   0.00000  Uiso   1.00
O1080  O     0.59679   0.59313   0.83777   0.00000  Uiso   1.00
O1081  O     0.54469   0.63774   0.82285   0.00000  Uiso   1.00
N1082  N     0.41109   0.37684   0.68572   0.00000  Uiso   1.00
O1083  O     0.40197   0.40746   0.66181   0.00000  Uiso   1.00
O1084  O     0.45453   0.36219   0.67472   0.00000  Uiso   1.00
N1085  N     0.53337   0.43172   0.78752   0.00000  Uiso   1.00
O1086  O     0.52546   0.39557   0.77299   0.00000  Uiso   1.00
O1087  O     0.54472   0.43391   0.82513   0.00000  Uiso   1.00
N1088  N     0.46670   0.56818   0.71223   0.00000  Uiso   1.00
O1089  O     0.47576   0.60454   0.72557   0.00000  Uiso   1.00
O1090  O     0.45334   0.56543   0.67571   0.00000  Uiso   1.00
F1091  F     0.43765   0.43703   0.79127   0.00000  Uiso   1.00
F1092  F     0.56245   0.56284   0.70852   0.00000  Uiso   1.00
O1093  O     0.70625   0.43989   0.75000   0.00000  Uiso   1.00
O1094  O     0.96042   0.56011   0.75000   0.00000  Uiso   1.00
O1095  O     0.96039   0.43988   0.75001   0.00000  Uiso   1.00
O1096  O     0.70628   0.56012   0.74999   0.00000  Uiso   1.00
C1097  C     0.99999   0.42089   0.74888   0.00000  Uiso   1.00
C1098  C     0.66670   0.57914   0.75102   0.00000  Uiso   1.00
O1099  O     0.68519   0.50001   0.81491   0.00000  Uiso   1.00
O1100  O     0.98148   0.49999   0.68509   0.00000  Uiso   1.00
O1101  O     0.93933   0.50000   0.81492   0.00000  Uiso   1.00
O1102  O     0.72733   0.50000   0.68508   0.00000  Uiso   1.00
C1103  C     0.97256   0.50217   0.83610   0.00000  Uiso   1.00
C1104  C     0.69424   0.49897   0.66358   0.00000  Uiso   1.00
Cu1105 Cu    0.71355   0.50001   0.75000   0.00000  Uiso   1.00
Cu1106 Cu    0.95311   0.49999   0.75000   0.00000  Uiso   1.00
C1107  C     0.95744   0.51348   0.88416   0.00000  Uiso   1.00
C1108  C     0.70913   0.49802   0.61333   0.00000  Uiso   1.00
C1109  C     0.96331   0.55922   0.94401   0.00000  Uiso   1.00
C1110  C     0.69054   0.48822   0.54197   0.00000  Uiso   1.00
C1111  C     0.98377   0.54344   0.90104   0.00000  Uiso   1.00
C1112  C     0.67554   0.48741   0.58929   0.00000  Uiso   1.00
C1113  C     0.91090   0.50096   0.91059   0.00000  Uiso   1.00
C1114  C     0.75721   0.50916   0.58875   0.00000  Uiso   1.00
C1115  C     0.88687   0.52277   0.94923   0.00000  Uiso   1.00
C1116  C     0.77084   0.51418   0.54130   0.00000  Uiso   1.00
C1117  C     0.91497   0.54928   0.96807   0.00000  Uiso   1.00
C1118  C     0.73822   0.50014   0.51804   0.00000  Uiso   1.00
C1119  C     0.83606   0.51830   0.97033   0.00000  Uiso   1.00
C1120  C     0.81755   0.52984   0.51609   0.00000  Uiso   1.00
C1121  C     0.84543   0.55832   0.53372   0.00000  Uiso   1.00
C1122  C     0.80233   0.50565   0.94696   0.00000  Uiso   1.00
C1123  C     0.89380   0.56720   0.50956   0.00000  Uiso   1.00
C1124  C     0.75386   0.49757   0.97107   0.00000  Uiso   1.00
H1125  H     0.91460   0.58935   0.52274   0.00000  Uiso   1.00
H1126  H     0.72842   0.48875   0.95276   0.00000  Uiso   1.00
C1127  C     0.96134   0.35431   0.77766   0.00000  Uiso   1.00
C1128  C     0.70531   0.64577   0.72194   0.00000  Uiso   1.00
H1129  H     0.93260   0.37066   0.80072   0.00000  Uiso   1.00
H1130  H     0.73404   0.62940   0.69889   0.00000  Uiso   1.00
C1131  C     0.96093   0.64476   0.78044   0.00000  Uiso   1.00
C1132  C     0.70556   0.35535   0.71895   0.00000  Uiso   1.00
C1133  C     0.66684   0.62380   0.75217   0.00000  Uiso   1.00
C1134  C     0.99983   0.37627   0.74751   0.00000  Uiso   1.00
C1135  C     0.85080   0.46762   0.76905   0.00000  Uiso   1.00
C1136  C     0.81589   0.53237   0.73091   0.00000  Uiso   1.00
C1137  C     0.80147   0.46818   0.76953   0.00000  Uiso   1.00
C1138  C     0.86523   0.53179   0.73041   0.00000  Uiso   1.00
N1139  N     0.78403   0.50001   0.74999   0.00000  Uiso   1.00
N1140  N     0.88264   0.49999   0.75001   0.00000  Uiso   1.00
F1141  F     0.79191   0.51153   0.61047   0.00000  Uiso   1.00
F1142  F     0.89013   0.46640   0.89936   0.00000  Uiso   1.00
N1143  N     0.96058   0.47254   0.61215   0.00000  Uiso   1.00
O1144  O     0.95404   0.43921   0.63765   0.00000  Uiso   1.00
O1145  O     0.92376   0.48809   0.60178   0.00000  Uiso   1.00
N1146  N     0.69599   0.56063   0.87386   0.00000  Uiso   1.00
O1147  O     0.70139   0.60041   0.86668   0.00000  Uiso   1.00
O1148  O     0.73404   0.53792   0.86329   0.00000  Uiso   1.00
F1149  F     0.98991   0.58621   0.96101   0.00000  Uiso   1.00
F1150  F     0.99218   0.47567   0.51936   0.00000  Uiso   1.00
N1151  N     0.82349   0.58367   0.57156   0.00000  Uiso   1.00
O1152  O     0.77992   0.59707   0.57721   0.00000  Uiso   1.00
O1153  O     0.84988   0.59973   0.59510   0.00000  Uiso   1.00
N1154  N     0.81448   0.50641   0.89853   0.00000  Uiso   1.00
O1155  O     0.83743   0.53834   0.87519   0.00000  Uiso   1.00
O1156  O     0.79658   0.47804   0.87822   0.00000  Uiso   1.00
N1157  N     0.92155   0.62333   0.81308   0.00000  Uiso   1.00
O1158  O     0.93012   0.59313   0.83777   0.00000  Uiso   1.00
O1159  O     0.87803   0.63774   0.82285   0.00000  Uiso   1.00
N1160  N     0.74442   0.37684   0.68572   0.00000  Uiso   1.00
O1161  O     0.73530   0.40746   0.66181   0.00000  Uiso   1.00
O1162  O     0.78786   0.36219   0.67472   0.00000  Uiso   1.00
N1163  N     0.86671   0.43172   0.78752   0.00000  Uiso   1.00
O1164  O     0.85879   0.39557   0.77299   0.00000  Uiso   1.00
O1165  O     0.87805   0.43391   0.82513   0.00000  Uiso   1.00
N1166  N     0.80003   0.56818   0.71223   0.00000  Uiso   1.00
O1167  O     0.80909   0.60454   0.72557   0.00000  Uiso   1.00
O1168  O     0.78667   0.56543   0.67571   0.00000  Uiso   1.00
F1169  F     0.77099   0.43703   0.79127   0.00000  Uiso   1.00
F1170  F     0.89578   0.56284   0.70852   0.00000  Uiso   1.00
O1171  O     0.03958   0.77322   0.75000   0.00000  Uiso   1.00
O1172  O     0.29375   0.89345   0.75000   0.00000  Uiso   1.00
O1173  O     0.29372   0.77321   0.75001   0.00000  Uiso   1.00
O1174  O     0.03961   0.89346   0.74999   0.00000  Uiso   1.00
C1175  C     0.33332   0.75422   0.74888   0.00000  Uiso   1.00
C1176  C     0.00003   0.91247   0.75102   0.00000  Uiso   1.00
O1177  O     0.01852   0.83334   0.81491   0.00000  Uiso   1.00
O1178  O     0.31481   0.83332   0.68509   0.00000  Uiso   1.00
O1179  O     0.27267   0.83333   0.81492   0.00000  Uiso   1.00
O1180  O     0.06067   0.83333   0.68508   0.00000  Uiso   1.00
C1181  C     0.30589   0.83550   0.83610   0.00000  Uiso   1.00
C1182  C     0.02758   0.83230   0.66358   0.00000  Uiso   1.00
Cu1183 Cu    0.04689   0.83334   0.75000   0.00000  Uiso   1.00
Cu1184 Cu    0.28645   0.83333   0.75000   0.00000  Uiso   1.00
C1185  C     0.29077   0.84681   0.88416   0.00000  Uiso   1.00
C1186  C     0.04246   0.83135   0.61333   0.00000  Uiso   1.00
C1187  C     0.29665   0.89255   0.94401   0.00000  Uiso   1.00
C1188  C     0.02387   0.82155   0.54197   0.00000  Uiso   1.00
C1189  C     0.31710   0.87677   0.90104   0.00000  Uiso   1.00
C1190  C     0.00887   0.82075   0.58929   0.00000  Uiso   1.00
C1191  C     0.24424   0.83429   0.91059   0.00000  Uiso   1.00
C1192  C     0.09054   0.84249   0.58875   0.00000  Uiso   1.00
C1193  C     0.22021   0.85610   0.94923   0.00000  Uiso   1.00
C1194  C     0.10417   0.84752   0.54130   0.00000  Uiso   1.00
C1195  C     0.24830   0.88261   0.96807   0.00000  Uiso   1.00
C1196  C     0.07155   0.83348   0.51804   0.00000  Uiso   1.00
C1197  C     0.16939   0.85163   0.97033   0.00000  Uiso   1.00
C1198  C     0.15088   0.86318   0.51609   0.00000  Uiso   1.00
C1199  C     0.17877   0.89165   0.53372   0.00000  Uiso   1.00
C1200  C     0.13566   0.83898   0.94696   0.00000  Uiso   1.00
C1201  C     0.22713   0.90053   0.50956   0.00000  Uiso   1.00
C1202  C     0.08719   0.83090   0.97107   0.00000  Uiso   1.00
H1203  H     0.24793   0.92268   0.52274   0.00000  Uiso   1.00
H1204  H     0.06176   0.82208   0.95276   0.00000  Uiso   1.00
C1205  C     0.29467   0.68764   0.77766   0.00000  Uiso   1.00
C1206  C     0.03864   0.97910   0.72194   0.00000  Uiso   1.00
H1207  H     0.26593   0.70400   0.80072   0.00000  Uiso   1.00
H1208  H     0.06737   0.96273   0.69889   0.00000  Uiso   1.00
C1209  C     0.29426   0.97809   0.78044   0.00000  Uiso   1.00
C1210  C     0.03889   0.68868   0.71895   0.00000  Uiso   1.00
C1211  C     0.00017   0.95713   0.75217   0.00000  Uiso   1.00
C1212  C     0.33316   0.70960   0.74751   0.00000  Uiso   1.00
C1213  C     0.18413   0.80096   0.76905   0.00000  Uiso   1.00
C1214  C     0.14922   0.86570   0.73091   0.00000  Uiso   1.00
C1215  C     0.13480   0.80151   0.76953   0.00000  Uiso   1.00
C1216  C     0.19856   0.86513   0.73041   0.00000  Uiso   1.00
N1217  N     0.11736   0.83334   0.74999   0.00000  Uiso   1.00
N1218  N     0.21597   0.83332   0.75001   0.00000  Uiso   1.00
F1219  F     0.12525   0.84487   0.61047   0.00000  Uiso   1.00
F1220  F     0.22346   0.79973   0.89936   0.00000  Uiso   1.00
N1221  N     0.29392   0.80587   0.61215   0.00000  Uiso   1.00
O1222  O     0.28737   0.77255   0.63765   0.00000  Uiso   1.00
O1223  O     0.25709   0.82142   0.60178   0.00000  Uiso   1.00
N1224  N     0.02932   0.89396   0.87386   0.00000  Uiso   1.00
O1225  O     0.03473   0.93374   0.86668   0.00000  Uiso   1.00
O1226  O     0.06737   0.87125   0.86329   0.00000  Uiso   1.00
F1227  F     0.32324   0.91954   0.96101   0.00000  Uiso   1.00
F1228  F     0.32551   0.80900   0.51936   0.00000  Uiso   1.00
N1229  N     0.15683   0.91701   0.57156   0.00000  Uiso   1.00
O1230  O     0.11325   0.93040   0.57721   0.00000  Uiso   1.00
O1231  O     0.18321   0.93306   0.59510   0.00000  Uiso   1.00
N1232  N     0.14782   0.83974   0.89853   0.00000  Uiso   1.00
O1233  O     0.17076   0.87167   0.87519   0.00000  Uiso   1.00
O1234  O     0.12991   0.81137   0.87822   0.00000  Uiso   1.00
N1235  N     0.25488   0.95666   0.81308   0.00000  Uiso   1.00
O1236  O     0.26346   0.92646   0.83777   0.00000  Uiso   1.00
O1237  O     0.21136   0.97107   0.82285   0.00000  Uiso   1.00
N1238  N     0.07775   0.71018   0.68572   0.00000  Uiso   1.00
O1239  O     0.06864   0.74079   0.66181   0.00000  Uiso   1.00
O1240  O     0.12120   0.69552   0.67472   0.00000  Uiso   1.00
N1241  N     0.20004   0.76506   0.78752   0.00000  Uiso   1.00
O1242  O     0.19212   0.72890   0.77299   0.00000  Uiso   1.00
O1243  O     0.21139   0.76724   0.82513   0.00000  Uiso   1.00
N1244  N     0.13337   0.90151   0.71223   0.00000  Uiso   1.00
O1245  O     0.14242   0.93788   0.72557   0.00000  Uiso   1.00
O1246  O     0.12001   0.89876   0.67571   0.00000  Uiso   1.00
F1247  F     0.10432   0.77036   0.79127   0.00000  Uiso   1.00
F1248  F     0.22912   0.89618   0.70852   0.00000  Uiso   1.00
O1249  O     0.37291   0.77322   0.75000   0.00000  Uiso   1.00
O1250  O     0.62709   0.89345   0.75000   0.00000  Uiso   1.00
O1251  O     0.62706   0.77321   0.75001   0.00000  Uiso   1.00
O1252  O     0.37294   0.89346   0.74999   0.00000  Uiso   1.00
C1253  C     0.66666   0.75422   0.74888   0.00000  Uiso   1.00
C1254  C     0.33336   0.91247   0.75102   0.00000  Uiso   1.00
O1255  O     0.35186   0.83334   0.81491   0.00000  Uiso   1.00
O1256  O     0.64814   0.83332   0.68509   0.00000  Uiso   1.00
O1257  O     0.60600   0.83333   0.81492   0.00000  Uiso   1.00
O1258  O     0.39400   0.83333   0.68508   0.00000  Uiso   1.00
C1259  C     0.63923   0.83550   0.83610   0.00000  Uiso   1.00
C1260  C     0.36091   0.83230   0.66358   0.00000  Uiso   1.00
Cu1261 Cu    0.38022   0.83334   0.75000   0.00000  Uiso   1.00
Cu1262 Cu    0.61978   0.83333   0.75000   0.00000  Uiso   1.00
C1263  C     0.62410   0.84681   0.88416   0.00000  Uiso   1.00
C1264  C     0.37579   0.83135   0.61333   0.00000  Uiso   1.00
C1265  C     0.62998   0.89255   0.94401   0.00000  Uiso   1.00
C1266  C     0.35720   0.82155   0.54197   0.00000  Uiso   1.00
C1267  C     0.65044   0.87677   0.90104   0.00000  Uiso   1.00
C1268  C     0.34221   0.82075   0.58929   0.00000  Uiso   1.00
C1269  C     0.57757   0.83429   0.91059   0.00000  Uiso   1.00
C1270  C     0.42388   0.84249   0.58875   0.00000  Uiso   1.00
C1271  C     0.55354   0.85610   0.94923   0.00000  Uiso   1.00
C1272  C     0.43750   0.84752   0.54130   0.00000  Uiso   1.00
C1273  C     0.58164   0.88261   0.96807   0.00000  Uiso   1.00
C1274  C     0.40488   0.83348   0.51804   0.00000  Uiso   1.00
C1275  C     0.50273   0.85163   0.97033   0.00000  Uiso   1.00
C1276  C     0.48421   0.86318   0.51609   0.00000  Uiso   1.00
C1277  C     0.51210   0.89165   0.53372   0.00000  Uiso   1.00
C1278  C     0.46899   0.83898   0.94696   0.00000  Uiso   1.00
C1279  C     0.56047   0.90053   0.50956   0.00000  Uiso   1.00
C1280  C     0.42053   0.83090   0.97107   0.00000  Uiso   1.00
H1281  H     0.58127   0.92268   0.52274   0.00000  Uiso   1.00
H1282  H     0.39509   0.82208   0.95276   0.00000  Uiso   1.00
C1283  C     0.62800   0.68764   0.77766   0.00000  Uiso   1.00
C1284  C     0.37198   0.97910   0.72194   0.00000  Uiso   1.00
H1285  H     0.59927   0.70400   0.80072   0.00000  Uiso   1.00
H1286  H     0.40070   0.96273   0.69889   0.00000  Uiso   1.00
C1287  C     0.62759   0.97809   0.78044   0.00000  Uiso   1.00
C1288  C     0.37222   0.68868   0.71895   0.00000  Uiso   1.00
C1289  C     0.33351   0.95713   0.75217   0.00000  Uiso   1.00
C1290  C     0.66649   0.70960   0.74751   0.00000  Uiso   1.00
C1291  C     0.51747   0.80096   0.76905   0.00000  Uiso   1.00
C1292  C     0.48256   0.86570   0.73091   0.00000  Uiso   1.00
C1293  C     0.46813   0.80151   0.76953   0.00000  Uiso   1.00
C1294  C     0.53190   0.86513   0.73041   0.00000  Uiso   1.00
N1295  N     0.45069   0.83334   0.74999   0.00000  Uiso   1.00
N1296  N     0.54931   0.83332   0.75001   0.00000  Uiso   1.00
F1297  F     0.45858   0.84487   0.61047   0.00000  Uiso   1.00
F1298  F     0.55679   0.79973   0.89936   0.00000  Uiso   1.00
N1299  N     0.62725   0.80587   0.61215   0.00000  Uiso   1.00
O1300  O     0.62070   0.77255   0.63765   0.00000  Uiso   1.00
O1301  O     0.59043   0.82142   0.60178   0.00000  Uiso   1.00
N1302  N     0.36266   0.89396   0.87386   0.00000  Uiso   1.00
O1303  O     0.36806   0.93374   0.86668   0.00000  Uiso   1.00
O1304  O     0.40071   0.87125   0.86329   0.00000  Uiso   1.00
F1305  F     0.65657   0.91954   0.96101   0.00000  Uiso   1.00
F1306  F     0.65884   0.80900   0.51936   0.00000  Uiso   1.00
N1307  N     0.49016   0.91701   0.57156   0.00000  Uiso   1.00
O1308  O     0.44659   0.93040   0.57721   0.00000  Uiso   1.00
O1309  O     0.51655   0.93306   0.59510   0.00000  Uiso   1.00
N1310  N     0.48115   0.83974   0.89853   0.00000  Uiso   1.00
O1311  O     0.50410   0.87167   0.87519   0.00000  Uiso   1.00
O1312  O     0.46324   0.81137   0.87822   0.00000  Uiso   1.00
N1313  N     0.58821   0.95666   0.81308   0.00000  Uiso   1.00
O1314  O     0.59679   0.92646   0.83777   0.00000  Uiso   1.00
O1315  O     0.54469   0.97107   0.82285   0.00000  Uiso   1.00
N1316  N     0.41109   0.71018   0.68572   0.00000  Uiso   1.00
O1317  O     0.40197   0.74079   0.66181   0.00000  Uiso   1.00
O1318  O     0.45453   0.69552   0.67472   0.00000  Uiso   1.00
N1319  N     0.53337   0.76506   0.78752   0.00000  Uiso   1.00
O1320  O     0.52546   0.72890   0.77299   0.00000  Uiso   1.00
O1321  O     0.54472   0.76724   0.82513   0.00000  Uiso   1.00
N1322  N     0.46670   0.90151   0.71223   0.00000  Uiso   1.00
O1323  O     0.47576   0.93788   0.72557   0.00000  Uiso   1.00
O1324  O     0.45334   0.89876   0.67571   0.00000  Uiso   1.00
F1325  F     0.43765   0.77036   0.79127   0.00000  Uiso   1.00
F1326  F     0.56245   0.89618   0.70852   0.00000  Uiso   1.00
O1327  O     0.70625   0.77322   0.75000   0.00000  Uiso   1.00
O1328  O     0.96042   0.89345   0.75000   0.00000  Uiso   1.00
O1329  O     0.96039   0.77321   0.75001   0.00000  Uiso   1.00
O1330  O     0.70628   0.89346   0.74999   0.00000  Uiso   1.00
C1331  C     0.99999   0.75422   0.74888   0.00000  Uiso   1.00
C1332  C     0.66670   0.91247   0.75102   0.00000  Uiso   1.00
O1333  O     0.68519   0.83334   0.81491   0.00000  Uiso   1.00
O1334  O     0.98148   0.83332   0.68509   0.00000  Uiso   1.00
O1335  O     0.93933   0.83333   0.81492   0.00000  Uiso   1.00
O1336  O     0.72733   0.83333   0.68508   0.00000  Uiso   1.00
C1337  C     0.97256   0.83550   0.83610   0.00000  Uiso   1.00
C1338  C     0.69424   0.83230   0.66358   0.00000  Uiso   1.00
Cu1339 Cu    0.71355   0.83334   0.75000   0.00000  Uiso   1.00
Cu1340 Cu    0.95311   0.83333   0.75000   0.00000  Uiso   1.00
C1341  C     0.95744   0.84681   0.88416   0.00000  Uiso   1.00
C1342  C     0.70913   0.83135   0.61333   0.00000  Uiso   1.00
C1343  C     0.96331   0.89255   0.94401   0.00000  Uiso   1.00
C1344  C     0.69054   0.82155   0.54197   0.00000  Uiso   1.00
C1345  C     0.98377   0.87677   0.90104   0.00000  Uiso   1.00
C1346  C     0.67554   0.82075   0.58929   0.00000  Uiso   1.00
C1347  C     0.91090   0.83429   0.91059   0.00000  Uiso   1.00
C1348  C     0.75721   0.84249   0.58875   0.00000  Uiso   1.00
C1349  C     0.88687   0.85610   0.94923   0.00000  Uiso   1.00
C1350  C     0.77084   0.84752   0.54130   0.00000  Uiso   1.00
C1351  C     0.91497   0.88261   0.96807   0.00000  Uiso   1.00
C1352  C     0.73822   0.83348   0.51804   0.00000  Uiso   1.00
C1353  C     0.83606   0.85163   0.97033   0.00000  Uiso   1.00
C1354  C     0.81755   0.86318   0.51609   0.00000  Uiso   1.00
C1355  C     0.84543   0.89165   0.53372   0.00000  Uiso   1.00
C1356  C     0.80233   0.83898   0.94696   0.00000  Uiso   1.00
C1357  C     0.89380   0.90053   0.50956   0.00000  Uiso   1.00
C1358  C     0.75386   0.83090   0.97107   0.00000  Uiso   1.00
H1359  H     0.91460   0.92268   0.52274   0.00000  Uiso   1.00
H1360  H     0.72842   0.82208   0.95276   0.00000  Uiso   1.00
C1361  C     0.96134   0.68764   0.77766   0.00000  Uiso   1.00
C1362  C     0.70531   0.97910   0.72194   0.00000  Uiso   1.00
H1363  H     0.93260   0.70400   0.80072   0.00000  Uiso   1.00
H1364  H     0.73404   0.96273   0.69889   0.00000  Uiso   1.00
C1365  C     0.96093   0.97809   0.78044   0.00000  Uiso   1.00
C1366  C     0.70556   0.68868   0.71895   0.00000  Uiso   1.00
C1367  C     0.66684   0.95713   0.75217   0.00000  Uiso   1.00
C1368  C     0.99983   0.70960   0.74751   0.00000  Uiso   1.00
C1369  C     0.85080   0.80096   0.76905   0.00000  Uiso   1.00
C1370  C     0.81589   0.86570   0.73091   0.00000  Uiso   1.00
C1371  C     0.80147   0.80151   0.76953   0.00000  Uiso   1.00
C1372  C     0.86523   0.86513   0.73041   0.00000  Uiso   1.00
N1373  N     0.78403   0.83334   0.74999   0.00000  Uiso   1.00
N1374  N     0.88264   0.83332   0.75001   0.00000  Uiso   1.00
F1375  F     0.79191   0.84487   0.61047   0.00000  Uiso   1.00
F1376  F     0.89013   0.79973   0.89936   0.00000  Uiso   1.00
N1377  N     0.96058   0.80587   0.61215   0.00000  Uiso   1.00
O1378  O     0.95404   0.77255   0.63765   0.00000  Uiso   1.00
O1379  O     0.92376   0.82142   0.60178   0.00000  Uiso   1.00
N1380  N     0.69599   0.89396   0.87386   0.00000  Uiso   1.00
O1381  O     0.70139   0.93374   0.86668   0.00000  Uiso   1.00
O1382  O     0.73404   0.87125   0.86329   0.00000  Uiso   1.00
F1383  F     0.98991   0.91954   0.96101   0.00000  Uiso   1.00
F1384  F     0.99218   0.80900   0.51936   0.00000  Uiso   1.00
N1385  N     0.82349   0.91701   0.57156   0.00000  Uiso   1.00
O1386  O     0.77992   0.93040   0.57721   0.00000  Uiso   1.00
O1387  O     0.84988   0.93306   0.59510   0.00000  Uiso   1.00
N1388  N     0.81448   0.83974   0.89853   0.00000  Uiso   1.00
O1389  O     0.83743   0.87167   0.87519   0.00000  Uiso   1.00
O1390  O     0.79658   0.81137   0.87822   0.00000  Uiso   1.00
N1391  N     0.92155   0.95666   0.81308   0.00000  Uiso   1.00
O1392  O     0.93012   0.92646   0.83777   0.00000  Uiso   1.00
O1393  O     0.87803   0.97107   0.82285   0.00000  Uiso   1.00
N1394  N     0.74442   0.71018   0.68572   0.00000  Uiso   1.00
O1395  O     0.73530   0.74079   0.66181   0.00000  Uiso   1.00
O1396  O     0.78786   0.69552   0.67472   0.00000  Uiso   1.00
N1397  N     0.86671   0.76506   0.78752   0.00000  Uiso   1.00
O1398  O     0.85879   0.72890   0.77299   0.00000  Uiso   1.00
O1399  O     0.87805   0.76724   0.82513   0.00000  Uiso   1.00
N1400  N     0.80003   0.90151   0.71223   0.00000  Uiso   1.00
O1401  O     0.80909   0.93788   0.72557   0.00000  Uiso   1.00
O1402  O     0.78667   0.89876   0.67571   0.00000  Uiso   1.00
F1403  F     0.77099   0.77036   0.79127   0.00000  Uiso   1.00
F1404  F     0.89578   0.89618   0.70852   0.00000  Uiso   1.00
loop_
_geom_bond_atom_site_label_1
_geom_bond_atom_site_label_2
_geom_bond_distance
_geom_bond_site_symmetry_2
_ccdc_geom_bond_type
O1     Cu13    1.954   .     S
O1     C161    1.294   1_455 S
O2     Cu14    1.954   .     S
O2     C84     1.294   .     S
O3     Cu14    1.963   .     S
O3     C5      1.300   .     A
O4     Cu13    1.963   .     S
O4     C6      1.300   .     A
C5     C42     1.447   .     S
C5     O79     1.294   .     S
C6     C41     1.448   .     S
C6     O158    1.294   1_455 S
O7     Cu13    1.936   .     S
O7     C167    1.302   1_455 S
O8     Cu14    1.936   .     S
O8     C90     1.304   .     S
O9     Cu14    1.930   .     S
O9     C11     1.307   .     A
O10    C12     1.310   .     A
O10    Cu13    1.930   .     S
C11    C15     1.479   .     S
C11    O85     1.302   .     S
C12    C16     1.488   .     S
C12    O164    1.304   1_455 S
Cu13   N47     2.030   .     S
Cu13   Cu170   2.702   1_455 S
Cu14   N48     2.030   .     S
Cu14   Cu91    2.702   .     S
C15    C19     1.416   .     A
C15    C21     1.401   .     A
C16    C20     1.420   .     A
C16    C22     1.410   .     A
C17    C25     1.404   .     A
C17    C19     1.400   .     A
C17    F57     1.360   .     S
C18    C26     1.402   .     A
C18    C20     1.400   .     A
C18    F214    1.360   1_455 S
C19    N132    1.433   .     S
C20    N207    1.435   1_455 S
C21    F50     1.356   .     S
C21    C23     1.408   .     A
C22    F49     1.357   .     S
C22    C24     1.410   .     A
C23    C27     1.424   .     A
C23    C25     1.412   .     A
C24    C26     1.411   .     A
C24    C28     1.424   .     A
C25    C733    1.395   .     S
C26    C734    1.395   1_554 S
C27    C30     1.426   .     A
C27    C730    1.421   .     S
C28    C29     1.426   .     A
C28    C729    1.421   1_554 S
C29    N59     1.441   .     S
C29    C31     1.399   .     A
C30    N62     1.435   .     S
C30    C32     1.397   .     A
C31    H33     1.083   .     S
C31    C727    1.395   1_554 S
C32    H34     1.084   .     S
C32    C728    1.395   .     S
C35    H37     1.081   .     S
C35    C42     1.396   .     A
C35    C507    1.390   1_545 S
C36    C41     1.397   .     A
C36    H38     1.081   .     S
C36    C274    1.391   .     S
C39    N65     1.438   .     S
C39    C269    1.390   .     S
C39    C119    1.411   .     S
C40    N68     1.439   .     S
C40    C504    1.391   1_545 S
C40    C198    1.410   1_455 S
C41    C195    1.411   1_455 S
C42    C118    1.410   .     S
C43    N71     1.427   .     S
C43    N48     1.382   .     A
C43    C45     1.418   .     A
C44    N47     1.383   .     A
C44    C46     1.418   .     A
C44    N74     1.427   .     S
C45    N47     1.361   .     A
C45    F77     1.355   .     S
C46    N48     1.361   .     A
C46    F78     1.355   .     S
N51    O52     1.302   .     A
N51    O53     1.301   .     A
N51    C98     1.435   .     S
N54    O56     1.299   .     A
N54    O55     1.301   .     A
N54    C175    1.433   1_455 S
F58    C96     1.360   .     S
N59    O60     1.302   .     A
N59    O61     1.302   .     A
N62    O64     1.301   .     A
N62    O63     1.302   .     A
N65    O67     1.301   .     A
N65    O66     1.300   .     A
N68    O69     1.301   .     A
N68    O70     1.301   .     A
N71    O72     1.301   .     A
N71    O73     1.298   .     A
N74    O76     1.297   .     A
N74    O75     1.301   .     A
O79    Cu91    1.954   .     S
O80    Cu92    1.954   .     S
O80    C162    1.294   .     S
O81    Cu92    1.963   .     S
O81    C83     1.300   .     A
O82    Cu91    1.963   .     S
O82    C84     1.300   .     A
C83    C120    1.447   .     S
C83    O157    1.294   .     S
C84    C119    1.448   .     S
O85    Cu91    1.936   .     S
O86    Cu92    1.936   .     S
O86    C168    1.304   .     S
O87    Cu92    1.930   .     S
O87    C89     1.307   .     A
O88    C90     1.310   .     A
O88    Cu91    1.930   .     S
C89    C93     1.479   .     S
C89    O163    1.302   .     S
C90    C94     1.488   .     S
Cu91   N125    2.030   .     S
Cu92   N126    2.030   .     S
Cu92   Cu169   2.702   .     S
C93    C97     1.416   .     A
C93    C99     1.401   .     A
C94    C98     1.420   .     A
C94    C100    1.410   .     A
C95    C103    1.404   .     A
C95    C97     1.400   .     A
C95    F135    1.360   .     S
C96    C104    1.402   .     A
C96    C98     1.400   .     A
C97    N210    1.433   .     S
C99    F128    1.356   .     S
C99    C101    1.408   .     A
C100   F127    1.357   .     S
C100   C102    1.410   .     A
C101   C105    1.424   .     A
C101   C103    1.412   .     A
C102   C104    1.411   .     A
C102   C106    1.424   .     A
C103   C811    1.395   .     S
C104   C812    1.395   1_554 S
C105   C108    1.426   .     A
C105   C808    1.421   .     S
C106   C107    1.426   .     A
C106   C807    1.421   1_554 S
C107   N137    1.441   .     S
C107   C109    1.399   .     A
C108   N140    1.435   .     S
C108   C110    1.397   .     A
C109   H111    1.083   .     S
C109   C805    1.395   1_554 S
C110   H112    1.084   .     S
C110   C806    1.395   .     S
C113   H115    1.081   .     S
C113   C120    1.396   .     A
C113   C585    1.390   1_545 S
C114   C119    1.397   .     A
C114   H116    1.081   .     S
C114   C352    1.391   .     S
C117   N143    1.438   .     S
C117   C347    1.390   .     S
C117   C197    1.411   .     S
C118   N146    1.439   .     S
C118   C582    1.391   1_545 S
C120   C196    1.410   .     S
C121   N149    1.427   .     S
C121   N126    1.382   .     A
C121   C123    1.418   .     A
C122   N125    1.383   .     A
C122   C124    1.418   .     A
C122   N152    1.427   .     S
C123   N125    1.361   .     A
C123   F155    1.355   .     S
C124   N126    1.361   .     A
C124   F156    1.355   .     S
N129   O130    1.302   .     A
N129   O131    1.301   .     A
N129   C176    1.435   .     S
N132   O134    1.299   .     A
N132   O133    1.301   .     A
F136   C174    1.360   .     S
N137   O138    1.302   .     A
N137   O139    1.302   .     A
N140   O142    1.301   .     A
N140   O141    1.302   .     A
N143   O145    1.301   .     A
N143   O144    1.300   .     A
N146   O147    1.301   .     A
N146   O148    1.301   .     A
N149   O150    1.301   .     A
N149   O151    1.298   .     A
N152   O154    1.297   .     A
N152   O153    1.301   .     A
O157   Cu169   1.954   .     S
O158   Cu170   1.954   .     S
O158   C6      1.294   1_655 S
O159   Cu170   1.963   .     S
O159   C161    1.300   .     A
O160   Cu169   1.963   .     S
O160   C162    1.300   .     A
C161   C198    1.447   .     S
C161   O1      1.294   1_655 S
C162   C197    1.448   .     S
O163   Cu169   1.936   .     S
O164   Cu170   1.936   .     S
O164   C12     1.304   1_655 S
O165   Cu170   1.930   .     S
O165   C167    1.307   .     A
O166   C168    1.310   .     A
O166   Cu169   1.930   .     S
C167   C171    1.479   .     S
C167   O7      1.302   1_655 S
C168   C172    1.488   .     S
Cu169  N203    2.030   .     S
Cu170  N204    2.030   .     S
Cu170  Cu13    2.702   1_655 S
C171   C175    1.416   .     A
C171   C177    1.401   .     A
C172   C176    1.420   .     A
C172   C178    1.410   .     A
C173   C181    1.404   .     A
C173   C175    1.400   .     A
C173   F213    1.360   .     S
C174   C182    1.402   .     A
C174   C176    1.400   .     A
C175   N54     1.433   1_655 S
C177   F206    1.356   .     S
C177   C179    1.408   .     A
C178   F205    1.357   .     S
C178   C180    1.410   .     A
C179   C183    1.424   .     A
C179   C181    1.412   .     A
C180   C182    1.411   .     A
C180   C184    1.424   .     A
C181   C889    1.395   .     S
C182   C890    1.395   1_554 S
C183   C186    1.426   .     A
C183   C886    1.421   .     S
C184   C185    1.426   .     A
C184   C885    1.421   1_554 S
C185   N215    1.441   .     S
C185   C187    1.399   .     A
C186   N218    1.435   .     S
C186   C188    1.397   .     A
C187   H189    1.083   .     S
C187   C883    1.395   1_554 S
C188   H190    1.084   .     S
C188   C884    1.395   .     S
C191   H193    1.081   .     S
C191   C198    1.396   .     A
C191   C663    1.390   1_545 S
C192   C197    1.397   .     A
C192   H194    1.081   .     S
C192   C430    1.391   .     S
C195   N221    1.438   .     S
C195   C425    1.390   .     S
C195   C41     1.411   1_655 S
C196   N224    1.439   .     S
C196   C660    1.391   1_545 S
C198   C40     1.410   1_655 S
C199   N227    1.427   .     S
C199   N204    1.382   .     A
C199   C201    1.418   .     A
C200   N203    1.383   .     A
C200   C202    1.418   .     A
C200   N230    1.427   .     S
C201   N203    1.361   .     A
C201   F233    1.355   .     S
C202   N204    1.361   .     A
C202   F234    1.355   .     S
N207   O208    1.302   .     A
N207   O209    1.301   .     A
N207   C20     1.435   1_655 S
N210   O212    1.299   .     A
N210   O211    1.301   .     A
F214   C18     1.360   1_655 S
N215   O216    1.302   .     A
N215   O217    1.302   .     A
N218   O220    1.301   .     A
N218   O219    1.302   .     A
N221   O223    1.301   .     A
N221   O222    1.300   .     A
N224   O225    1.301   .     A
N224   O226    1.301   .     A
N227   O228    1.301   .     A
N227   O229    1.298   .     A
N230   O232    1.297   .     A
N230   O231    1.301   .     A
O235   Cu247   1.954   .     S
O235   C395    1.294   1_455 S
O236   Cu248   1.954   .     S
O236   C318    1.294   .     S
O237   Cu248   1.963   .     S
O237   C239    1.300   .     A
O238   Cu247   1.963   .     S
O238   C240    1.300   .     A
C239   C276    1.447   .     S
C239   O313    1.294   .     S
C240   C275    1.448   .     S
C240   O392    1.294   1_455 S
O241   Cu247   1.936   .     S
O241   C401    1.302   1_455 S
O242   Cu248   1.936   .     S
O242   C324    1.304   .     S
O243   Cu248   1.930   .     S
O243   C245    1.307   .     A
O244   C246    1.310   .     A
O244   Cu247   1.930   .     S
C245   C249    1.479   .     S
C245   O319    1.302   .     S
C246   C250    1.488   .     S
C246   O398    1.304   1_455 S
Cu247  N281    2.030   .     S
Cu247  Cu404   2.702   1_455 S
Cu248  N282    2.030   .     S
Cu248  Cu325   2.702   .     S
C249   C253    1.416   .     A
C249   C255    1.401   .     A
C250   C254    1.420   .     A
C250   C256    1.410   .     A
C251   C259    1.404   .     A
C251   C253    1.400   .     A
C251   F291    1.360   .     S
C252   C260    1.402   .     A
C252   C254    1.400   .     A
C252   F448    1.360   1_455 S
C253   N366    1.433   .     S
C254   N441    1.435   1_455 S
C255   F284    1.356   .     S
C255   C257    1.408   .     A
C256   F283    1.357   .     S
C256   C258    1.410   .     A
C257   C261    1.424   .     A
C257   C259    1.412   .     A
C258   C260    1.411   .     A
C258   C262    1.424   .     A
C259   C967    1.395   .     S
C260   C968    1.395   1_554 S
C261   C264    1.426   .     A
C261   C964    1.421   .     S
C262   C263    1.426   .     A
C262   C963    1.421   1_554 S
C263   N293    1.441   .     S
C263   C265    1.399   .     A
C264   N296    1.435   .     S
C264   C266    1.397   .     A
C265   H267    1.083   .     S
C265   C961    1.395   1_554 S
C266   H268    1.084   .     S
C266   C962    1.395   .     S
C269   H271    1.081   .     S
C269   C276    1.396   .     A
C270   C275    1.397   .     A
C270   H272    1.081   .     S
C270   C508    1.391   .     S
C273   N299    1.438   .     S
C273   C503    1.390   .     S
C273   C353    1.411   .     S
C274   N302    1.439   .     S
C274   C432    1.410   1_455 S
C275   C429    1.411   1_455 S
C276   C352    1.410   .     S
C277   N305    1.427   .     S
C277   N282    1.382   .     A
C277   C279    1.418   .     A
C278   N281    1.383   .     A
C278   C280    1.418   .     A
C278   N308    1.427   .     S
C279   N281    1.361   .     A
C279   F311    1.355   .     S
C280   N282    1.361   .     A
C280   F312    1.355   .     S
N285   O286    1.302   .     A
N285   O287    1.301   .     A
N285   C332    1.435   .     S
N288   O290    1.299   .     A
N288   O289    1.301   .     A
N288   C409    1.433   1_455 S
F292   C330    1.360   .     S
N293   O294    1.302   .     A
N293   O295    1.302   .     A
N296   O298    1.301   .     A
N296   O297    1.302   .     A
N299   O301    1.301   .     A
N299   O300    1.300   .     A
N302   O303    1.301   .     A
N302   O304    1.301   .     A
N305   O306    1.301   .     A
N305   O307    1.298   .     A
N308   O310    1.297   .     A
N308   O309    1.301   .     A
O313   Cu325   1.954   .     S
O314   Cu326   1.954   .     S
O314   C396    1.294   .     S
O315   Cu326   1.963   .     S
O315   C317    1.300   .     A
O316   Cu325   1.963   .     S
O316   C318    1.300   .     A
C317   C354    1.447   .     S
C317   O391    1.294   .     S
C318   C353    1.448   .     S
O319   Cu325   1.936   .     S
O320   Cu326   1.936   .     S
O320   C402    1.304   .     S
O321   Cu326   1.930   .     S
O321   C323    1.307   .     A
O322   C324    1.310   .     A
O322   Cu325   1.930   .     S
C323   C327    1.479   .     S
C323   O397    1.302   .     S
C324   C328    1.488   .     S
Cu325  N359    2.030   .     S
Cu326  N360    2.030   .     S
Cu326  Cu403   2.702   .     S
C327   C331    1.416   .     A
C327   C333    1.401   .     A
C328   C332    1.420   .     A
C328   C334    1.410   .     A
C329   C337    1.404   .     A
C329   C331    1.400   .     A
C329   F369    1.360   .     S
C330   C338    1.402   .     A
C330   C332    1.400   .     A
C331   N444    1.433   .     S
C333   F362    1.356   .     S
C333   C335    1.408   .     A
C334   F361    1.357   .     S
C334   C336    1.410   .     A
C335   C339    1.424   .     A
C335   C337    1.412   .     A
C336   C338    1.411   .     A
C336   C340    1.424   .     A
C337   C1045   1.395   .     S
C338   C1046   1.395   1_554 S
C339   C342    1.426   .     A
C339   C1042   1.421   .     S
C340   C341    1.426   .     A
C340   C1041   1.421   1_554 S
C341   N371    1.441   .     S
C341   C343    1.399   .     A
C342   N374    1.435   .     S
C342   C344    1.397   .     A
C343   H345    1.083   .     S
C343   C1039   1.395   1_554 S
C344   H346    1.084   .     S
C344   C1040   1.395   .     S
C347   H349    1.081   .     S
C347   C354    1.396   .     A
C348   C353    1.397   .     A
C348   H350    1.081   .     S
C348   C586    1.391   .     S
C351   N377    1.438   .     S
C351   C581    1.390   .     S
C351   C431    1.411   .     S
C352   N380    1.439   .     S
C354   C430    1.410   .     S
C355   N383    1.427   .     S
C355   N360    1.382   .     A
C355   C357    1.418   .     A
C356   N359    1.383   .     A
C356   C358    1.418   .     A
C356   N386    1.427   .     S
C357   N359    1.361   .     A
C357   F389    1.355   .     S
C358   N360    1.361   .     A
C358   F390    1.355   .     S
N363   O364    1.302   .     A
N363   O365    1.301   .     A
N363   C410    1.435   .     S
N366   O368    1.299   .     A
N366   O367    1.301   .     A
F370   C408    1.360   .     S
N371   O372    1.302   .     A
N371   O373    1.302   .     A
N374   O376    1.301   .     A
N374   O375    1.302   .     A
N377   O379    1.301   .     A
N377   O378    1.300   .     A
N380   O381    1.301   .     A
N380   O382    1.301   .     A
N383   O384    1.301   .     A
N383   O385    1.298   .     A
N386   O388    1.297   .     A
N386   O387    1.301   .     A
O391   Cu403   1.954   .     S
O392   Cu404   1.954   .     S
O392   C240    1.294   1_655 S
O393   Cu404   1.963   .     S
O393   C395    1.300   .     A
O394   Cu403   1.963   .     S
O394   C396    1.300   .     A
C395   C432    1.447   .     S
C395   O235    1.294   1_655 S
C396   C431    1.448   .     S
O397   Cu403   1.936   .     S
O398   Cu404   1.936   .     S
O398   C246    1.304   1_655 S
O399   Cu404   1.930   .     S
O399   C401    1.307   .     A
O400   C402    1.310   .     A
O400   Cu403   1.930   .     S
C401   C405    1.479   .     S
C401   O241    1.302   1_655 S
C402   C406    1.488   .     S
Cu403  N437    2.030   .     S
Cu404  N438    2.030   .     S
Cu404  Cu247   2.702   1_655 S
C405   C409    1.416   .     A
C405   C411    1.401   .     A
C406   C410    1.420   .     A
C406   C412    1.410   .     A
C407   C415    1.404   .     A
C407   C409    1.400   .     A
C407   F447    1.360   .     S
C408   C416    1.402   .     A
C408   C410    1.400   .     A
C409   N288    1.433   1_655 S
C411   F440    1.356   .     S
C411   C413    1.408   .     A
C412   F439    1.357   .     S
C412   C414    1.410   .     A
C413   C417    1.424   .     A
C413   C415    1.412   .     A
C414   C416    1.411   .     A
C414   C418    1.424   .     A
C415   C1123   1.395   .     S
C416   C1124   1.395   1_554 S
C417   C420    1.426   .     A
C417   C1120   1.421   .     S
C418   C419    1.426   .     A
C418   C1119   1.421   1_554 S
C419   N449    1.441   .     S
C419   C421    1.399   .     A
C420   N452    1.435   .     S
C420   C422    1.397   .     A
C421   H423    1.083   .     S
C421   C1117   1.395   1_554 S
C422   H424    1.084   .     S
C422   C1118   1.395   .     S
C425   H427    1.081   .     S
C425   C432    1.396   .     A
C426   C431    1.397   .     A
C426   H428    1.081   .     S
C426   C664    1.391   .     S
C429   N455    1.438   .     S
C429   C659    1.390   .     S
C429   C275    1.411   1_655 S
C430   N458    1.439   .     S
C432   C274    1.410   1_655 S
C433   N461    1.427   .     S
C433   N438    1.382   .     A
C433   C435    1.418   .     A
C434   N437    1.383   .     A
C434   C436    1.418   .     A
C434   N464    1.427   .     S
C435   N437    1.361   .     A
C435   F467    1.355   .     S
C436   N438    1.361   .     A
C436   F468    1.355   .     S
N441   O442    1.302   .     A
N441   O443    1.301   .     A
N441   C254    1.435   1_655 S
N444   O446    1.299   .     A
N444   O445    1.301   .     A
F448   C252    1.360   1_655 S
N449   O450    1.302   .     A
N449   O451    1.302   .     A
N452   O454    1.301   .     A
N452   O453    1.302   .     A
N455   O457    1.301   .     A
N455   O456    1.300   .     A
N458   O459    1.301   .     A
N458   O460    1.301   .     A
N461   O462    1.301   .     A
N461   O463    1.298   .     A
N464   O466    1.297   .     A
N464   O465    1.301   .     A
O469   Cu481   1.954   .     S
O469   C629    1.294   1_455 S
O470   Cu482   1.954   .     S
O470   C552    1.294   .     S
O471   Cu482   1.963   .     S
O471   C473    1.300   .     A
O472   Cu481   1.963   .     S
O472   C474    1.300   .     A
C473   C510    1.447   .     S
C473   O547    1.294   .     S
C474   C509    1.448   .     S
C474   O626    1.294   1_455 S
O475   Cu481   1.936   .     S
O475   C635    1.302   1_455 S
O476   Cu482   1.936   .     S
O476   C558    1.304   .     S
O477   Cu482   1.930   .     S
O477   C479    1.307   .     A
O478   C480    1.310   .     A
O478   Cu481   1.930   .     S
C479   C483    1.479   .     S
C479   O553    1.302   .     S
C480   C484    1.488   .     S
C480   O632    1.304   1_455 S
Cu481  N515    2.030   .     S
Cu481  Cu638   2.702   1_455 S
Cu482  N516    2.030   .     S
Cu482  Cu559   2.702   .     S
C483   C487    1.416   .     A
C483   C489    1.401   .     A
C484   C488    1.420   .     A
C484   C490    1.410   .     A
C485   C493    1.404   .     A
C485   C487    1.400   .     A
C485   F525    1.360   .     S
C486   C494    1.402   .     A
C486   C488    1.400   .     A
C486   F682    1.360   1_455 S
C487   N600    1.433   .     S
C488   N675    1.435   1_455 S
C489   F518    1.356   .     S
C489   C491    1.408   .     A
C490   F517    1.357   .     S
C490   C492    1.410   .     A
C491   C495    1.424   .     A
C491   C493    1.412   .     A
C492   C494    1.411   .     A
C492   C496    1.424   .     A
C493   C1201   1.395   .     S
C494   C1202   1.395   1_554 S
C495   C498    1.426   .     A
C495   C1198   1.421   .     S
C496   C497    1.426   .     A
C496   C1197   1.421   1_554 S
C497   N527    1.441   .     S
C497   C499    1.399   .     A
C498   N530    1.435   .     S
C498   C500    1.397   .     A
C499   H501    1.083   .     S
C499   C1195   1.395   1_554 S
C500   H502    1.084   .     S
C500   C1196   1.395   .     S
C503   H505    1.081   .     S
C503   C510    1.396   .     A
C504   C509    1.397   .     A
C504   H506    1.081   .     S
C504   C40     1.391   1_565 S
C507   N533    1.438   .     S
C507   C35     1.390   1_565 S
C507   C587    1.411   .     S
C508   N536    1.439   .     S
C508   C666    1.410   1_455 S
C509   C663    1.411   1_455 S
C510   C586    1.410   .     S
C511   N539    1.427   .     S
C511   N516    1.382   .     A
C511   C513    1.418   .     A
C512   N515    1.383   .     A
C512   C514    1.418   .     A
C512   N542    1.427   .     S
C513   N515    1.361   .     A
C513   F545    1.355   .     S
C514   N516    1.361   .     A
C514   F546    1.355   .     S
N519   O520    1.302   .     A
N519   O521    1.301   .     A
N519   C566    1.435   .     S
N522   O524    1.299   .     A
N522   O523    1.301   .     A
N522   C643    1.433   1_455 S
F526   C564    1.360   .     S
N527   O528    1.302   .     A
N527   O529    1.302   .     A
N530   O532    1.301   .     A
N530   O531    1.302   .     A
N533   O535    1.301   .     A
N533   O534    1.300   .     A
N536   O537    1.301   .     A
N536   O538    1.301   .     A
N539   O540    1.301   .     A
N539   O541    1.298   .     A
N542   O544    1.297   .     A
N542   O543    1.301   .     A
O547   Cu559   1.954   .     S
O548   Cu560   1.954   .     S
O548   C630    1.294   .     S
O549   Cu560   1.963   .     S
O549   C551    1.300   .     A
O550   Cu559   1.963   .     S
O550   C552    1.300   .     A
C551   C588    1.447   .     S
C551   O625    1.294   .     S
C552   C587    1.448   .     S
O553   Cu559   1.936   .     S
O554   Cu560   1.936   .     S
O554   C636    1.304   .     S
O555   Cu560   1.930   .     S
O555   C557    1.307   .     A
O556   C558    1.310   .     A
O556   Cu559   1.930   .     S
C557   C561    1.479   .     S
C557   O631    1.302   .     S
C558   C562    1.488   .     S
Cu559  N593    2.030   .     S
Cu560  N594    2.030   .     S
Cu560  Cu637   2.702   .     S
C561   C565    1.416   .     A
C561   C567    1.401   .     A
C562   C566    1.420   .     A
C562   C568    1.410   .     A
C563   C571    1.404   .     A
C563   C565    1.400   .     A
C563   F603    1.360   .     S
C564   C572    1.402   .     A
C564   C566    1.400   .     A
C565   N678    1.433   .     S
C567   F596    1.356   .     S
C567   C569    1.408   .     A
C568   F595    1.357   .     S
C568   C570    1.410   .     A
C569   C573    1.424   .     A
C569   C571    1.412   .     A
C570   C572    1.411   .     A
C570   C574    1.424   .     A
C571   C1279   1.395   .     S
C572   C1280   1.395   1_554 S
C573   C576    1.426   .     A
C573   C1276   1.421   .     S
C574   C575    1.426   .     A
C574   C1275   1.421   1_554 S
C575   N605    1.441   .     S
C575   C577    1.399   .     A
C576   N608    1.435   .     S
C576   C578    1.397   .     A
C577   H579    1.083   .     S
C577   C1273   1.395   1_554 S
C578   H580    1.084   .     S
C578   C1274   1.395   .     S
C581   H583    1.081   .     S
C581   C588    1.396   .     A
C582   C587    1.397   .     A
C582   H584    1.081   .     S
C582   C118    1.391   1_565 S
C585   N611    1.438   .     S
C585   C113    1.390   1_565 S
C585   C665    1.411   .     S
C586   N614    1.439   .     S
C588   C664    1.410   .     S
C589   N617    1.427   .     S
C589   N594    1.382   .     A
C589   C591    1.418   .     A
C590   N593    1.383   .     A
C590   C592    1.418   .     A
C590   N620    1.427   .     S
C591   N593    1.361   .     A
C591   F623    1.355   .     S
C592   N594    1.361   .     A
C592   F624    1.355   .     S
N597   O598    1.302   .     A
N597   O599    1.301   .     A
N597   C644    1.435   .     S
N600   O602    1.299   .     A
N600   O601    1.301   .     A
F604   C642    1.360   .     S
N605   O606    1.302   .     A
N605   O607    1.302   .     A
N608   O610    1.301   .     A
N608   O609    1.302   .     A
N611   O613    1.301   .     A
N611   O612    1.300   .     A
N614   O615    1.301   .     A
N614   O616    1.301   .     A
N617   O618    1.301   .     A
N617   O619    1.298   .     A
N620   O622    1.297   .     A
N620   O621    1.301   .     A
O625   Cu637   1.954   .     S
O626   Cu638   1.954   .     S
O626   C474    1.294   1_655 S
O627   Cu638   1.963   .     S
O627   C629    1.300   .     A
O628   Cu637   1.963   .     S
O628   C630    1.300   .     A
C629   C666    1.447   .     S
C629   O469    1.294   1_655 S
C630   C665    1.448   .     S
O631   Cu637   1.936   .     S
O632   Cu638   1.936   .     S
O632   C480    1.304   1_655 S
O633   Cu638   1.930   .     S
O633   C635    1.307   .     A
O634   C636    1.310   .     A
O634   Cu637   1.930   .     S
C635   C639    1.479   .     S
C635   O475    1.302   1_655 S
C636   C640    1.488   .     S
Cu637  N671    2.030   .     S
Cu638  N672    2.030   .     S
Cu638  Cu481   2.702   1_655 S
C639   C643    1.416   .     A
C639   C645    1.401   .     A
C640   C644    1.420   .     A
C640   C646    1.410   .     A
C641   C649    1.404   .     A
C641   C643    1.400   .     A
C641   F681    1.360   .     S
C642   C650    1.402   .     A
C642   C644    1.400   .     A
C643   N522    1.433   1_655 S
C645   F674    1.356   .     S
C645   C647    1.408   .     A
C646   F673    1.357   .     S
C646   C648    1.410   .     A
C647   C651    1.424   .     A
C647   C649    1.412   .     A
C648   C650    1.411   .     A
C648   C652    1.424   .     A
C649   C1357   1.395   .     S
C650   C1358   1.395   1_554 S
C651   C654    1.426   .     A
C651   C1354   1.421   .     S
C652   C653    1.426   .     A
C652   C1353   1.421   1_554 S
C653   N683    1.441   .     S
C653   C655    1.399   .     A
C654   N686    1.435   .     S
C654   C656    1.397   .     A
C655   H657    1.083   .     S
C655   C1351   1.395   1_554 S
C656   H658    1.084   .     S
C656   C1352   1.395   .     S
C659   H661    1.081   .     S
C659   C666    1.396   .     A
C660   C665    1.397   .     A
C660   H662    1.081   .     S
C660   C196    1.391   1_565 S
C663   N689    1.438   .     S
C663   C191    1.390   1_565 S
C663   C509    1.411   1_655 S
C664   N692    1.439   .     S
C666   C508    1.410   1_655 S
C667   N695    1.427   .     S
C667   N672    1.382   .     A
C667   C669    1.418   .     A
C668   N671    1.383   .     A
C668   C670    1.418   .     A
C668   N698    1.427   .     S
C669   N671    1.361   .     A
C669   F701    1.355   .     S
C670   N672    1.361   .     A
C670   F702    1.355   .     S
N675   O676    1.302   .     A
N675   O677    1.301   .     A
N675   C488    1.435   1_655 S
N678   O680    1.299   .     A
N678   O679    1.301   .     A
F682   C486    1.360   1_655 S
N683   O684    1.302   .     A
N683   O685    1.302   .     A
N686   O688    1.301   .     A
N686   O687    1.302   .     A
N689   O691    1.301   .     A
N689   O690    1.300   .     A
N692   O693    1.301   .     A
N692   O694    1.301   .     A
N695   O696    1.301   .     A
N695   O697    1.298   .     A
N698   O700    1.297   .     A
N698   O699    1.301   .     A
O703   Cu715   1.954   .     S
O703   C863    1.294   1_455 S
O704   Cu716   1.954   .     S
O704   C786    1.294   .     S
O705   Cu716   1.963   .     S
O705   C707    1.300   .     A
O706   Cu715   1.963   .     S
O706   C708    1.300   .     A
C707   C744    1.447   .     S
C707   O781    1.294   .     S
C708   C743    1.448   .     S
C708   O860    1.294   1_455 S
O709   Cu715   1.936   .     S
O709   C869    1.302   1_455 S
O710   Cu716   1.936   .     S
O710   C792    1.304   .     S
O711   Cu716   1.930   .     S
O711   C713    1.307   .     A
O712   C714    1.310   .     A
O712   Cu715   1.930   .     S
C713   C717    1.479   .     S
C713   O787    1.302   .     S
C714   C718    1.488   .     S
C714   O866    1.304   1_455 S
Cu715  N749    2.030   .     S
Cu715  Cu872   2.702   1_455 S
Cu716  N750    2.030   .     S
Cu716  Cu793   2.702   .     S
C717   C721    1.416   .     A
C717   C723    1.401   .     A
C718   C722    1.420   .     A
C718   C724    1.410   .     A
C719   C727    1.404   .     A
C719   C721    1.400   .     A
C719   F759    1.360   .     S
C720   C728    1.402   .     A
C720   C722    1.400   .     A
C720   F916    1.360   1_455 S
C721   N834    1.433   .     S
C722   N909    1.435   1_455 S
C723   F752    1.356   .     S
C723   C725    1.408   .     A
C724   F751    1.357   .     S
C724   C726    1.410   .     A
C725   C729    1.424   .     A
C725   C727    1.412   .     A
C726   C728    1.411   .     A
C726   C730    1.424   .     A
C727   C31     1.395   1_556 S
C729   C732    1.426   .     A
C729   C28     1.421   1_556 S
C730   C731    1.426   .     A
C731   N761    1.441   .     S
C731   C733    1.399   .     A
C732   N764    1.435   .     S
C732   C734    1.397   .     A
C733   H735    1.083   .     S
C734   H736    1.084   .     S
C734   C26     1.395   1_556 S
C737   H739    1.081   .     S
C737   C744    1.396   .     A
C737   C1209   1.390   1_545 S
C738   C743    1.397   .     A
C738   H740    1.081   .     S
C738   C976    1.391   .     S
C741   N767    1.438   .     S
C741   C971    1.390   .     S
C741   C821    1.411   .     S
C742   N770    1.439   .     S
C742   C1206   1.391   1_545 S
C742   C900    1.410   1_455 S
C743   C897    1.411   1_455 S
C744   C820    1.410   .     S
C745   N773    1.427   .     S
C745   N750    1.382   .     A
C745   C747    1.418   .     A
C746   N749    1.383   .     A
C746   C748    1.418   .     A
C746   N776    1.427   .     S
C747   N749    1.361   .     A
C747   F779    1.355   .     S
C748   N750    1.361   .     A
C748   F780    1.355   .     S
N753   O754    1.302   .     A
N753   O755    1.301   .     A
N753   C800    1.435   .     S
N756   O758    1.299   .     A
N756   O757    1.301   .     A
N756   C877    1.433   1_455 S
F760   C798    1.360   .     S
N761   O762    1.302   .     A
N761   O763    1.302   .     A
N764   O766    1.301   .     A
N764   O765    1.302   .     A
N767   O769    1.301   .     A
N767   O768    1.300   .     A
N770   O771    1.301   .     A
N770   O772    1.301   .     A
N773   O774    1.301   .     A
N773   O775    1.298   .     A
N776   O778    1.297   .     A
N776   O777    1.301   .     A
O781   Cu793   1.954   .     S
O782   Cu794   1.954   .     S
O782   C864    1.294   .     S
O783   Cu794   1.963   .     S
O783   C785    1.300   .     A
O784   Cu793   1.963   .     S
O784   C786    1.300   .     A
C785   C822    1.447   .     S
C785   O859    1.294   .     S
C786   C821    1.448   .     S
O787   Cu793   1.936   .     S
O788   Cu794   1.936   .     S
O788   C870    1.304   .     S
O789   Cu794   1.930   .     S
O789   C791    1.307   .     A
O790   C792    1.310   .     A
O790   Cu793   1.930   .     S
C791   C795    1.479   .     S
C791   O865    1.302   .     S
C792   C796    1.488   .     S
Cu793  N827    2.030   .     S
Cu794  N828    2.030   .     S
Cu794  Cu871   2.702   .     S
C795   C799    1.416   .     A
C795   C801    1.401   .     A
C796   C800    1.420   .     A
C796   C802    1.410   .     A
C797   C805    1.404   .     A
C797   C799    1.400   .     A
C797   F837    1.360   .     S
C798   C806    1.402   .     A
C798   C800    1.400   .     A
C799   N912    1.433   .     S
C801   F830    1.356   .     S
C801   C803    1.408   .     A
C802   F829    1.357   .     S
C802   C804    1.410   .     A
C803   C807    1.424   .     A
C803   C805    1.412   .     A
C804   C806    1.411   .     A
C804   C808    1.424   .     A
C805   C109    1.395   1_556 S
C807   C810    1.426   .     A
C807   C106    1.421   1_556 S
C808   C809    1.426   .     A
C809   N839    1.441   .     S
C809   C811    1.399   .     A
C810   N842    1.435   .     S
C810   C812    1.397   .     A
C811   H813    1.083   .     S
C812   H814    1.084   .     S
C812   C104    1.395   1_556 S
C815   H817    1.081   .     S
C815   C822    1.396   .     A
C815   C1287   1.390   1_545 S
C816   C821    1.397   .     A
C816   H818    1.081   .     S
C816   C1054   1.391   .     S
C819   N845    1.438   .     S
C819   C1049   1.390   .     S
C819   C899    1.411   .     S
C820   N848    1.439   .     S
C820   C1284   1.391   1_545 S
C822   C898    1.410   .     S
C823   N851    1.427   .     S
C823   N828    1.382   .     A
C823   C825    1.418   .     A
C824   N827    1.383   .     A
C824   C826    1.418   .     A
C824   N854    1.427   .     S
C825   N827    1.361   .     A
C825   F857    1.355   .     S
C826   N828    1.361   .     A
C826   F858    1.355   .     S
N831   O832    1.302   .     A
N831   O833    1.301   .     A
N831   C878    1.435   .     S
N834   O836    1.299   .     A
N834   O835    1.301   .     A
F838   C876    1.360   .     S
N839   O840    1.302   .     A
N839   O841    1.302   .     A
N842   O844    1.301   .     A
N842   O843    1.302   .     A
N845   O847    1.301   .     A
N845   O846    1.300   .     A
N848   O849    1.301   .     A
N848   O850    1.301   .     A
N851   O852    1.301   .     A
N851   O853    1.298   .     A
N854   O856    1.297   .     A
N854   O855    1.301   .     A
O859   Cu871   1.954   .     S
O860   Cu872   1.954   .     S
O860   C708    1.294   1_655 S
O861   Cu872   1.963   .     S
O861   C863    1.300   .     A
O862   Cu871   1.963   .     S
O862   C864    1.300   .     A
C863   C900    1.447   .     S
C863   O703    1.294   1_655 S
C864   C899    1.448   .     S
O865   Cu871   1.936   .     S
O866   Cu872   1.936   .     S
O866   C714    1.304   1_655 S
O867   Cu872   1.930   .     S
O867   C869    1.307   .     A
O868   C870    1.310   .     A
O868   Cu871   1.930   .     S
C869   C873    1.479   .     S
C869   O709    1.302   1_655 S
C870   C874    1.488   .     S
Cu871  N905    2.030   .     S
Cu872  N906    2.030   .     S
Cu872  Cu715   2.702   1_655 S
C873   C877    1.416   .     A
C873   C879    1.401   .     A
C874   C878    1.420   .     A
C874   C880    1.410   .     A
C875   C883    1.404   .     A
C875   C877    1.400   .     A
C875   F915    1.360   .     S
C876   C884    1.402   .     A
C876   C878    1.400   .     A
C877   N756    1.433   1_655 S
C879   F908    1.356   .     S
C879   C881    1.408   .     A
C880   F907    1.357   .     S
C880   C882    1.410   .     A
C881   C885    1.424   .     A
C881   C883    1.412   .     A
C882   C884    1.411   .     A
C882   C886    1.424   .     A
C883   C187    1.395   1_556 S
C885   C888    1.426   .     A
C885   C184    1.421   1_556 S
C886   C887    1.426   .     A
C887   N917    1.441   .     S
C887   C889    1.399   .     A
C888   N920    1.435   .     S
C888   C890    1.397   .     A
C889   H891    1.083   .     S
C890   H892    1.084   .     S
C890   C182    1.395   1_556 S
C893   H895    1.081   .     S
C893   C900    1.396   .     A
C893   C1365   1.390   1_545 S
C894   C899    1.397   .     A
C894   H896    1.081   .     S
C894   C1132   1.391   .     S
C897   N923    1.438   .     S
C897   C1127   1.390   .     S
C897   C743    1.411   1_655 S
C898   N926    1.439   .     S
C898   C1362   1.391   1_545 S
C900   C742    1.410   1_655 S
C901   N929    1.427   .     S
C901   N906    1.382   .     A
C901   C903    1.418   .     A
C902   N905    1.383   .     A
C902   C904    1.418   .     A
C902   N932    1.427   .     S
C903   N905    1.361   .     A
C903   F935    1.355   .     S
C904   N906    1.361   .     A
C904   F936    1.355   .     S
N909   O910    1.302   .     A
N909   O911    1.301   .     A
N909   C722    1.435   1_655 S
N912   O914    1.299   .     A
N912   O913    1.301   .     A
F916   C720    1.360   1_655 S
N917   O918    1.302   .     A
N917   O919    1.302   .     A
N920   O922    1.301   .     A
N920   O921    1.302   .     A
N923   O925    1.301   .     A
N923   O924    1.300   .     A
N926   O927    1.301   .     A
N926   O928    1.301   .     A
N929   O930    1.301   .     A
N929   O931    1.298   .     A
N932   O934    1.297   .     A
N932   O933    1.301   .     A
O937   Cu949   1.954   .     S
O937   C1097   1.294   1_455 S
O938   Cu950   1.954   .     S
O938   C1020   1.294   .     S
O939   Cu950   1.963   .     S
O939   C941    1.300   .     A
O940   Cu949   1.963   .     S
O940   C942    1.300   .     A
C941   C978    1.447   .     S
C941   O1015   1.294   .     S
C942   C977    1.448   .     S
C942   O1094   1.294   1_455 S
O943   Cu949   1.936   .     S
O943   C1103   1.302   1_455 S
O944   Cu950   1.936   .     S
O944   C1026   1.304   .     S
O945   Cu950   1.930   .     S
O945   C947    1.307   .     A
O946   C948    1.310   .     A
O946   Cu949   1.930   .     S
C947   C951    1.479   .     S
C947   O1021   1.302   .     S
C948   C952    1.488   .     S
C948   O1100   1.304   1_455 S
Cu949  N983    2.030   .     S
Cu949  Cu1106  2.702   1_455 S
Cu950  N984    2.030   .     S
Cu950  Cu1027  2.702   .     S
C951   C955    1.416   .     A
C951   C957    1.401   .     A
C952   C956    1.420   .     A
C952   C958    1.410   .     A
C953   C961    1.404   .     A
C953   C955    1.400   .     A
C953   F993    1.360   .     S
C954   C962    1.402   .     A
C954   C956    1.400   .     A
C954   F1150   1.360   1_455 S
C955   N1068   1.433   .     S
C956   N1143   1.435   1_455 S
C957   F986    1.356   .     S
C957   C959    1.408   .     A
C958   F985    1.357   .     S
C958   C960    1.410   .     A
C959   C963    1.424   .     A
C959   C961    1.412   .     A
C960   C962    1.411   .     A
C960   C964    1.424   .     A
C961   C265    1.395   1_556 S
C963   C966    1.426   .     A
C963   C262    1.421   1_556 S
C964   C965    1.426   .     A
C965   N995    1.441   .     S
C965   C967    1.399   .     A
C966   N998    1.435   .     S
C966   C968    1.397   .     A
C967   H969    1.083   .     S
C968   H970    1.084   .     S
C968   C260    1.395   1_556 S
C971   H973    1.081   .     S
C971   C978    1.396   .     A
C972   C977    1.397   .     A
C972   H974    1.081   .     S
C972   C1210   1.391   .     S
C975   N1001   1.438   .     S
C975   C1205   1.390   .     S
C975   C1055   1.411   .     S
C976   N1004   1.439   .     S
C976   C1134   1.410   1_455 S
C977   C1131   1.411   1_455 S
C978   C1054   1.410   .     S
C979   N1007   1.427   .     S
C979   N984    1.382   .     A
C979   C981    1.418   .     A
C980   N983    1.383   .     A
C980   C982    1.418   .     A
C980   N1010   1.427   .     S
C981   N983    1.361   .     A
C981   F1013   1.355   .     S
C982   N984    1.361   .     A
C982   F1014   1.355   .     S
N987   O988    1.302   .     A
N987   O989    1.301   .     A
N987   C1034   1.435   .     S
N990   O992    1.299   .     A
N990   O991    1.301   .     A
N990   C1111   1.433   1_455 S
F994   C1032   1.360   .     S
N995   O996    1.302   .     A
N995   O997    1.302   .     A
N998   O1000   1.301   .     A
N998   O999    1.302   .     A
N1001  O1003   1.301   .     A
N1001  O1002   1.300   .     A
N1004  O1005   1.301   .     A
N1004  O1006   1.301   .     A
N1007  O1008   1.301   .     A
N1007  O1009   1.298   .     A
N1010  O1012   1.297   .     A
N1010  O1011   1.301   .     A
O1015  Cu1027  1.954   .     S
O1016  Cu1028  1.954   .     S
O1016  C1098   1.294   .     S
O1017  Cu1028  1.963   .     S
O1017  C1019   1.300   .     A
O1018  Cu1027  1.963   .     S
O1018  C1020   1.300   .     A
C1019  C1056   1.447   .     S
C1019  O1093   1.294   .     S
C1020  C1055   1.448   .     S
O1021  Cu1027  1.936   .     S
O1022  Cu1028  1.936   .     S
O1022  C1104   1.304   .     S
O1023  Cu1028  1.930   .     S
O1023  C1025   1.307   .     A
O1024  C1026   1.310   .     A
O1024  Cu1027  1.930   .     S
C1025  C1029   1.479   .     S
C1025  O1099   1.302   .     S
C1026  C1030   1.488   .     S
Cu1027 N1061   2.030   .     S
Cu1028 N1062   2.030   .     S
Cu1028 Cu1105  2.702   .     S
C1029  C1033   1.416   .     A
C1029  C1035   1.401   .     A
C1030  C1034   1.420   .     A
C1030  C1036   1.410   .     A
C1031  C1039   1.404   .     A
C1031  C1033   1.400   .     A
C1031  F1071   1.360   .     S
C1032  C1040   1.402   .     A
C1032  C1034   1.400   .     A
C1033  N1146   1.433   .     S
C1035  F1064   1.356   .     S
C1035  C1037   1.408   .     A
C1036  F1063   1.357   .     S
C1036  C1038   1.410   .     A
C1037  C1041   1.424   .     A
C1037  C1039   1.412   .     A
C1038  C1040   1.411   .     A
C1038  C1042   1.424   .     A
C1039  C343    1.395   1_556 S
C1041  C1044   1.426   .     A
C1041  C340    1.421   1_556 S
C1042  C1043   1.426   .     A
C1043  N1073   1.441   .     S
C1043  C1045   1.399   .     A
C1044  N1076   1.435   .     S
C1044  C1046   1.397   .     A
C1045  H1047   1.083   .     S
C1046  H1048   1.084   .     S
C1046  C338    1.395   1_556 S
C1049  H1051   1.081   .     S
C1049  C1056   1.396   .     A
C1050  C1055   1.397   .     A
C1050  H1052   1.081   .     S
C1050  C1288   1.391   .     S
C1053  N1079   1.438   .     S
C1053  C1283   1.390   .     S
C1053  C1133   1.411   .     S
C1054  N1082   1.439   .     S
C1056  C1132   1.410   .     S
C1057  N1085   1.427   .     S
C1057  N1062   1.382   .     A
C1057  C1059   1.418   .     A
C1058  N1061   1.383   .     A
C1058  C1060   1.418   .     A
C1058  N1088   1.427   .     S
C1059  N1061   1.361   .     A
C1059  F1091   1.355   .     S
C1060  N1062   1.361   .     A
C1060  F1092   1.355   .     S
N1065  O1066   1.302   .     A
N1065  O1067   1.301   .     A
N1065  C1112   1.435   .     S
N1068  O1070   1.299   .     A
N1068  O1069   1.301   .     A
F1072  C1110   1.360   .     S
N1073  O1074   1.302   .     A
N1073  O1075   1.302   .     A
N1076  O1078   1.301   .     A
N1076  O1077   1.302   .     A
N1079  O1081   1.301   .     A
N1079  O1080   1.300   .     A
N1082  O1083   1.301   .     A
N1082  O1084   1.301   .     A
N1085  O1086   1.301   .     A
N1085  O1087   1.298   .     A
N1088  O1090   1.297   .     A
N1088  O1089   1.301   .     A
O1093  Cu1105  1.954   .     S
O1094  Cu1106  1.954   .     S
O1094  C942    1.294   1_655 S
O1095  Cu1106  1.963   .     S
O1095  C1097   1.300   .     A
O1096  Cu1105  1.963   .     S
O1096  C1098   1.300   .     A
C1097  C1134   1.447   .     S
C1097  O937    1.294   1_655 S
C1098  C1133   1.448   .     S
O1099  Cu1105  1.936   .     S
O1100  Cu1106  1.936   .     S
O1100  C948    1.304   1_655 S
O1101  Cu1106  1.930   .     S
O1101  C1103   1.307   .     A
O1102  C1104   1.310   .     A
O1102  Cu1105  1.930   .     S
C1103  C1107   1.479   .     S
C1103  O943    1.302   1_655 S
C1104  C1108   1.488   .     S
Cu1105 N1139   2.030   .     S
Cu1106 N1140   2.030   .     S
Cu1106 Cu949   2.702   1_655 S
C1107  C1111   1.416   .     A
C1107  C1113   1.401   .     A
C1108  C1112   1.420   .     A
C1108  C1114   1.410   .     A
C1109  C1117   1.404   .     A
C1109  C1111   1.400   .     A
C1109  F1149   1.360   .     S
C1110  C1118   1.402   .     A
C1110  C1112   1.400   .     A
C1111  N990    1.433   1_655 S
C1113  F1142   1.356   .     S
C1113  C1115   1.408   .     A
C1114  F1141   1.357   .     S
C1114  C1116   1.410   .     A
C1115  C1119   1.424   .     A
C1115  C1117   1.412   .     A
C1116  C1118   1.411   .     A
C1116  C1120   1.424   .     A
C1117  C421    1.395   1_556 S
C1119  C1122   1.426   .     A
C1119  C418    1.421   1_556 S
C1120  C1121   1.426   .     A
C1121  N1151   1.441   .     S
C1121  C1123   1.399   .     A
C1122  N1154   1.435   .     S
C1122  C1124   1.397   .     A
C1123  H1125   1.083   .     S
C1124  H1126   1.084   .     S
C1124  C416    1.395   1_556 S
C1127  H1129   1.081   .     S
C1127  C1134   1.396   .     A
C1128  C1133   1.397   .     A
C1128  H1130   1.081   .     S
C1128  C1366   1.391   .     S
C1131  N1157   1.438   .     S
C1131  C1361   1.390   .     S
C1131  C977    1.411   1_655 S
C1132  N1160   1.439   .     S
C1134  C976    1.410   1_655 S
C1135  N1163   1.427   .     S
C1135  N1140   1.382   .     A
C1135  C1137   1.418   .     A
C1136  N1139   1.383   .     A
C1136  C1138   1.418   .     A
C1136  N1166   1.427   .     S
C1137  N1139   1.361   .     A
C1137  F1169   1.355   .     S
C1138  N1140   1.361   .     A
C1138  F1170   1.355   .     S
N1143  O1144   1.302   .     A
N1143  O1145   1.301   .     A
N1143  C956    1.435   1_655 S
N1146  O1148   1.299   .     A
N1146  O1147   1.301   .     A
F1150  C954    1.360   1_655 S
N1151  O1152   1.302   .     A
N1151  O1153   1.302   .     A
N1154  O1156   1.301   .     A
N1154  O1155   1.302   .     A
N1157  O1159   1.301   .     A
N1157  O1158   1.300   .     A
N1160  O1161   1.301   .     A
N1160  O1162   1.301   .     A
N1163  O1164   1.301   .     A
N1163  O1165   1.298   .     A
N1166  O1168   1.297   .     A
N1166  O1167   1.301   .     A
O1171  Cu1183  1.954   .     S
O1171  C1331   1.294   1_455 S
O1172  Cu1184  1.954   .     S
O1172  C1254   1.294   .     S
O1173  Cu1184  1.963   .     S
O1173  C1175   1.300   .     A
O1174  Cu1183  1.963   .     S
O1174  C1176   1.300   .     A
C1175  C1212   1.447   .     S
C1175  O1249   1.294   .     S
C1176  C1211   1.448   .     S
C1176  O1328   1.294   1_455 S
O1177  Cu1183  1.936   .     S
O1177  C1337   1.302   1_455 S
O1178  Cu1184  1.936   .     S
O1178  C1260   1.304   .     S
O1179  Cu1184  1.930   .     S
O1179  C1181   1.307   .     A
O1180  C1182   1.310   .     A
O1180  Cu1183  1.930   .     S
C1181  C1185   1.479   .     S
C1181  O1255   1.302   .     S
C1182  C1186   1.488   .     S
C1182  O1334   1.304   1_455 S
Cu1183 N1217   2.030   .     S
Cu1183 Cu1340  2.702   1_455 S
Cu1184 N1218   2.030   .     S
Cu1184 Cu1261  2.702   .     S
C1185  C1189   1.416   .     A
C1185  C1191   1.401   .     A
C1186  C1190   1.420   .     A
C1186  C1192   1.410   .     A
C1187  C1195   1.404   .     A
C1187  C1189   1.400   .     A
C1187  F1227   1.360   .     S
C1188  C1196   1.402   .     A
C1188  C1190   1.400   .     A
C1188  F1384   1.360   1_455 S
C1189  N1302   1.433   .     S
C1190  N1377   1.435   1_455 S
C1191  F1220   1.356   .     S
C1191  C1193   1.408   .     A
C1192  F1219   1.357   .     S
C1192  C1194   1.410   .     A
C1193  C1197   1.424   .     A
C1193  C1195   1.412   .     A
C1194  C1196   1.411   .     A
C1194  C1198   1.424   .     A
C1195  C499    1.395   1_556 S
C1197  C1200   1.426   .     A
C1197  C496    1.421   1_556 S
C1198  C1199   1.426   .     A
C1199  N1229   1.441   .     S
C1199  C1201   1.399   .     A
C1200  N1232   1.435   .     S
C1200  C1202   1.397   .     A
C1201  H1203   1.083   .     S
C1202  H1204   1.084   .     S
C1202  C494    1.395   1_556 S
C1205  H1207   1.081   .     S
C1205  C1212   1.396   .     A
C1206  C1211   1.397   .     A
C1206  H1208   1.081   .     S
C1206  C742    1.391   1_565 S
C1209  N1235   1.438   .     S
C1209  C737    1.390   1_565 S
C1209  C1289   1.411   .     S
C1210  N1238   1.439   .     S
C1210  C1368   1.410   1_455 S
C1211  C1365   1.411   1_455 S
C1212  C1288   1.410   .     S
C1213  N1241   1.427   .     S
C1213  N1218   1.382   .     A
C1213  C1215   1.418   .     A
C1214  N1217   1.383   .     A
C1214  C1216   1.418   .     A
C1214  N1244   1.427   .     S
C1215  N1217   1.361   .     A
C1215  F1247   1.355   .     S
C1216  N1218   1.361   .     A
C1216  F1248   1.355   .     S
N1221  O1222   1.302   .     A
N1221  O1223   1.301   .     A
N1221  C1268   1.435   .     S
N1224  O1226   1.299   .     A
N1224  O1225   1.301   .     A
N1224  C1345   1.433   1_455 S
F1228  C1266   1.360   .     S
N1229  O1230   1.302   .     A
N1229  O1231   1.302   .     A
N1232  O1234   1.301   .     A
N1232  O1233   1.302   .     A
N1235  O1237   1.301   .     A
N1235  O1236   1.300   .     A
N1238  O1239   1.301   .     A
N1238  O1240   1.301   .     A
N1241  O1242   1.301   .     A
N1241  O1243   1.298   .     A
N1244  O1246   1.297   .     A
N1244  O1245   1.301   .     A
O1249  Cu1261  1.954   .     S
O1250  Cu1262  1.954   .     S
O1250  C1332   1.294   .     S
O1251  Cu1262  1.963   .     S
O1251  C1253   1.300   .     A
O1252  Cu1261  1.963   .     S
O1252  C1254   1.300   .     A
C1253  C1290   1.447   .     S
C1253  O1327   1.294   .     S
C1254  C1289   1.448   .     S
O1255  Cu1261  1.936   .     S
O1256  Cu1262  1.936   .     S
O1256  C1338   1.304   .     S
O1257  Cu1262  1.930   .     S
O1257  C1259   1.307   .     A
O1258  C1260   1.310   .     A
O1258  Cu1261  1.930   .     S
C1259  C1263   1.479   .     S
C1259  O1333   1.302   .     S
C1260  C1264   1.488   .     S
Cu1261 N1295   2.030   .     S
Cu1262 N1296   2.030   .     S
Cu1262 Cu1339  2.702   .     S
C1263  C1267   1.416   .     A
C1263  C1269   1.401   .     A
C1264  C1268   1.420   .     A
C1264  C1270   1.410   .     A
C1265  C1273   1.404   .     A
C1265  C1267   1.400   .     A
C1265  F1305   1.360   .     S
C1266  C1274   1.402   .     A
C1266  C1268   1.400   .     A
C1267  N1380   1.433   .     S
C1269  F1298   1.356   .     S
C1269  C1271   1.408   .     A
C1270  F1297   1.357   .     S
C1270  C1272   1.410   .     A
C1271  C1275   1.424   .     A
C1271  C1273   1.412   .     A
C1272  C1274   1.411   .     A
C1272  C1276   1.424   .     A
C1273  C577    1.395   1_556 S
C1275  C1278   1.426   .     A
C1275  C574    1.421   1_556 S
C1276  C1277   1.426   .     A
C1277  N1307   1.441   .     S
C1277  C1279   1.399   .     A
C1278  N1310   1.435   .     S
C1278  C1280   1.397   .     A
C1279  H1281   1.083   .     S
C1280  H1282   1.084   .     S
C1280  C572    1.395   1_556 S
C1283  H1285   1.081   .     S
C1283  C1290   1.396   .     A
C1284  C1289   1.397   .     A
C1284  H1286   1.081   .     S
C1284  C820    1.391   1_565 S
C1287  N1313   1.438   .     S
C1287  C815    1.390   1_565 S
C1287  C1367   1.411   .     S
C1288  N1316   1.439   .     S
C1290  C1366   1.410   .     S
C1291  N1319   1.427   .     S
C1291  N1296   1.382   .     A
C1291  C1293   1.418   .     A
C1292  N1295   1.383   .     A
C1292  C1294   1.418   .     A
C1292  N1322   1.427   .     S
C1293  N1295   1.361   .     A
C1293  F1325   1.355   .     S
C1294  N1296   1.361   .     A
C1294  F1326   1.355   .     S
N1299  O1300   1.302   .     A
N1299  O1301   1.301   .     A
N1299  C1346   1.435   .     S
N1302  O1304   1.299   .     A
N1302  O1303   1.301   .     A
F1306  C1344   1.360   .     S
N1307  O1308   1.302   .     A
N1307  O1309   1.302   .     A
N1310  O1312   1.301   .     A
N1310  O1311   1.302   .     A
N1313  O1315   1.301   .     A
N1313  O1314   1.300   .     A
N1316  O1317   1.301   .     A
N1316  O1318   1.301   .     A
N1319  O1320   1.301   .     A
N1319  O1321   1.298   .     A
N1322  O1324   1.297   .     A
N1322  O1323   1.301   .     A
O1327  Cu1339  1.954   .     S
O1328  Cu1340  1.954   .     S
O1328  C1176   1.294   1_655 S
O1329  Cu1340  1.963   .     S
O1329  C1331   1.300   .     A
O1330  Cu1339  1.963   .     S
O1330  C1332   1.300   .     A
C1331  C1368   1.447   .     S
C1331  O1171   1.294   1_655 S
C1332  C1367   1.448   .     S
O1333  Cu1339  1.936   .     S
O1334  Cu1340  1.936   .     S
O1334  C1182   1.304   1_655 S
O1335  Cu1340  1.930   .     S
O1335  C1337   1.307   .     A
O1336  C1338   1.310   .     A
O1336  Cu1339  1.930   .     S
C1337  C1341   1.479   .     S
C1337  O1177   1.302   1_655 S
C1338  C1342   1.488   .     S
Cu1339 N1373   2.030   .     S
Cu1340 N1374   2.030   .     S
Cu1340 Cu1183  2.702   1_655 S
C1341  C1345   1.416   .     A
C1341  C1347   1.401   .     A
C1342  C1346   1.420   .     A
C1342  C1348   1.410   .     A
C1343  C1351   1.404   .     A
C1343  C1345   1.400   .     A
C1343  F1383   1.360   .     S
C1344  C1352   1.402   .     A
C1344  C1346   1.400   .     A
C1345  N1224   1.433   1_655 S
C1347  F1376   1.356   .     S
C1347  C1349   1.408   .     A
C1348  F1375   1.357   .     S
C1348  C1350   1.410   .     A
C1349  C1353   1.424   .     A
C1349  C1351   1.412   .     A
C1350  C1352   1.411   .     A
C1350  C1354   1.424   .     A
C1351  C655    1.395   1_556 S
C1353  C1356   1.426   .     A
C1353  C652    1.421   1_556 S
C1354  C1355   1.426   .     A
C1355  N1385   1.441   .     S
C1355  C1357   1.399   .     A
C1356  N1388   1.435   .     S
C1356  C1358   1.397   .     A
C1357  H1359   1.083   .     S
C1358  H1360   1.084   .     S
C1358  C650    1.395   1_556 S
C1361  H1363   1.081   .     S
C1361  C1368   1.396   .     A
C1362  C1367   1.397   .     A
C1362  H1364   1.081   .     S
C1362  C898    1.391   1_565 S
C1365  N1391   1.438   .     S
C1365  C893    1.390   1_565 S
C1365  C1211   1.411   1_655 S
C1366  N1394   1.439   .     S
C1368  C1210   1.410   1_655 S
C1369  N1397   1.427   .     S
C1369  N1374   1.382   .     A
C1369  C1371   1.418   .     A
C1370  N1373   1.383   .     A
C1370  C1372   1.418   .     A
C1370  N1400   1.427   .     S
C1371  N1373   1.361   .     A
C1371  F1403   1.355   .     S
C1372  N1374   1.361   .     A
C1372  F1404   1.355   .     S
N1377  O1378   1.302   .     A
N1377  O1379   1.301   .     A
N1377  C1190   1.435   1_655 S
N1380  O1382   1.299   .     A
N1380  O1381   1.301   .     A
F1384  C1188   1.360   1_655 S
N1385  O1386   1.302   .     A
N1385  O1387   1.302   .     A
N1388  O1390   1.301   .     A
N1388  O1389   1.302   .     A
N1391  O1393   1.301   .     A
N1391  O1392   1.300   .     A
N1394  O1395   1.301   .     A
N1394  O1396   1.301   .     A
N1397  O1398   1.301   .     A
N1397  O1399   1.298   .     A
N1400  O1402   1.297   .     A
N1400  O1401   1.301   .     A
