data_str_m2_o1_o16_pcu_sym.201
_audit_creation_date              2020-01-03
_audit_creation_method            'Materials Studio'
_symmetry_space_group_name_H-M    'P1'
_symmetry_Int_Tables_number       1
_symmetry_cell_setting            triclinic
loop_
_symmetry_equiv_pos_as_xyz
  x,y,z
_cell_length_a                    28.7091
_cell_length_b                    32.3549
_cell_length_c                    26.9517
_cell_angle_alpha                 90.9175
_cell_angle_beta                  73.0954
_cell_angle_gamma                 89.2000
loop_
_atom_site_label
_atom_site_type_symbol
_atom_site_fract_x
_atom_site_fract_y
_atom_site_fract_z
_atom_site_U_iso_or_equiv
_atom_site_adp_type
_atom_site_occupancy
C1     C     0.16679   0.24587   0.24856   0.00000  Uiso   1.00
C2     C     0.14352   0.15432   0.49082   0.00000  Uiso   1.00
C3     C     0.15959   0.16032   0.43648   0.00000  Uiso   1.00
C4     C     0.17968   0.14955   0.01695   0.00000  Uiso   1.00
C5     C     0.22784   0.13734   0.48841   0.00000  Uiso   1.00
C6     C     0.24055   0.13803   0.43420   0.00000  Uiso   1.00
C7     C     0.21005   0.16044   0.41240   0.00000  Uiso   1.00
C8     C     0.17085   0.16139   0.06886   0.00000  Uiso   1.00
C9     C     0.25202   0.13905   0.06748   0.00000  Uiso   1.00
C10    C     0.12553   0.16950   0.40864   0.00000  Uiso   1.00
C11    C     0.19476   0.31168   0.27402   0.00000  Uiso   1.00
C12    C     0.14064   0.16851   0.35045   0.00000  Uiso   1.00
C13    C     0.19548   0.02109   0.27423   0.00000  Uiso   1.00
C14    C     0.16760   0.04290   0.24841   0.00000  Uiso   1.00
C15    C     0.14014   0.02206   0.22109   0.00000  Uiso   1.00
C16    C     0.14016   0.31254   0.21948   0.00000  Uiso   1.00
C17    C     0.16682   0.29054   0.24726   0.00000  Uiso   1.00
C18    C     0.30269   0.19989   0.26820   0.00000  Uiso   1.00
C19    C     0.01777   0.19950   0.27035   0.00000  Uiso   1.00
C20    C     0.03098   0.13407   0.22912   0.00000  Uiso   1.00
C21    C     0.31467   0.13387   0.22974   0.00000  Uiso   1.00
C22    C     0.16698   0.08747   0.24968   0.00000  Uiso   1.00
C23    C     0.19254   0.16451   0.15029   0.00000  Uiso   1.00
C24    C     0.26285   0.12979   0.01453   0.00000  Uiso   1.00
C25    C     0.20636   0.15610   0.09439   0.00000  Uiso   1.00
C26    C     0.07653   0.17750   0.43764   0.00000  Uiso   1.00
C27    C     0.06052   0.16866   0.49017   0.00000  Uiso   1.00
C28    C     0.09276   0.15482   0.01628   0.00000  Uiso   1.00
Cu29   Cu    0.11978   0.16666   0.25000   0.00000  Uiso   1.00
Cu30   Cu    0.21355   0.16667   0.25000   0.00000  Uiso   1.00
H31    H     0.27947   0.13355   0.08708   0.00000  Uiso   1.00
H32    H     0.21684   0.03711   0.29543   0.00000  Uiso   1.00
H33    H     0.11969   0.03915   0.19985   0.00000  Uiso   1.00
H34    H     0.27976   0.22683   0.28210   0.00000  Uiso   1.00
H35    H     0.05440   0.10796   0.21209   0.00000  Uiso   1.00
H36    H     0.30115   0.10752   0.21337   0.00000  Uiso   1.00
H37    H     0.29927   0.11897   0.49401   0.00000  Uiso   1.00
H38    H     0.13718   0.17726   0.08910   0.00000  Uiso   1.00
H39    H     0.02224   0.17226   0.01098   0.00000  Uiso   1.00
H40    H     0.21562   0.29510   0.29526   0.00000  Uiso   1.00
N41    N     0.04931   0.16666   0.24999   0.00000  Uiso   1.00
N42    N     0.28402   0.16669   0.24999   0.00000  Uiso   1.00
O43    O     0.12708   0.22678   0.25001   0.00000  Uiso   1.00
O44    O     0.20627   0.22679   0.25000   0.00000  Uiso   1.00
O45    O     0.10775   0.16665   0.32549   0.00000  Uiso   1.00
O46    O     0.18694   0.16666   0.32549   0.00000  Uiso   1.00
O47    O     0.12706   0.10654   0.25000   0.00000  Uiso   1.00
O48    O     0.20625   0.10655   0.24999   0.00000  Uiso   1.00
O49    O     0.14640   0.16667   0.17451   0.00000  Uiso   1.00
O50    O     0.22559   0.16668   0.17451   0.00000  Uiso   1.00
I51    I     0.10322   0.28444   0.17005   0.00000  Uiso   1.00
Cl52   Cl    0.03327   0.24229   0.30261   0.00000  Uiso   1.00
I53    I     0.30696   0.11369   0.38397   0.00000  Uiso   1.00
Cl54   Cl    0.03390   0.20144   0.41173   0.00000  Uiso   1.00
Cl55   Cl    0.06641   0.13400   0.07814   0.00000  Uiso   1.00
I56    I     0.23544   0.22118   0.39349   0.00000  Uiso   1.00
C57    C     0.50012   0.24587   0.24856   0.00000  Uiso   1.00
C58    C     0.47685   0.15432   0.49082   0.00000  Uiso   1.00
C59    C     0.49292   0.16032   0.43648   0.00000  Uiso   1.00
C60    C     0.51302   0.14955   0.01695   0.00000  Uiso   1.00
C61    C     0.56117   0.13734   0.48841   0.00000  Uiso   1.00
C62    C     0.57388   0.13803   0.43420   0.00000  Uiso   1.00
C63    C     0.54338   0.16044   0.41240   0.00000  Uiso   1.00
C64    C     0.50419   0.16139   0.06886   0.00000  Uiso   1.00
C65    C     0.58535   0.13905   0.06748   0.00000  Uiso   1.00
C66    C     0.45886   0.16950   0.40864   0.00000  Uiso   1.00
C67    C     0.52809   0.31168   0.27402   0.00000  Uiso   1.00
C68    C     0.47397   0.16851   0.35045   0.00000  Uiso   1.00
C69    C     0.52881   0.02109   0.27423   0.00000  Uiso   1.00
C70    C     0.50094   0.04290   0.24841   0.00000  Uiso   1.00
C71    C     0.47347   0.02206   0.22109   0.00000  Uiso   1.00
C72    C     0.47349   0.31254   0.21948   0.00000  Uiso   1.00
C73    C     0.50015   0.29054   0.24726   0.00000  Uiso   1.00
C74    C     0.63602   0.19989   0.26820   0.00000  Uiso   1.00
C75    C     0.35111   0.19950   0.27035   0.00000  Uiso   1.00
C76    C     0.36431   0.13407   0.22912   0.00000  Uiso   1.00
C77    C     0.64801   0.13387   0.22974   0.00000  Uiso   1.00
C78    C     0.50032   0.08747   0.24968   0.00000  Uiso   1.00
C79    C     0.52587   0.16451   0.15029   0.00000  Uiso   1.00
C80    C     0.59618   0.12979   0.01453   0.00000  Uiso   1.00
C81    C     0.53970   0.15610   0.09439   0.00000  Uiso   1.00
C82    C     0.40987   0.17750   0.43764   0.00000  Uiso   1.00
C83    C     0.39386   0.16866   0.49017   0.00000  Uiso   1.00
C84    C     0.42610   0.15482   0.01628   0.00000  Uiso   1.00
Cu85   Cu    0.45311   0.16666   0.25000   0.00000  Uiso   1.00
Cu86   Cu    0.54689   0.16667   0.25000   0.00000  Uiso   1.00
H87    H     0.61280   0.13355   0.08708   0.00000  Uiso   1.00
H88    H     0.55018   0.03711   0.29543   0.00000  Uiso   1.00
H89    H     0.45303   0.03915   0.19985   0.00000  Uiso   1.00
H90    H     0.61309   0.22683   0.28210   0.00000  Uiso   1.00
H91    H     0.38773   0.10796   0.21209   0.00000  Uiso   1.00
H92    H     0.63449   0.10752   0.21337   0.00000  Uiso   1.00
H93    H     0.63260   0.11897   0.49401   0.00000  Uiso   1.00
H94    H     0.47051   0.17726   0.08910   0.00000  Uiso   1.00
H95    H     0.35557   0.17226   0.01098   0.00000  Uiso   1.00
H96    H     0.54896   0.29510   0.29526   0.00000  Uiso   1.00
N97    N     0.38265   0.16666   0.24999   0.00000  Uiso   1.00
N98    N     0.61735   0.16669   0.24999   0.00000  Uiso   1.00
O99    O     0.46042   0.22678   0.25001   0.00000  Uiso   1.00
O100   O     0.53961   0.22679   0.25000   0.00000  Uiso   1.00
O101   O     0.44108   0.16665   0.32549   0.00000  Uiso   1.00
O102   O     0.52027   0.16666   0.32549   0.00000  Uiso   1.00
O103   O     0.46039   0.10654   0.25000   0.00000  Uiso   1.00
O104   O     0.53958   0.10655   0.24999   0.00000  Uiso   1.00
O105   O     0.47973   0.16667   0.17451   0.00000  Uiso   1.00
O106   O     0.55892   0.16668   0.17451   0.00000  Uiso   1.00
I107   I     0.43656   0.28444   0.17005   0.00000  Uiso   1.00
Cl108  Cl    0.36660   0.24229   0.30261   0.00000  Uiso   1.00
I109   I     0.64029   0.11369   0.38397   0.00000  Uiso   1.00
Cl110  Cl    0.36723   0.20144   0.41173   0.00000  Uiso   1.00
Cl111  Cl    0.39974   0.13400   0.07814   0.00000  Uiso   1.00
I112   I     0.56878   0.22118   0.39349   0.00000  Uiso   1.00
C113   C     0.83345   0.24587   0.24856   0.00000  Uiso   1.00
C114   C     0.81018   0.15432   0.49082   0.00000  Uiso   1.00
C115   C     0.82626   0.16032   0.43648   0.00000  Uiso   1.00
C116   C     0.84635   0.14955   0.01695   0.00000  Uiso   1.00
C117   C     0.89451   0.13734   0.48841   0.00000  Uiso   1.00
C118   C     0.90721   0.13803   0.43420   0.00000  Uiso   1.00
C119   C     0.87671   0.16044   0.41240   0.00000  Uiso   1.00
C120   C     0.83752   0.16139   0.06886   0.00000  Uiso   1.00
C121   C     0.91869   0.13905   0.06748   0.00000  Uiso   1.00
C122   C     0.79220   0.16950   0.40864   0.00000  Uiso   1.00
C123   C     0.86143   0.31168   0.27402   0.00000  Uiso   1.00
C124   C     0.80730   0.16851   0.35045   0.00000  Uiso   1.00
C125   C     0.86215   0.02109   0.27423   0.00000  Uiso   1.00
C126   C     0.83427   0.04290   0.24841   0.00000  Uiso   1.00
C127   C     0.80680   0.02206   0.22109   0.00000  Uiso   1.00
C128   C     0.80683   0.31254   0.21948   0.00000  Uiso   1.00
C129   C     0.83348   0.29054   0.24726   0.00000  Uiso   1.00
C130   C     0.96935   0.19989   0.26820   0.00000  Uiso   1.00
C131   C     0.68444   0.19950   0.27035   0.00000  Uiso   1.00
C132   C     0.69765   0.13407   0.22912   0.00000  Uiso   1.00
C133   C     0.98134   0.13387   0.22974   0.00000  Uiso   1.00
C134   C     0.83365   0.08747   0.24968   0.00000  Uiso   1.00
C135   C     0.85921   0.16451   0.15029   0.00000  Uiso   1.00
C136   C     0.92951   0.12979   0.01453   0.00000  Uiso   1.00
C137   C     0.87303   0.15610   0.09439   0.00000  Uiso   1.00
C138   C     0.74320   0.17750   0.43764   0.00000  Uiso   1.00
C139   C     0.72719   0.16866   0.49017   0.00000  Uiso   1.00
C140   C     0.75943   0.15482   0.01628   0.00000  Uiso   1.00
Cu141  Cu    0.78645   0.16666   0.25000   0.00000  Uiso   1.00
Cu142  Cu    0.88022   0.16667   0.25000   0.00000  Uiso   1.00
H143   H     0.94614   0.13355   0.08708   0.00000  Uiso   1.00
H144   H     0.88351   0.03711   0.29543   0.00000  Uiso   1.00
H145   H     0.78636   0.03915   0.19985   0.00000  Uiso   1.00
H146   H     0.94643   0.22683   0.28210   0.00000  Uiso   1.00
H147   H     0.72106   0.10796   0.21209   0.00000  Uiso   1.00
H148   H     0.96782   0.10752   0.21337   0.00000  Uiso   1.00
H149   H     0.96593   0.11897   0.49401   0.00000  Uiso   1.00
H150   H     0.80385   0.17726   0.08910   0.00000  Uiso   1.00
H151   H     0.68891   0.17226   0.01098   0.00000  Uiso   1.00
H152   H     0.88229   0.29510   0.29526   0.00000  Uiso   1.00
N153   N     0.71598   0.16666   0.24999   0.00000  Uiso   1.00
N154   N     0.95069   0.16669   0.24999   0.00000  Uiso   1.00
O155   O     0.79375   0.22678   0.25001   0.00000  Uiso   1.00
O156   O     0.87294   0.22679   0.25000   0.00000  Uiso   1.00
O157   O     0.77441   0.16665   0.32549   0.00000  Uiso   1.00
O158   O     0.85360   0.16666   0.32549   0.00000  Uiso   1.00
O159   O     0.79373   0.10654   0.25000   0.00000  Uiso   1.00
O160   O     0.87292   0.10655   0.24999   0.00000  Uiso   1.00
O161   O     0.81306   0.16667   0.17451   0.00000  Uiso   1.00
O162   O     0.89225   0.16668   0.17451   0.00000  Uiso   1.00
I163   I     0.76989   0.28444   0.17005   0.00000  Uiso   1.00
Cl164  Cl    0.69994   0.24229   0.30261   0.00000  Uiso   1.00
I165   I     0.97363   0.11369   0.38397   0.00000  Uiso   1.00
Cl166  Cl    0.70057   0.20144   0.41173   0.00000  Uiso   1.00
Cl167  Cl    0.73307   0.13400   0.07814   0.00000  Uiso   1.00
I168   I     0.90211   0.22118   0.39349   0.00000  Uiso   1.00
C169   C     0.16679   0.57921   0.24856   0.00000  Uiso   1.00
C170   C     0.14352   0.48766   0.49082   0.00000  Uiso   1.00
C171   C     0.15959   0.49366   0.43648   0.00000  Uiso   1.00
C172   C     0.17968   0.48288   0.01695   0.00000  Uiso   1.00
C173   C     0.22784   0.47067   0.48841   0.00000  Uiso   1.00
C174   C     0.24055   0.47137   0.43420   0.00000  Uiso   1.00
C175   C     0.21005   0.49377   0.41240   0.00000  Uiso   1.00
C176   C     0.17085   0.49472   0.06886   0.00000  Uiso   1.00
C177   C     0.25202   0.47238   0.06748   0.00000  Uiso   1.00
C178   C     0.12553   0.50283   0.40864   0.00000  Uiso   1.00
C179   C     0.19476   0.64501   0.27402   0.00000  Uiso   1.00
C180   C     0.14064   0.50184   0.35045   0.00000  Uiso   1.00
C181   C     0.19548   0.35443   0.27423   0.00000  Uiso   1.00
C182   C     0.16760   0.37624   0.24841   0.00000  Uiso   1.00
C183   C     0.14014   0.35540   0.22109   0.00000  Uiso   1.00
C184   C     0.14016   0.64587   0.21948   0.00000  Uiso   1.00
C185   C     0.16682   0.62388   0.24726   0.00000  Uiso   1.00
C186   C     0.30269   0.53322   0.26820   0.00000  Uiso   1.00
C187   C     0.01777   0.53283   0.27035   0.00000  Uiso   1.00
C188   C     0.03098   0.46741   0.22912   0.00000  Uiso   1.00
C189   C     0.31467   0.46720   0.22974   0.00000  Uiso   1.00
C190   C     0.16698   0.42081   0.24968   0.00000  Uiso   1.00
C191   C     0.19254   0.49784   0.15029   0.00000  Uiso   1.00
C192   C     0.26285   0.46312   0.01453   0.00000  Uiso   1.00
C193   C     0.20636   0.48944   0.09439   0.00000  Uiso   1.00
C194   C     0.07653   0.51084   0.43764   0.00000  Uiso   1.00
C195   C     0.06052   0.50200   0.49017   0.00000  Uiso   1.00
C196   C     0.09276   0.48815   0.01628   0.00000  Uiso   1.00
Cu197  Cu    0.11978   0.49999   0.25000   0.00000  Uiso   1.00
Cu198  Cu    0.21355   0.50001   0.25000   0.00000  Uiso   1.00
H199   H     0.27947   0.46689   0.08708   0.00000  Uiso   1.00
H200   H     0.21684   0.37044   0.29543   0.00000  Uiso   1.00
H201   H     0.11969   0.37248   0.19985   0.00000  Uiso   1.00
H202   H     0.27976   0.56017   0.28210   0.00000  Uiso   1.00
H203   H     0.05440   0.44130   0.21209   0.00000  Uiso   1.00
H204   H     0.30115   0.44085   0.21337   0.00000  Uiso   1.00
H205   H     0.29927   0.45230   0.49401   0.00000  Uiso   1.00
H206   H     0.13718   0.51059   0.08910   0.00000  Uiso   1.00
H207   H     0.02224   0.50559   0.01098   0.00000  Uiso   1.00
H208   H     0.21562   0.62843   0.29526   0.00000  Uiso   1.00
N209   N     0.04931   0.49999   0.24999   0.00000  Uiso   1.00
N210   N     0.28402   0.50002   0.24999   0.00000  Uiso   1.00
O211   O     0.12708   0.56011   0.25001   0.00000  Uiso   1.00
O212   O     0.20627   0.56012   0.25000   0.00000  Uiso   1.00
O213   O     0.10775   0.49998   0.32549   0.00000  Uiso   1.00
O214   O     0.18694   0.49999   0.32549   0.00000  Uiso   1.00
O215   O     0.12706   0.43988   0.25000   0.00000  Uiso   1.00
O216   O     0.20625   0.43989   0.24999   0.00000  Uiso   1.00
O217   O     0.14640   0.50001   0.17451   0.00000  Uiso   1.00
O218   O     0.22559   0.50002   0.17451   0.00000  Uiso   1.00
I219   I     0.10322   0.61777   0.17005   0.00000  Uiso   1.00
Cl220  Cl    0.03327   0.57562   0.30261   0.00000  Uiso   1.00
I221   I     0.30696   0.44702   0.38397   0.00000  Uiso   1.00
Cl222  Cl    0.03390   0.53477   0.41173   0.00000  Uiso   1.00
Cl223  Cl    0.06641   0.46733   0.07814   0.00000  Uiso   1.00
I224   I     0.23544   0.55451   0.39349   0.00000  Uiso   1.00
C225   C     0.50012   0.57921   0.24856   0.00000  Uiso   1.00
C226   C     0.47685   0.48766   0.49082   0.00000  Uiso   1.00
C227   C     0.49292   0.49366   0.43648   0.00000  Uiso   1.00
C228   C     0.51302   0.48288   0.01695   0.00000  Uiso   1.00
C229   C     0.56117   0.47067   0.48841   0.00000  Uiso   1.00
C230   C     0.57388   0.47137   0.43420   0.00000  Uiso   1.00
C231   C     0.54338   0.49377   0.41240   0.00000  Uiso   1.00
C232   C     0.50419   0.49472   0.06886   0.00000  Uiso   1.00
C233   C     0.58535   0.47238   0.06748   0.00000  Uiso   1.00
C234   C     0.45886   0.50283   0.40864   0.00000  Uiso   1.00
C235   C     0.52809   0.64501   0.27402   0.00000  Uiso   1.00
C236   C     0.47397   0.50184   0.35045   0.00000  Uiso   1.00
C237   C     0.52881   0.35443   0.27423   0.00000  Uiso   1.00
C238   C     0.50094   0.37624   0.24841   0.00000  Uiso   1.00
C239   C     0.47347   0.35540   0.22109   0.00000  Uiso   1.00
C240   C     0.47349   0.64587   0.21948   0.00000  Uiso   1.00
C241   C     0.50015   0.62388   0.24726   0.00000  Uiso   1.00
C242   C     0.63602   0.53322   0.26820   0.00000  Uiso   1.00
C243   C     0.35111   0.53283   0.27035   0.00000  Uiso   1.00
C244   C     0.36431   0.46741   0.22912   0.00000  Uiso   1.00
C245   C     0.64801   0.46720   0.22974   0.00000  Uiso   1.00
C246   C     0.50032   0.42081   0.24968   0.00000  Uiso   1.00
C247   C     0.52587   0.49784   0.15029   0.00000  Uiso   1.00
C248   C     0.59618   0.46312   0.01453   0.00000  Uiso   1.00
C249   C     0.53970   0.48944   0.09439   0.00000  Uiso   1.00
C250   C     0.40987   0.51084   0.43764   0.00000  Uiso   1.00
C251   C     0.39386   0.50200   0.49017   0.00000  Uiso   1.00
C252   C     0.42610   0.48815   0.01628   0.00000  Uiso   1.00
Cu253  Cu    0.45311   0.49999   0.25000   0.00000  Uiso   1.00
Cu254  Cu    0.54689   0.50001   0.25000   0.00000  Uiso   1.00
H255   H     0.61280   0.46689   0.08708   0.00000  Uiso   1.00
H256   H     0.55018   0.37044   0.29543   0.00000  Uiso   1.00
H257   H     0.45303   0.37248   0.19985   0.00000  Uiso   1.00
H258   H     0.61309   0.56017   0.28210   0.00000  Uiso   1.00
H259   H     0.38773   0.44130   0.21209   0.00000  Uiso   1.00
H260   H     0.63449   0.44085   0.21337   0.00000  Uiso   1.00
H261   H     0.63260   0.45230   0.49401   0.00000  Uiso   1.00
H262   H     0.47051   0.51059   0.08910   0.00000  Uiso   1.00
H263   H     0.35557   0.50559   0.01098   0.00000  Uiso   1.00
H264   H     0.54896   0.62843   0.29526   0.00000  Uiso   1.00
N265   N     0.38265   0.49999   0.24999   0.00000  Uiso   1.00
N266   N     0.61735   0.50002   0.24999   0.00000  Uiso   1.00
O267   O     0.46042   0.56011   0.25001   0.00000  Uiso   1.00
O268   O     0.53961   0.56012   0.25000   0.00000  Uiso   1.00
O269   O     0.44108   0.49998   0.32549   0.00000  Uiso   1.00
O270   O     0.52027   0.49999   0.32549   0.00000  Uiso   1.00
O271   O     0.46039   0.43988   0.25000   0.00000  Uiso   1.00
O272   O     0.53958   0.43989   0.24999   0.00000  Uiso   1.00
O273   O     0.47973   0.50001   0.17451   0.00000  Uiso   1.00
O274   O     0.55892   0.50002   0.17451   0.00000  Uiso   1.00
I275   I     0.43656   0.61777   0.17005   0.00000  Uiso   1.00
Cl276  Cl    0.36660   0.57562   0.30261   0.00000  Uiso   1.00
I277   I     0.64029   0.44702   0.38397   0.00000  Uiso   1.00
Cl278  Cl    0.36723   0.53477   0.41173   0.00000  Uiso   1.00
Cl279  Cl    0.39974   0.46733   0.07814   0.00000  Uiso   1.00
I280   I     0.56878   0.55451   0.39349   0.00000  Uiso   1.00
C281   C     0.83345   0.57921   0.24856   0.00000  Uiso   1.00
C282   C     0.81018   0.48766   0.49082   0.00000  Uiso   1.00
C283   C     0.82626   0.49366   0.43648   0.00000  Uiso   1.00
C284   C     0.84635   0.48288   0.01695   0.00000  Uiso   1.00
C285   C     0.89451   0.47067   0.48841   0.00000  Uiso   1.00
C286   C     0.90721   0.47137   0.43420   0.00000  Uiso   1.00
C287   C     0.87671   0.49377   0.41240   0.00000  Uiso   1.00
C288   C     0.83752   0.49472   0.06886   0.00000  Uiso   1.00
C289   C     0.91869   0.47238   0.06748   0.00000  Uiso   1.00
C290   C     0.79220   0.50283   0.40864   0.00000  Uiso   1.00
C291   C     0.86143   0.64501   0.27402   0.00000  Uiso   1.00
C292   C     0.80730   0.50184   0.35045   0.00000  Uiso   1.00
C293   C     0.86215   0.35443   0.27423   0.00000  Uiso   1.00
C294   C     0.83427   0.37624   0.24841   0.00000  Uiso   1.00
C295   C     0.80680   0.35540   0.22109   0.00000  Uiso   1.00
C296   C     0.80683   0.64587   0.21948   0.00000  Uiso   1.00
C297   C     0.83348   0.62388   0.24726   0.00000  Uiso   1.00
C298   C     0.96935   0.53322   0.26820   0.00000  Uiso   1.00
C299   C     0.68444   0.53283   0.27035   0.00000  Uiso   1.00
C300   C     0.69765   0.46741   0.22912   0.00000  Uiso   1.00
C301   C     0.98134   0.46720   0.22974   0.00000  Uiso   1.00
C302   C     0.83365   0.42081   0.24968   0.00000  Uiso   1.00
C303   C     0.85921   0.49784   0.15029   0.00000  Uiso   1.00
C304   C     0.92951   0.46312   0.01453   0.00000  Uiso   1.00
C305   C     0.87303   0.48944   0.09439   0.00000  Uiso   1.00
C306   C     0.74320   0.51084   0.43764   0.00000  Uiso   1.00
C307   C     0.72719   0.50200   0.49017   0.00000  Uiso   1.00
C308   C     0.75943   0.48815   0.01628   0.00000  Uiso   1.00
Cu309  Cu    0.78645   0.49999   0.25000   0.00000  Uiso   1.00
Cu310  Cu    0.88022   0.50001   0.25000   0.00000  Uiso   1.00
H311   H     0.94614   0.46689   0.08708   0.00000  Uiso   1.00
H312   H     0.88351   0.37044   0.29543   0.00000  Uiso   1.00
H313   H     0.78636   0.37248   0.19985   0.00000  Uiso   1.00
H314   H     0.94643   0.56017   0.28210   0.00000  Uiso   1.00
H315   H     0.72106   0.44130   0.21209   0.00000  Uiso   1.00
H316   H     0.96782   0.44085   0.21337   0.00000  Uiso   1.00
H317   H     0.96593   0.45230   0.49401   0.00000  Uiso   1.00
H318   H     0.80385   0.51059   0.08910   0.00000  Uiso   1.00
H319   H     0.68891   0.50559   0.01098   0.00000  Uiso   1.00
H320   H     0.88229   0.62843   0.29526   0.00000  Uiso   1.00
N321   N     0.71598   0.49999   0.24999   0.00000  Uiso   1.00
N322   N     0.95069   0.50002   0.24999   0.00000  Uiso   1.00
O323   O     0.79375   0.56011   0.25001   0.00000  Uiso   1.00
O324   O     0.87294   0.56012   0.25000   0.00000  Uiso   1.00
O325   O     0.77441   0.49998   0.32549   0.00000  Uiso   1.00
O326   O     0.85360   0.49999   0.32549   0.00000  Uiso   1.00
O327   O     0.79373   0.43988   0.25000   0.00000  Uiso   1.00
O328   O     0.87292   0.43989   0.24999   0.00000  Uiso   1.00
O329   O     0.81306   0.50001   0.17451   0.00000  Uiso   1.00
O330   O     0.89225   0.50002   0.17451   0.00000  Uiso   1.00
I331   I     0.76989   0.61777   0.17005   0.00000  Uiso   1.00
Cl332  Cl    0.69994   0.57562   0.30261   0.00000  Uiso   1.00
I333   I     0.97363   0.44702   0.38397   0.00000  Uiso   1.00
Cl334  Cl    0.70057   0.53477   0.41173   0.00000  Uiso   1.00
Cl335  Cl    0.73307   0.46733   0.07814   0.00000  Uiso   1.00
I336   I     0.90211   0.55451   0.39349   0.00000  Uiso   1.00
C337   C     0.16679   0.91254   0.24856   0.00000  Uiso   1.00
C338   C     0.14352   0.82099   0.49082   0.00000  Uiso   1.00
C339   C     0.15959   0.82699   0.43648   0.00000  Uiso   1.00
C340   C     0.17968   0.81622   0.01695   0.00000  Uiso   1.00
C341   C     0.22784   0.80401   0.48841   0.00000  Uiso   1.00
C342   C     0.24055   0.80470   0.43420   0.00000  Uiso   1.00
C343   C     0.21005   0.82711   0.41240   0.00000  Uiso   1.00
C344   C     0.17085   0.82806   0.06886   0.00000  Uiso   1.00
C345   C     0.25202   0.80572   0.06748   0.00000  Uiso   1.00
C346   C     0.12553   0.83616   0.40864   0.00000  Uiso   1.00
C347   C     0.19476   0.97834   0.27402   0.00000  Uiso   1.00
C348   C     0.14064   0.83518   0.35045   0.00000  Uiso   1.00
C349   C     0.19548   0.68776   0.27423   0.00000  Uiso   1.00
C350   C     0.16760   0.70957   0.24841   0.00000  Uiso   1.00
C351   C     0.14014   0.68873   0.22109   0.00000  Uiso   1.00
C352   C     0.14016   0.97921   0.21948   0.00000  Uiso   1.00
C353   C     0.16682   0.95721   0.24726   0.00000  Uiso   1.00
C354   C     0.30269   0.86656   0.26820   0.00000  Uiso   1.00
C355   C     0.01777   0.86616   0.27035   0.00000  Uiso   1.00
C356   C     0.03098   0.80074   0.22912   0.00000  Uiso   1.00
C357   C     0.31467   0.80053   0.22974   0.00000  Uiso   1.00
C358   C     0.16698   0.75414   0.24968   0.00000  Uiso   1.00
C359   C     0.19254   0.83118   0.15029   0.00000  Uiso   1.00
C360   C     0.26285   0.79646   0.01453   0.00000  Uiso   1.00
C361   C     0.20636   0.82277   0.09439   0.00000  Uiso   1.00
C362   C     0.07653   0.84417   0.43764   0.00000  Uiso   1.00
C363   C     0.06052   0.83533   0.49017   0.00000  Uiso   1.00
C364   C     0.09276   0.82149   0.01628   0.00000  Uiso   1.00
Cu365  Cu    0.11978   0.83333   0.25000   0.00000  Uiso   1.00
Cu366  Cu    0.21355   0.83334   0.25000   0.00000  Uiso   1.00
H367   H     0.27947   0.80022   0.08708   0.00000  Uiso   1.00
H368   H     0.21684   0.70378   0.29543   0.00000  Uiso   1.00
H369   H     0.11969   0.70582   0.19985   0.00000  Uiso   1.00
H370   H     0.27976   0.89350   0.28210   0.00000  Uiso   1.00
H371   H     0.05440   0.77463   0.21209   0.00000  Uiso   1.00
H372   H     0.30115   0.77418   0.21337   0.00000  Uiso   1.00
H373   H     0.29927   0.78564   0.49401   0.00000  Uiso   1.00
H374   H     0.13718   0.84392   0.08910   0.00000  Uiso   1.00
H375   H     0.02224   0.83892   0.01098   0.00000  Uiso   1.00
H376   H     0.21562   0.96176   0.29526   0.00000  Uiso   1.00
N377   N     0.04931   0.83332   0.24999   0.00000  Uiso   1.00
N378   N     0.28402   0.83335   0.24999   0.00000  Uiso   1.00
O379   O     0.12708   0.89345   0.25001   0.00000  Uiso   1.00
O380   O     0.20627   0.89346   0.25000   0.00000  Uiso   1.00
O381   O     0.10775   0.83332   0.32549   0.00000  Uiso   1.00
O382   O     0.18694   0.83333   0.32549   0.00000  Uiso   1.00
O383   O     0.12706   0.77321   0.25000   0.00000  Uiso   1.00
O384   O     0.20625   0.77322   0.24999   0.00000  Uiso   1.00
O385   O     0.14640   0.83334   0.17451   0.00000  Uiso   1.00
O386   O     0.22559   0.83335   0.17451   0.00000  Uiso   1.00
I387   I     0.10322   0.95111   0.17005   0.00000  Uiso   1.00
Cl388  Cl    0.03327   0.90896   0.30261   0.00000  Uiso   1.00
I389   I     0.30696   0.78036   0.38397   0.00000  Uiso   1.00
Cl390  Cl    0.03390   0.86810   0.41173   0.00000  Uiso   1.00
Cl391  Cl    0.06641   0.80066   0.07814   0.00000  Uiso   1.00
I392   I     0.23544   0.88784   0.39349   0.00000  Uiso   1.00
C393   C     0.50012   0.91254   0.24856   0.00000  Uiso   1.00
C394   C     0.47685   0.82099   0.49082   0.00000  Uiso   1.00
C395   C     0.49292   0.82699   0.43648   0.00000  Uiso   1.00
C396   C     0.51302   0.81622   0.01695   0.00000  Uiso   1.00
C397   C     0.56117   0.80401   0.48841   0.00000  Uiso   1.00
C398   C     0.57388   0.80470   0.43420   0.00000  Uiso   1.00
C399   C     0.54338   0.82711   0.41240   0.00000  Uiso   1.00
C400   C     0.50419   0.82806   0.06886   0.00000  Uiso   1.00
C401   C     0.58535   0.80572   0.06748   0.00000  Uiso   1.00
C402   C     0.45886   0.83616   0.40864   0.00000  Uiso   1.00
C403   C     0.52809   0.97834   0.27402   0.00000  Uiso   1.00
C404   C     0.47397   0.83518   0.35045   0.00000  Uiso   1.00
C405   C     0.52881   0.68776   0.27423   0.00000  Uiso   1.00
C406   C     0.50094   0.70957   0.24841   0.00000  Uiso   1.00
C407   C     0.47347   0.68873   0.22109   0.00000  Uiso   1.00
C408   C     0.47349   0.97921   0.21948   0.00000  Uiso   1.00
C409   C     0.50015   0.95721   0.24726   0.00000  Uiso   1.00
C410   C     0.63602   0.86656   0.26820   0.00000  Uiso   1.00
C411   C     0.35111   0.86616   0.27035   0.00000  Uiso   1.00
C412   C     0.36431   0.80074   0.22912   0.00000  Uiso   1.00
C413   C     0.64801   0.80053   0.22974   0.00000  Uiso   1.00
C414   C     0.50032   0.75414   0.24968   0.00000  Uiso   1.00
C415   C     0.52587   0.83118   0.15029   0.00000  Uiso   1.00
C416   C     0.59618   0.79646   0.01453   0.00000  Uiso   1.00
C417   C     0.53970   0.82277   0.09439   0.00000  Uiso   1.00
C418   C     0.40987   0.84417   0.43764   0.00000  Uiso   1.00
C419   C     0.39386   0.83533   0.49017   0.00000  Uiso   1.00
C420   C     0.42610   0.82149   0.01628   0.00000  Uiso   1.00
Cu421  Cu    0.45311   0.83333   0.25000   0.00000  Uiso   1.00
Cu422  Cu    0.54689   0.83334   0.25000   0.00000  Uiso   1.00
H423   H     0.61280   0.80022   0.08708   0.00000  Uiso   1.00
H424   H     0.55018   0.70378   0.29543   0.00000  Uiso   1.00
H425   H     0.45303   0.70582   0.19985   0.00000  Uiso   1.00
H426   H     0.61309   0.89350   0.28210   0.00000  Uiso   1.00
H427   H     0.38773   0.77463   0.21209   0.00000  Uiso   1.00
H428   H     0.63449   0.77418   0.21337   0.00000  Uiso   1.00
H429   H     0.63260   0.78564   0.49401   0.00000  Uiso   1.00
H430   H     0.47051   0.84392   0.08910   0.00000  Uiso   1.00
H431   H     0.35557   0.83892   0.01098   0.00000  Uiso   1.00
H432   H     0.54896   0.96176   0.29526   0.00000  Uiso   1.00
N433   N     0.38265   0.83332   0.24999   0.00000  Uiso   1.00
N434   N     0.61735   0.83335   0.24999   0.00000  Uiso   1.00
O435   O     0.46042   0.89345   0.25001   0.00000  Uiso   1.00
O436   O     0.53961   0.89346   0.25000   0.00000  Uiso   1.00
O437   O     0.44108   0.83332   0.32549   0.00000  Uiso   1.00
O438   O     0.52027   0.83333   0.32549   0.00000  Uiso   1.00
O439   O     0.46039   0.77321   0.25000   0.00000  Uiso   1.00
O440   O     0.53958   0.77322   0.24999   0.00000  Uiso   1.00
O441   O     0.47973   0.83334   0.17451   0.00000  Uiso   1.00
O442   O     0.55892   0.83335   0.17451   0.00000  Uiso   1.00
I443   I     0.43656   0.95111   0.17005   0.00000  Uiso   1.00
Cl444  Cl    0.36660   0.90896   0.30261   0.00000  Uiso   1.00
I445   I     0.64029   0.78036   0.38397   0.00000  Uiso   1.00
Cl446  Cl    0.36723   0.86810   0.41173   0.00000  Uiso   1.00
Cl447  Cl    0.39974   0.80066   0.07814   0.00000  Uiso   1.00
I448   I     0.56878   0.88784   0.39349   0.00000  Uiso   1.00
C449   C     0.83345   0.91254   0.24856   0.00000  Uiso   1.00
C450   C     0.81018   0.82099   0.49082   0.00000  Uiso   1.00
C451   C     0.82626   0.82699   0.43648   0.00000  Uiso   1.00
C452   C     0.84635   0.81622   0.01695   0.00000  Uiso   1.00
C453   C     0.89451   0.80401   0.48841   0.00000  Uiso   1.00
C454   C     0.90721   0.80470   0.43420   0.00000  Uiso   1.00
C455   C     0.87671   0.82711   0.41240   0.00000  Uiso   1.00
C456   C     0.83752   0.82806   0.06886   0.00000  Uiso   1.00
C457   C     0.91869   0.80572   0.06748   0.00000  Uiso   1.00
C458   C     0.79220   0.83616   0.40864   0.00000  Uiso   1.00
C459   C     0.86143   0.97834   0.27402   0.00000  Uiso   1.00
C460   C     0.80730   0.83518   0.35045   0.00000  Uiso   1.00
C461   C     0.86215   0.68776   0.27423   0.00000  Uiso   1.00
C462   C     0.83427   0.70957   0.24841   0.00000  Uiso   1.00
C463   C     0.80680   0.68873   0.22109   0.00000  Uiso   1.00
C464   C     0.80683   0.97921   0.21948   0.00000  Uiso   1.00
C465   C     0.83348   0.95721   0.24726   0.00000  Uiso   1.00
C466   C     0.96935   0.86656   0.26820   0.00000  Uiso   1.00
C467   C     0.68444   0.86616   0.27035   0.00000  Uiso   1.00
C468   C     0.69765   0.80074   0.22912   0.00000  Uiso   1.00
C469   C     0.98134   0.80053   0.22974   0.00000  Uiso   1.00
C470   C     0.83365   0.75414   0.24968   0.00000  Uiso   1.00
C471   C     0.85921   0.83118   0.15029   0.00000  Uiso   1.00
C472   C     0.92951   0.79646   0.01453   0.00000  Uiso   1.00
C473   C     0.87303   0.82277   0.09439   0.00000  Uiso   1.00
C474   C     0.74320   0.84417   0.43764   0.00000  Uiso   1.00
C475   C     0.72719   0.83533   0.49017   0.00000  Uiso   1.00
C476   C     0.75943   0.82149   0.01628   0.00000  Uiso   1.00
Cu477  Cu    0.78645   0.83333   0.25000   0.00000  Uiso   1.00
Cu478  Cu    0.88022   0.83334   0.25000   0.00000  Uiso   1.00
H479   H     0.94614   0.80022   0.08708   0.00000  Uiso   1.00
H480   H     0.88351   0.70378   0.29543   0.00000  Uiso   1.00
H481   H     0.78636   0.70582   0.19985   0.00000  Uiso   1.00
H482   H     0.94643   0.89350   0.28210   0.00000  Uiso   1.00
H483   H     0.72106   0.77463   0.21209   0.00000  Uiso   1.00
H484   H     0.96782   0.77418   0.21337   0.00000  Uiso   1.00
H485   H     0.96593   0.78564   0.49401   0.00000  Uiso   1.00
H486   H     0.80385   0.84392   0.08910   0.00000  Uiso   1.00
H487   H     0.68891   0.83892   0.01098   0.00000  Uiso   1.00
H488   H     0.88229   0.96176   0.29526   0.00000  Uiso   1.00
N489   N     0.71598   0.83332   0.24999   0.00000  Uiso   1.00
N490   N     0.95069   0.83335   0.24999   0.00000  Uiso   1.00
O491   O     0.79375   0.89345   0.25001   0.00000  Uiso   1.00
O492   O     0.87294   0.89346   0.25000   0.00000  Uiso   1.00
O493   O     0.77441   0.83332   0.32549   0.00000  Uiso   1.00
O494   O     0.85360   0.83333   0.32549   0.00000  Uiso   1.00
O495   O     0.79373   0.77321   0.25000   0.00000  Uiso   1.00
O496   O     0.87292   0.77322   0.24999   0.00000  Uiso   1.00
O497   O     0.81306   0.83334   0.17451   0.00000  Uiso   1.00
O498   O     0.89225   0.83335   0.17451   0.00000  Uiso   1.00
I499   I     0.76989   0.95111   0.17005   0.00000  Uiso   1.00
Cl500  Cl    0.69994   0.90896   0.30261   0.00000  Uiso   1.00
I501   I     0.97363   0.78036   0.38397   0.00000  Uiso   1.00
Cl502  Cl    0.70057   0.86810   0.41173   0.00000  Uiso   1.00
Cl503  Cl    0.73307   0.80066   0.07814   0.00000  Uiso   1.00
I504   I     0.90211   0.88784   0.39349   0.00000  Uiso   1.00
C505   C     0.16679   0.24587   0.74856   0.00000  Uiso   1.00
C506   C     0.14352   0.15432   0.99082   0.00000  Uiso   1.00
C507   C     0.15959   0.16032   0.93648   0.00000  Uiso   1.00
C508   C     0.17968   0.14955   0.51695   0.00000  Uiso   1.00
C509   C     0.22784   0.13734   0.98841   0.00000  Uiso   1.00
C510   C     0.24055   0.13803   0.93420   0.00000  Uiso   1.00
C511   C     0.21005   0.16044   0.91240   0.00000  Uiso   1.00
C512   C     0.17085   0.16139   0.56886   0.00000  Uiso   1.00
C513   C     0.25202   0.13905   0.56748   0.00000  Uiso   1.00
C514   C     0.12553   0.16950   0.90864   0.00000  Uiso   1.00
C515   C     0.19476   0.31168   0.77402   0.00000  Uiso   1.00
C516   C     0.14064   0.16851   0.85045   0.00000  Uiso   1.00
C517   C     0.19548   0.02109   0.77423   0.00000  Uiso   1.00
C518   C     0.16760   0.04290   0.74841   0.00000  Uiso   1.00
C519   C     0.14014   0.02206   0.72109   0.00000  Uiso   1.00
C520   C     0.14016   0.31254   0.71948   0.00000  Uiso   1.00
C521   C     0.16682   0.29054   0.74726   0.00000  Uiso   1.00
C522   C     0.30269   0.19989   0.76820   0.00000  Uiso   1.00
C523   C     0.01777   0.19950   0.77035   0.00000  Uiso   1.00
C524   C     0.03098   0.13407   0.72912   0.00000  Uiso   1.00
C525   C     0.31467   0.13387   0.72974   0.00000  Uiso   1.00
C526   C     0.16698   0.08747   0.74968   0.00000  Uiso   1.00
C527   C     0.19254   0.16451   0.65029   0.00000  Uiso   1.00
C528   C     0.26285   0.12979   0.51453   0.00000  Uiso   1.00
C529   C     0.20636   0.15610   0.59439   0.00000  Uiso   1.00
C530   C     0.07653   0.17750   0.93764   0.00000  Uiso   1.00
C531   C     0.06052   0.16866   0.99017   0.00000  Uiso   1.00
C532   C     0.09276   0.15482   0.51628   0.00000  Uiso   1.00
Cu533  Cu    0.11978   0.16666   0.75000   0.00000  Uiso   1.00
Cu534  Cu    0.21355   0.16667   0.75000   0.00000  Uiso   1.00
H535   H     0.27947   0.13355   0.58708   0.00000  Uiso   1.00
H536   H     0.21684   0.03711   0.79543   0.00000  Uiso   1.00
H537   H     0.11969   0.03915   0.69985   0.00000  Uiso   1.00
H538   H     0.27976   0.22683   0.78210   0.00000  Uiso   1.00
H539   H     0.05440   0.10796   0.71209   0.00000  Uiso   1.00
H540   H     0.30115   0.10752   0.71337   0.00000  Uiso   1.00
H541   H     0.29927   0.11897   0.99401   0.00000  Uiso   1.00
H542   H     0.13718   0.17726   0.58910   0.00000  Uiso   1.00
H543   H     0.02224   0.17226   0.51098   0.00000  Uiso   1.00
H544   H     0.21562   0.29510   0.79526   0.00000  Uiso   1.00
N545   N     0.04931   0.16666   0.74999   0.00000  Uiso   1.00
N546   N     0.28402   0.16669   0.74999   0.00000  Uiso   1.00
O547   O     0.12708   0.22678   0.75001   0.00000  Uiso   1.00
O548   O     0.20627   0.22679   0.75000   0.00000  Uiso   1.00
O549   O     0.10775   0.16665   0.82549   0.00000  Uiso   1.00
O550   O     0.18694   0.16666   0.82549   0.00000  Uiso   1.00
O551   O     0.12706   0.10654   0.75000   0.00000  Uiso   1.00
O552   O     0.20625   0.10655   0.74999   0.00000  Uiso   1.00
O553   O     0.14640   0.16667   0.67451   0.00000  Uiso   1.00
O554   O     0.22559   0.16668   0.67451   0.00000  Uiso   1.00
I555   I     0.10322   0.28444   0.67005   0.00000  Uiso   1.00
Cl556  Cl    0.03327   0.24229   0.80261   0.00000  Uiso   1.00
I557   I     0.30696   0.11369   0.88397   0.00000  Uiso   1.00
Cl558  Cl    0.03390   0.20144   0.91173   0.00000  Uiso   1.00
Cl559  Cl    0.06641   0.13400   0.57814   0.00000  Uiso   1.00
I560   I     0.23544   0.22118   0.89349   0.00000  Uiso   1.00
C561   C     0.50012   0.24587   0.74856   0.00000  Uiso   1.00
C562   C     0.47685   0.15432   0.99082   0.00000  Uiso   1.00
C563   C     0.49292   0.16032   0.93648   0.00000  Uiso   1.00
C564   C     0.51302   0.14955   0.51695   0.00000  Uiso   1.00
C565   C     0.56117   0.13734   0.98841   0.00000  Uiso   1.00
C566   C     0.57388   0.13803   0.93420   0.00000  Uiso   1.00
C567   C     0.54338   0.16044   0.91240   0.00000  Uiso   1.00
C568   C     0.50419   0.16139   0.56886   0.00000  Uiso   1.00
C569   C     0.58535   0.13905   0.56748   0.00000  Uiso   1.00
C570   C     0.45886   0.16950   0.90864   0.00000  Uiso   1.00
C571   C     0.52809   0.31168   0.77402   0.00000  Uiso   1.00
C572   C     0.47397   0.16851   0.85045   0.00000  Uiso   1.00
C573   C     0.52881   0.02109   0.77423   0.00000  Uiso   1.00
C574   C     0.50094   0.04290   0.74841   0.00000  Uiso   1.00
C575   C     0.47347   0.02206   0.72109   0.00000  Uiso   1.00
C576   C     0.47349   0.31254   0.71948   0.00000  Uiso   1.00
C577   C     0.50015   0.29054   0.74726   0.00000  Uiso   1.00
C578   C     0.63602   0.19989   0.76820   0.00000  Uiso   1.00
C579   C     0.35111   0.19950   0.77035   0.00000  Uiso   1.00
C580   C     0.36431   0.13407   0.72912   0.00000  Uiso   1.00
C581   C     0.64801   0.13387   0.72974   0.00000  Uiso   1.00
C582   C     0.50032   0.08747   0.74968   0.00000  Uiso   1.00
C583   C     0.52587   0.16451   0.65029   0.00000  Uiso   1.00
C584   C     0.59618   0.12979   0.51453   0.00000  Uiso   1.00
C585   C     0.53970   0.15610   0.59439   0.00000  Uiso   1.00
C586   C     0.40987   0.17750   0.93764   0.00000  Uiso   1.00
C587   C     0.39386   0.16866   0.99017   0.00000  Uiso   1.00
C588   C     0.42610   0.15482   0.51628   0.00000  Uiso   1.00
Cu589  Cu    0.45311   0.16666   0.75000   0.00000  Uiso   1.00
Cu590  Cu    0.54689   0.16667   0.75000   0.00000  Uiso   1.00
H591   H     0.61280   0.13355   0.58708   0.00000  Uiso   1.00
H592   H     0.55018   0.03711   0.79543   0.00000  Uiso   1.00
H593   H     0.45303   0.03915   0.69985   0.00000  Uiso   1.00
H594   H     0.61309   0.22683   0.78210   0.00000  Uiso   1.00
H595   H     0.38773   0.10796   0.71209   0.00000  Uiso   1.00
H596   H     0.63449   0.10752   0.71337   0.00000  Uiso   1.00
H597   H     0.63260   0.11897   0.99401   0.00000  Uiso   1.00
H598   H     0.47051   0.17726   0.58910   0.00000  Uiso   1.00
H599   H     0.35557   0.17226   0.51098   0.00000  Uiso   1.00
H600   H     0.54896   0.29510   0.79526   0.00000  Uiso   1.00
N601   N     0.38265   0.16666   0.74999   0.00000  Uiso   1.00
N602   N     0.61735   0.16669   0.74999   0.00000  Uiso   1.00
O603   O     0.46042   0.22678   0.75001   0.00000  Uiso   1.00
O604   O     0.53961   0.22679   0.75000   0.00000  Uiso   1.00
O605   O     0.44108   0.16665   0.82549   0.00000  Uiso   1.00
O606   O     0.52027   0.16666   0.82549   0.00000  Uiso   1.00
O607   O     0.46039   0.10654   0.75000   0.00000  Uiso   1.00
O608   O     0.53958   0.10655   0.74999   0.00000  Uiso   1.00
O609   O     0.47973   0.16667   0.67451   0.00000  Uiso   1.00
O610   O     0.55892   0.16668   0.67451   0.00000  Uiso   1.00
I611   I     0.43656   0.28444   0.67005   0.00000  Uiso   1.00
Cl612  Cl    0.36660   0.24229   0.80261   0.00000  Uiso   1.00
I613   I     0.64029   0.11369   0.88397   0.00000  Uiso   1.00
Cl614  Cl    0.36723   0.20144   0.91173   0.00000  Uiso   1.00
Cl615  Cl    0.39974   0.13400   0.57814   0.00000  Uiso   1.00
I616   I     0.56878   0.22118   0.89349   0.00000  Uiso   1.00
C617   C     0.83345   0.24587   0.74856   0.00000  Uiso   1.00
C618   C     0.81018   0.15432   0.99082   0.00000  Uiso   1.00
C619   C     0.82626   0.16032   0.93648   0.00000  Uiso   1.00
C620   C     0.84635   0.14955   0.51695   0.00000  Uiso   1.00
C621   C     0.89451   0.13734   0.98841   0.00000  Uiso   1.00
C622   C     0.90721   0.13803   0.93420   0.00000  Uiso   1.00
C623   C     0.87671   0.16044   0.91240   0.00000  Uiso   1.00
C624   C     0.83752   0.16139   0.56886   0.00000  Uiso   1.00
C625   C     0.91869   0.13905   0.56748   0.00000  Uiso   1.00
C626   C     0.79220   0.16950   0.90864   0.00000  Uiso   1.00
C627   C     0.86143   0.31168   0.77402   0.00000  Uiso   1.00
C628   C     0.80730   0.16851   0.85045   0.00000  Uiso   1.00
C629   C     0.86215   0.02109   0.77423   0.00000  Uiso   1.00
C630   C     0.83427   0.04290   0.74841   0.00000  Uiso   1.00
C631   C     0.80680   0.02206   0.72109   0.00000  Uiso   1.00
C632   C     0.80683   0.31254   0.71948   0.00000  Uiso   1.00
C633   C     0.83348   0.29054   0.74726   0.00000  Uiso   1.00
C634   C     0.96935   0.19989   0.76820   0.00000  Uiso   1.00
C635   C     0.68444   0.19950   0.77035   0.00000  Uiso   1.00
C636   C     0.69765   0.13407   0.72912   0.00000  Uiso   1.00
C637   C     0.98134   0.13387   0.72974   0.00000  Uiso   1.00
C638   C     0.83365   0.08747   0.74968   0.00000  Uiso   1.00
C639   C     0.85921   0.16451   0.65029   0.00000  Uiso   1.00
C640   C     0.92951   0.12979   0.51453   0.00000  Uiso   1.00
C641   C     0.87303   0.15610   0.59439   0.00000  Uiso   1.00
C642   C     0.74320   0.17750   0.93764   0.00000  Uiso   1.00
C643   C     0.72719   0.16866   0.99017   0.00000  Uiso   1.00
C644   C     0.75943   0.15482   0.51628   0.00000  Uiso   1.00
Cu645  Cu    0.78645   0.16666   0.75000   0.00000  Uiso   1.00
Cu646  Cu    0.88022   0.16667   0.75000   0.00000  Uiso   1.00
H647   H     0.94614   0.13355   0.58708   0.00000  Uiso   1.00
H648   H     0.88351   0.03711   0.79543   0.00000  Uiso   1.00
H649   H     0.78636   0.03915   0.69985   0.00000  Uiso   1.00
H650   H     0.94643   0.22683   0.78210   0.00000  Uiso   1.00
H651   H     0.72106   0.10796   0.71209   0.00000  Uiso   1.00
H652   H     0.96782   0.10752   0.71337   0.00000  Uiso   1.00
H653   H     0.96593   0.11897   0.99401   0.00000  Uiso   1.00
H654   H     0.80385   0.17726   0.58910   0.00000  Uiso   1.00
H655   H     0.68891   0.17226   0.51098   0.00000  Uiso   1.00
H656   H     0.88229   0.29510   0.79526   0.00000  Uiso   1.00
N657   N     0.71598   0.16666   0.74999   0.00000  Uiso   1.00
N658   N     0.95069   0.16669   0.74999   0.00000  Uiso   1.00
O659   O     0.79375   0.22678   0.75001   0.00000  Uiso   1.00
O660   O     0.87294   0.22679   0.75000   0.00000  Uiso   1.00
O661   O     0.77441   0.16665   0.82549   0.00000  Uiso   1.00
O662   O     0.85360   0.16666   0.82549   0.00000  Uiso   1.00
O663   O     0.79373   0.10654   0.75000   0.00000  Uiso   1.00
O664   O     0.87292   0.10655   0.74999   0.00000  Uiso   1.00
O665   O     0.81306   0.16667   0.67451   0.00000  Uiso   1.00
O666   O     0.89225   0.16668   0.67451   0.00000  Uiso   1.00
I667   I     0.76989   0.28444   0.67005   0.00000  Uiso   1.00
Cl668  Cl    0.69994   0.24229   0.80261   0.00000  Uiso   1.00
I669   I     0.97363   0.11369   0.88397   0.00000  Uiso   1.00
Cl670  Cl    0.70057   0.20144   0.91173   0.00000  Uiso   1.00
Cl671  Cl    0.73307   0.13400   0.57814   0.00000  Uiso   1.00
I672   I     0.90211   0.22118   0.89349   0.00000  Uiso   1.00
C673   C     0.16679   0.57921   0.74856   0.00000  Uiso   1.00
C674   C     0.14352   0.48766   0.99082   0.00000  Uiso   1.00
C675   C     0.15959   0.49366   0.93648   0.00000  Uiso   1.00
C676   C     0.17968   0.48288   0.51695   0.00000  Uiso   1.00
C677   C     0.22784   0.47067   0.98841   0.00000  Uiso   1.00
C678   C     0.24055   0.47137   0.93420   0.00000  Uiso   1.00
C679   C     0.21005   0.49377   0.91240   0.00000  Uiso   1.00
C680   C     0.17085   0.49472   0.56886   0.00000  Uiso   1.00
C681   C     0.25202   0.47238   0.56748   0.00000  Uiso   1.00
C682   C     0.12553   0.50283   0.90864   0.00000  Uiso   1.00
C683   C     0.19476   0.64501   0.77402   0.00000  Uiso   1.00
C684   C     0.14064   0.50184   0.85045   0.00000  Uiso   1.00
C685   C     0.19548   0.35443   0.77423   0.00000  Uiso   1.00
C686   C     0.16760   0.37624   0.74841   0.00000  Uiso   1.00
C687   C     0.14014   0.35540   0.72109   0.00000  Uiso   1.00
C688   C     0.14016   0.64587   0.71948   0.00000  Uiso   1.00
C689   C     0.16682   0.62388   0.74726   0.00000  Uiso   1.00
C690   C     0.30269   0.53322   0.76820   0.00000  Uiso   1.00
C691   C     0.01777   0.53283   0.77035   0.00000  Uiso   1.00
C692   C     0.03098   0.46741   0.72912   0.00000  Uiso   1.00
C693   C     0.31467   0.46720   0.72974   0.00000  Uiso   1.00
C694   C     0.16698   0.42081   0.74968   0.00000  Uiso   1.00
C695   C     0.19254   0.49784   0.65029   0.00000  Uiso   1.00
C696   C     0.26285   0.46312   0.51453   0.00000  Uiso   1.00
C697   C     0.20636   0.48944   0.59439   0.00000  Uiso   1.00
C698   C     0.07653   0.51084   0.93764   0.00000  Uiso   1.00
C699   C     0.06052   0.50200   0.99017   0.00000  Uiso   1.00
C700   C     0.09276   0.48815   0.51628   0.00000  Uiso   1.00
Cu701  Cu    0.11978   0.49999   0.75000   0.00000  Uiso   1.00
Cu702  Cu    0.21355   0.50001   0.75000   0.00000  Uiso   1.00
H703   H     0.27947   0.46689   0.58708   0.00000  Uiso   1.00
H704   H     0.21684   0.37044   0.79543   0.00000  Uiso   1.00
H705   H     0.11969   0.37248   0.69985   0.00000  Uiso   1.00
H706   H     0.27976   0.56017   0.78210   0.00000  Uiso   1.00
H707   H     0.05440   0.44130   0.71209   0.00000  Uiso   1.00
H708   H     0.30115   0.44085   0.71337   0.00000  Uiso   1.00
H709   H     0.29927   0.45230   0.99401   0.00000  Uiso   1.00
H710   H     0.13718   0.51059   0.58910   0.00000  Uiso   1.00
H711   H     0.02224   0.50559   0.51098   0.00000  Uiso   1.00
H712   H     0.21562   0.62843   0.79526   0.00000  Uiso   1.00
N713   N     0.04931   0.49999   0.74999   0.00000  Uiso   1.00
N714   N     0.28402   0.50002   0.74999   0.00000  Uiso   1.00
O715   O     0.12708   0.56011   0.75001   0.00000  Uiso   1.00
O716   O     0.20627   0.56012   0.75000   0.00000  Uiso   1.00
O717   O     0.10775   0.49998   0.82549   0.00000  Uiso   1.00
O718   O     0.18694   0.49999   0.82549   0.00000  Uiso   1.00
O719   O     0.12706   0.43988   0.75000   0.00000  Uiso   1.00
O720   O     0.20625   0.43989   0.74999   0.00000  Uiso   1.00
O721   O     0.14640   0.50001   0.67451   0.00000  Uiso   1.00
O722   O     0.22559   0.50002   0.67451   0.00000  Uiso   1.00
I723   I     0.10322   0.61777   0.67005   0.00000  Uiso   1.00
Cl724  Cl    0.03327   0.57562   0.80261   0.00000  Uiso   1.00
I725   I     0.30696   0.44702   0.88397   0.00000  Uiso   1.00
Cl726  Cl    0.03390   0.53477   0.91173   0.00000  Uiso   1.00
Cl727  Cl    0.06641   0.46733   0.57814   0.00000  Uiso   1.00
I728   I     0.23544   0.55451   0.89349   0.00000  Uiso   1.00
C729   C     0.50012   0.57921   0.74856   0.00000  Uiso   1.00
C730   C     0.47685   0.48766   0.99082   0.00000  Uiso   1.00
C731   C     0.49292   0.49366   0.93648   0.00000  Uiso   1.00
C732   C     0.51302   0.48288   0.51695   0.00000  Uiso   1.00
C733   C     0.56117   0.47067   0.98841   0.00000  Uiso   1.00
C734   C     0.57388   0.47137   0.93420   0.00000  Uiso   1.00
C735   C     0.54338   0.49377   0.91240   0.00000  Uiso   1.00
C736   C     0.50419   0.49472   0.56886   0.00000  Uiso   1.00
C737   C     0.58535   0.47238   0.56748   0.00000  Uiso   1.00
C738   C     0.45886   0.50283   0.90864   0.00000  Uiso   1.00
C739   C     0.52809   0.64501   0.77402   0.00000  Uiso   1.00
C740   C     0.47397   0.50184   0.85045   0.00000  Uiso   1.00
C741   C     0.52881   0.35443   0.77423   0.00000  Uiso   1.00
C742   C     0.50094   0.37624   0.74841   0.00000  Uiso   1.00
C743   C     0.47347   0.35540   0.72109   0.00000  Uiso   1.00
C744   C     0.47349   0.64587   0.71948   0.00000  Uiso   1.00
C745   C     0.50015   0.62388   0.74726   0.00000  Uiso   1.00
C746   C     0.63602   0.53322   0.76820   0.00000  Uiso   1.00
C747   C     0.35111   0.53283   0.77035   0.00000  Uiso   1.00
C748   C     0.36431   0.46741   0.72912   0.00000  Uiso   1.00
C749   C     0.64801   0.46720   0.72974   0.00000  Uiso   1.00
C750   C     0.50032   0.42081   0.74968   0.00000  Uiso   1.00
C751   C     0.52587   0.49784   0.65029   0.00000  Uiso   1.00
C752   C     0.59618   0.46312   0.51453   0.00000  Uiso   1.00
C753   C     0.53970   0.48944   0.59439   0.00000  Uiso   1.00
C754   C     0.40987   0.51084   0.93764   0.00000  Uiso   1.00
C755   C     0.39386   0.50200   0.99017   0.00000  Uiso   1.00
C756   C     0.42610   0.48815   0.51628   0.00000  Uiso   1.00
Cu757  Cu    0.45311   0.49999   0.75000   0.00000  Uiso   1.00
Cu758  Cu    0.54689   0.50001   0.75000   0.00000  Uiso   1.00
H759   H     0.61280   0.46689   0.58708   0.00000  Uiso   1.00
H760   H     0.55018   0.37044   0.79543   0.00000  Uiso   1.00
H761   H     0.45303   0.37248   0.69985   0.00000  Uiso   1.00
H762   H     0.61309   0.56017   0.78210   0.00000  Uiso   1.00
H763   H     0.38773   0.44130   0.71209   0.00000  Uiso   1.00
H764   H     0.63449   0.44085   0.71337   0.00000  Uiso   1.00
H765   H     0.63260   0.45230   0.99401   0.00000  Uiso   1.00
H766   H     0.47051   0.51059   0.58910   0.00000  Uiso   1.00
H767   H     0.35557   0.50559   0.51098   0.00000  Uiso   1.00
H768   H     0.54896   0.62843   0.79526   0.00000  Uiso   1.00
N769   N     0.38265   0.49999   0.74999   0.00000  Uiso   1.00
N770   N     0.61735   0.50002   0.74999   0.00000  Uiso   1.00
O771   O     0.46042   0.56011   0.75001   0.00000  Uiso   1.00
O772   O     0.53961   0.56012   0.75000   0.00000  Uiso   1.00
O773   O     0.44108   0.49998   0.82549   0.00000  Uiso   1.00
O774   O     0.52027   0.49999   0.82549   0.00000  Uiso   1.00
O775   O     0.46039   0.43988   0.75000   0.00000  Uiso   1.00
O776   O     0.53958   0.43989   0.74999   0.00000  Uiso   1.00
O777   O     0.47973   0.50001   0.67451   0.00000  Uiso   1.00
O778   O     0.55892   0.50002   0.67451   0.00000  Uiso   1.00
I779   I     0.43656   0.61777   0.67005   0.00000  Uiso   1.00
Cl780  Cl    0.36660   0.57562   0.80261   0.00000  Uiso   1.00
I781   I     0.64029   0.44702   0.88397   0.00000  Uiso   1.00
Cl782  Cl    0.36723   0.53477   0.91173   0.00000  Uiso   1.00
Cl783  Cl    0.39974   0.46733   0.57814   0.00000  Uiso   1.00
I784   I     0.56878   0.55451   0.89349   0.00000  Uiso   1.00
C785   C     0.83345   0.57921   0.74856   0.00000  Uiso   1.00
C786   C     0.81018   0.48766   0.99082   0.00000  Uiso   1.00
C787   C     0.82626   0.49366   0.93648   0.00000  Uiso   1.00
C788   C     0.84635   0.48288   0.51695   0.00000  Uiso   1.00
C789   C     0.89451   0.47067   0.98841   0.00000  Uiso   1.00
C790   C     0.90721   0.47137   0.93420   0.00000  Uiso   1.00
C791   C     0.87671   0.49377   0.91240   0.00000  Uiso   1.00
C792   C     0.83752   0.49472   0.56886   0.00000  Uiso   1.00
C793   C     0.91869   0.47238   0.56748   0.00000  Uiso   1.00
C794   C     0.79220   0.50283   0.90864   0.00000  Uiso   1.00
C795   C     0.86143   0.64501   0.77402   0.00000  Uiso   1.00
C796   C     0.80730   0.50184   0.85045   0.00000  Uiso   1.00
C797   C     0.86215   0.35443   0.77423   0.00000  Uiso   1.00
C798   C     0.83427   0.37624   0.74841   0.00000  Uiso   1.00
C799   C     0.80680   0.35540   0.72109   0.00000  Uiso   1.00
C800   C     0.80683   0.64587   0.71948   0.00000  Uiso   1.00
C801   C     0.83348   0.62388   0.74726   0.00000  Uiso   1.00
C802   C     0.96935   0.53322   0.76820   0.00000  Uiso   1.00
C803   C     0.68444   0.53283   0.77035   0.00000  Uiso   1.00
C804   C     0.69765   0.46741   0.72912   0.00000  Uiso   1.00
C805   C     0.98134   0.46720   0.72974   0.00000  Uiso   1.00
C806   C     0.83365   0.42081   0.74968   0.00000  Uiso   1.00
C807   C     0.85921   0.49784   0.65029   0.00000  Uiso   1.00
C808   C     0.92951   0.46312   0.51453   0.00000  Uiso   1.00
C809   C     0.87303   0.48944   0.59439   0.00000  Uiso   1.00
C810   C     0.74320   0.51084   0.93764   0.00000  Uiso   1.00
C811   C     0.72719   0.50200   0.99017   0.00000  Uiso   1.00
C812   C     0.75943   0.48815   0.51628   0.00000  Uiso   1.00
Cu813  Cu    0.78645   0.49999   0.75000   0.00000  Uiso   1.00
Cu814  Cu    0.88022   0.50001   0.75000   0.00000  Uiso   1.00
H815   H     0.94614   0.46689   0.58708   0.00000  Uiso   1.00
H816   H     0.88351   0.37044   0.79543   0.00000  Uiso   1.00
H817   H     0.78636   0.37248   0.69985   0.00000  Uiso   1.00
H818   H     0.94643   0.56017   0.78210   0.00000  Uiso   1.00
H819   H     0.72106   0.44130   0.71209   0.00000  Uiso   1.00
H820   H     0.96782   0.44085   0.71337   0.00000  Uiso   1.00
H821   H     0.96593   0.45230   0.99401   0.00000  Uiso   1.00
H822   H     0.80385   0.51059   0.58910   0.00000  Uiso   1.00
H823   H     0.68891   0.50559   0.51098   0.00000  Uiso   1.00
H824   H     0.88229   0.62843   0.79526   0.00000  Uiso   1.00
N825   N     0.71598   0.49999   0.74999   0.00000  Uiso   1.00
N826   N     0.95069   0.50002   0.74999   0.00000  Uiso   1.00
O827   O     0.79375   0.56011   0.75001   0.00000  Uiso   1.00
O828   O     0.87294   0.56012   0.75000   0.00000  Uiso   1.00
O829   O     0.77441   0.49998   0.82549   0.00000  Uiso   1.00
O830   O     0.85360   0.49999   0.82549   0.00000  Uiso   1.00
O831   O     0.79373   0.43988   0.75000   0.00000  Uiso   1.00
O832   O     0.87292   0.43989   0.74999   0.00000  Uiso   1.00
O833   O     0.81306   0.50001   0.67451   0.00000  Uiso   1.00
O834   O     0.89225   0.50002   0.67451   0.00000  Uiso   1.00
I835   I     0.76989   0.61777   0.67005   0.00000  Uiso   1.00
Cl836  Cl    0.69994   0.57562   0.80261   0.00000  Uiso   1.00
I837   I     0.97363   0.44702   0.88397   0.00000  Uiso   1.00
Cl838  Cl    0.70057   0.53477   0.91173   0.00000  Uiso   1.00
Cl839  Cl    0.73307   0.46733   0.57814   0.00000  Uiso   1.00
I840   I     0.90211   0.55451   0.89349   0.00000  Uiso   1.00
C841   C     0.16679   0.91254   0.74856   0.00000  Uiso   1.00
C842   C     0.14352   0.82099   0.99082   0.00000  Uiso   1.00
C843   C     0.15959   0.82699   0.93648   0.00000  Uiso   1.00
C844   C     0.17968   0.81622   0.51695   0.00000  Uiso   1.00
C845   C     0.22784   0.80401   0.98841   0.00000  Uiso   1.00
C846   C     0.24055   0.80470   0.93420   0.00000  Uiso   1.00
C847   C     0.21005   0.82711   0.91240   0.00000  Uiso   1.00
C848   C     0.17085   0.82806   0.56886   0.00000  Uiso   1.00
C849   C     0.25202   0.80572   0.56748   0.00000  Uiso   1.00
C850   C     0.12553   0.83616   0.90864   0.00000  Uiso   1.00
C851   C     0.19476   0.97834   0.77402   0.00000  Uiso   1.00
C852   C     0.14064   0.83518   0.85045   0.00000  Uiso   1.00
C853   C     0.19548   0.68776   0.77423   0.00000  Uiso   1.00
C854   C     0.16760   0.70957   0.74841   0.00000  Uiso   1.00
C855   C     0.14014   0.68873   0.72109   0.00000  Uiso   1.00
C856   C     0.14016   0.97921   0.71948   0.00000  Uiso   1.00
C857   C     0.16682   0.95721   0.74726   0.00000  Uiso   1.00
C858   C     0.30269   0.86656   0.76820   0.00000  Uiso   1.00
C859   C     0.01777   0.86616   0.77035   0.00000  Uiso   1.00
C860   C     0.03098   0.80074   0.72912   0.00000  Uiso   1.00
C861   C     0.31467   0.80053   0.72974   0.00000  Uiso   1.00
C862   C     0.16698   0.75414   0.74968   0.00000  Uiso   1.00
C863   C     0.19254   0.83118   0.65029   0.00000  Uiso   1.00
C864   C     0.26285   0.79646   0.51453   0.00000  Uiso   1.00
C865   C     0.20636   0.82277   0.59439   0.00000  Uiso   1.00
C866   C     0.07653   0.84417   0.93764   0.00000  Uiso   1.00
C867   C     0.06052   0.83533   0.99017   0.00000  Uiso   1.00
C868   C     0.09276   0.82149   0.51628   0.00000  Uiso   1.00
Cu869  Cu    0.11978   0.83333   0.75000   0.00000  Uiso   1.00
Cu870  Cu    0.21355   0.83334   0.75000   0.00000  Uiso   1.00
H871   H     0.27947   0.80022   0.58708   0.00000  Uiso   1.00
H872   H     0.21684   0.70378   0.79543   0.00000  Uiso   1.00
H873   H     0.11969   0.70582   0.69985   0.00000  Uiso   1.00
H874   H     0.27976   0.89350   0.78210   0.00000  Uiso   1.00
H875   H     0.05440   0.77463   0.71209   0.00000  Uiso   1.00
H876   H     0.30115   0.77418   0.71337   0.00000  Uiso   1.00
H877   H     0.29927   0.78564   0.99401   0.00000  Uiso   1.00
H878   H     0.13718   0.84392   0.58910   0.00000  Uiso   1.00
H879   H     0.02224   0.83892   0.51098   0.00000  Uiso   1.00
H880   H     0.21562   0.96176   0.79526   0.00000  Uiso   1.00
N881   N     0.04931   0.83332   0.74999   0.00000  Uiso   1.00
N882   N     0.28402   0.83335   0.74999   0.00000  Uiso   1.00
O883   O     0.12708   0.89345   0.75001   0.00000  Uiso   1.00
O884   O     0.20627   0.89346   0.75000   0.00000  Uiso   1.00
O885   O     0.10775   0.83332   0.82549   0.00000  Uiso   1.00
O886   O     0.18694   0.83333   0.82549   0.00000  Uiso   1.00
O887   O     0.12706   0.77321   0.75000   0.00000  Uiso   1.00
O888   O     0.20625   0.77322   0.74999   0.00000  Uiso   1.00
O889   O     0.14640   0.83334   0.67451   0.00000  Uiso   1.00
O890   O     0.22559   0.83335   0.67451   0.00000  Uiso   1.00
I891   I     0.10322   0.95111   0.67005   0.00000  Uiso   1.00
Cl892  Cl    0.03327   0.90896   0.80261   0.00000  Uiso   1.00
I893   I     0.30696   0.78036   0.88397   0.00000  Uiso   1.00
Cl894  Cl    0.03390   0.86810   0.91173   0.00000  Uiso   1.00
Cl895  Cl    0.06641   0.80066   0.57814   0.00000  Uiso   1.00
I896   I     0.23544   0.88784   0.89349   0.00000  Uiso   1.00
C897   C     0.50012   0.91254   0.74856   0.00000  Uiso   1.00
C898   C     0.47685   0.82099   0.99082   0.00000  Uiso   1.00
C899   C     0.49292   0.82699   0.93648   0.00000  Uiso   1.00
C900   C     0.51302   0.81622   0.51695   0.00000  Uiso   1.00
C901   C     0.56117   0.80401   0.98841   0.00000  Uiso   1.00
C902   C     0.57388   0.80470   0.93420   0.00000  Uiso   1.00
C903   C     0.54338   0.82711   0.91240   0.00000  Uiso   1.00
C904   C     0.50419   0.82806   0.56886   0.00000  Uiso   1.00
C905   C     0.58535   0.80572   0.56748   0.00000  Uiso   1.00
C906   C     0.45886   0.83616   0.90864   0.00000  Uiso   1.00
C907   C     0.52809   0.97834   0.77402   0.00000  Uiso   1.00
C908   C     0.47397   0.83518   0.85045   0.00000  Uiso   1.00
C909   C     0.52881   0.68776   0.77423   0.00000  Uiso   1.00
C910   C     0.50094   0.70957   0.74841   0.00000  Uiso   1.00
C911   C     0.47347   0.68873   0.72109   0.00000  Uiso   1.00
C912   C     0.47349   0.97921   0.71948   0.00000  Uiso   1.00
C913   C     0.50015   0.95721   0.74726   0.00000  Uiso   1.00
C914   C     0.63602   0.86656   0.76820   0.00000  Uiso   1.00
C915   C     0.35111   0.86616   0.77035   0.00000  Uiso   1.00
C916   C     0.36431   0.80074   0.72912   0.00000  Uiso   1.00
C917   C     0.64801   0.80053   0.72974   0.00000  Uiso   1.00
C918   C     0.50032   0.75414   0.74968   0.00000  Uiso   1.00
C919   C     0.52587   0.83118   0.65029   0.00000  Uiso   1.00
C920   C     0.59618   0.79646   0.51453   0.00000  Uiso   1.00
C921   C     0.53970   0.82277   0.59439   0.00000  Uiso   1.00
C922   C     0.40987   0.84417   0.93764   0.00000  Uiso   1.00
C923   C     0.39386   0.83533   0.99017   0.00000  Uiso   1.00
C924   C     0.42610   0.82149   0.51628   0.00000  Uiso   1.00
Cu925  Cu    0.45311   0.83333   0.75000   0.00000  Uiso   1.00
Cu926  Cu    0.54689   0.83334   0.75000   0.00000  Uiso   1.00
H927   H     0.61280   0.80022   0.58708   0.00000  Uiso   1.00
H928   H     0.55018   0.70378   0.79543   0.00000  Uiso   1.00
H929   H     0.45303   0.70582   0.69985   0.00000  Uiso   1.00
H930   H     0.61309   0.89350   0.78210   0.00000  Uiso   1.00
H931   H     0.38773   0.77463   0.71209   0.00000  Uiso   1.00
H932   H     0.63449   0.77418   0.71337   0.00000  Uiso   1.00
H933   H     0.63260   0.78564   0.99401   0.00000  Uiso   1.00
H934   H     0.47051   0.84392   0.58910   0.00000  Uiso   1.00
H935   H     0.35557   0.83892   0.51098   0.00000  Uiso   1.00
H936   H     0.54896   0.96176   0.79526   0.00000  Uiso   1.00
N937   N     0.38265   0.83332   0.74999   0.00000  Uiso   1.00
N938   N     0.61735   0.83335   0.74999   0.00000  Uiso   1.00
O939   O     0.46042   0.89345   0.75001   0.00000  Uiso   1.00
O940   O     0.53961   0.89346   0.75000   0.00000  Uiso   1.00
O941   O     0.44108   0.83332   0.82549   0.00000  Uiso   1.00
O942   O     0.52027   0.83333   0.82549   0.00000  Uiso   1.00
O943   O     0.46039   0.77321   0.75000   0.00000  Uiso   1.00
O944   O     0.53958   0.77322   0.74999   0.00000  Uiso   1.00
O945   O     0.47973   0.83334   0.67451   0.00000  Uiso   1.00
O946   O     0.55892   0.83335   0.67451   0.00000  Uiso   1.00
I947   I     0.43656   0.95111   0.67005   0.00000  Uiso   1.00
Cl948  Cl    0.36660   0.90896   0.80261   0.00000  Uiso   1.00
I949   I     0.64029   0.78036   0.88397   0.00000  Uiso   1.00
Cl950  Cl    0.36723   0.86810   0.91173   0.00000  Uiso   1.00
Cl951  Cl    0.39974   0.80066   0.57814   0.00000  Uiso   1.00
I952   I     0.56878   0.88784   0.89349   0.00000  Uiso   1.00
C953   C     0.83345   0.91254   0.74856   0.00000  Uiso   1.00
C954   C     0.81018   0.82099   0.99082   0.00000  Uiso   1.00
C955   C     0.82626   0.82699   0.93648   0.00000  Uiso   1.00
C956   C     0.84635   0.81622   0.51695   0.00000  Uiso   1.00
C957   C     0.89451   0.80401   0.98841   0.00000  Uiso   1.00
C958   C     0.90721   0.80470   0.93420   0.00000  Uiso   1.00
C959   C     0.87671   0.82711   0.91240   0.00000  Uiso   1.00
C960   C     0.83752   0.82806   0.56886   0.00000  Uiso   1.00
C961   C     0.91869   0.80572   0.56748   0.00000  Uiso   1.00
C962   C     0.79220   0.83616   0.90864   0.00000  Uiso   1.00
C963   C     0.86143   0.97834   0.77402   0.00000  Uiso   1.00
C964   C     0.80730   0.83518   0.85045   0.00000  Uiso   1.00
C965   C     0.86215   0.68776   0.77423   0.00000  Uiso   1.00
C966   C     0.83427   0.70957   0.74841   0.00000  Uiso   1.00
C967   C     0.80680   0.68873   0.72109   0.00000  Uiso   1.00
C968   C     0.80683   0.97921   0.71948   0.00000  Uiso   1.00
C969   C     0.83348   0.95721   0.74726   0.00000  Uiso   1.00
C970   C     0.96935   0.86656   0.76820   0.00000  Uiso   1.00
C971   C     0.68444   0.86616   0.77035   0.00000  Uiso   1.00
C972   C     0.69765   0.80074   0.72912   0.00000  Uiso   1.00
C973   C     0.98134   0.80053   0.72974   0.00000  Uiso   1.00
C974   C     0.83365   0.75414   0.74968   0.00000  Uiso   1.00
C975   C     0.85921   0.83118   0.65029   0.00000  Uiso   1.00
C976   C     0.92951   0.79646   0.51453   0.00000  Uiso   1.00
C977   C     0.87303   0.82277   0.59439   0.00000  Uiso   1.00
C978   C     0.74320   0.84417   0.93764   0.00000  Uiso   1.00
C979   C     0.72719   0.83533   0.99017   0.00000  Uiso   1.00
C980   C     0.75943   0.82149   0.51628   0.00000  Uiso   1.00
Cu981  Cu    0.78645   0.83333   0.75000   0.00000  Uiso   1.00
Cu982  Cu    0.88022   0.83334   0.75000   0.00000  Uiso   1.00
H983   H     0.94614   0.80022   0.58708   0.00000  Uiso   1.00
H984   H     0.88351   0.70378   0.79543   0.00000  Uiso   1.00
H985   H     0.78636   0.70582   0.69985   0.00000  Uiso   1.00
H986   H     0.94643   0.89350   0.78210   0.00000  Uiso   1.00
H987   H     0.72106   0.77463   0.71209   0.00000  Uiso   1.00
H988   H     0.96782   0.77418   0.71337   0.00000  Uiso   1.00
H989   H     0.96593   0.78564   0.99401   0.00000  Uiso   1.00
H990   H     0.80385   0.84392   0.58910   0.00000  Uiso   1.00
H991   H     0.68891   0.83892   0.51098   0.00000  Uiso   1.00
H992   H     0.88229   0.96176   0.79526   0.00000  Uiso   1.00
N993   N     0.71598   0.83332   0.74999   0.00000  Uiso   1.00
N994   N     0.95069   0.83335   0.74999   0.00000  Uiso   1.00
O995   O     0.79375   0.89345   0.75001   0.00000  Uiso   1.00
O996   O     0.87294   0.89346   0.75000   0.00000  Uiso   1.00
O997   O     0.77441   0.83332   0.82549   0.00000  Uiso   1.00
O998   O     0.85360   0.83333   0.82549   0.00000  Uiso   1.00
O999   O     0.79373   0.77321   0.75000   0.00000  Uiso   1.00
O1000  O     0.87292   0.77322   0.74999   0.00000  Uiso   1.00
O1001  O     0.81306   0.83334   0.67451   0.00000  Uiso   1.00
O1002  O     0.89225   0.83335   0.67451   0.00000  Uiso   1.00
I1003  I     0.76989   0.95111   0.67005   0.00000  Uiso   1.00
Cl1004 Cl    0.69994   0.90896   0.80261   0.00000  Uiso   1.00
I1005  I     0.97363   0.78036   0.88397   0.00000  Uiso   1.00
Cl1006 Cl    0.70057   0.86810   0.91173   0.00000  Uiso   1.00
Cl1007 Cl    0.73307   0.80066   0.57814   0.00000  Uiso   1.00
I1008  I     0.90211   0.88784   0.89349   0.00000  Uiso   1.00
loop_
_geom_bond_atom_site_label_1
_geom_bond_atom_site_label_2
_geom_bond_distance
_geom_bond_site_symmetry_2
_ccdc_geom_bond_type
C1     C17     1.446   .     S
C1     O43     1.295   .     A
C1     O44     1.294   .     A
C2     C3      1.419   .     A
C2     C508    1.422   .     S
C2     C532    1.418   .     S
C3     C10     1.426   .     A
C3     C7      1.405   .     A
C4     C8      1.394   .     A
C4     C506    1.422   1_554 S
C4     C509    1.420   1_554 S
C5     C6      1.400   .     A
C5     C508    1.420   .     S
C5     C528    1.406   .     S
C6     C7      1.390   .     A
C6     I53     2.124   .     S
C7     I56     2.123   .     S
C8     C25     1.396   .     A
C8     H38     1.080   .     S
C9     C24     1.396   .     A
C9     C25     1.401   .     A
C9     H31     1.083   .     S
C10    C26     1.414   .     A
C10    C12     1.501   .     S
C11    H40     1.084   .     S
C11    C17     1.402   .     A
C11    C181    1.384   .     S
C12    O46     1.304   .     A
C12    O45     1.310   .     A
C13    H32     1.084   .     S
C13    C14     1.395   .     A
C13    C347    1.384   1_545 S
C14    C22     1.442   .     S
C14    C15     1.398   .     A
C15    H33     1.084   .     S
C15    C352    1.387   1_545 S
C16    I51     2.130   .     S
C16    C17     1.410   .     A
C16    C183    1.387   .     S
C18    N42     1.354   .     A
C18    H34     1.079   .     S
C18    C75     1.408   .     S
C19    N41     1.384   .     A
C19    Cl52    1.754   .     S
C19    C130    1.408   1_455 S
C20    N41     1.369   .     A
C20    H35     1.081   .     S
C20    C133    1.421   1_455 S
C21    H36     1.081   .     S
C21    N42     1.370   .     A
C21    C76     1.421   .     S
C22    O48     1.295   .     A
C22    O47     1.292   .     A
C23    C25     1.462   .     S
C23    O49     1.296   .     A
C23    O50     1.301   .     A
C24    C509    1.406   1_554 S
C24    H541    1.081   1_554 S
C26    C27     1.391   .     A
C26    Cl54    1.753   .     S
C27    C532    1.389   .     S
C27    H543    1.083   .     S
C28    Cl55    1.767   .     S
C28    C531    1.389   1_554 S
C28    C506    1.418   1_554 S
Cu29   O49     1.954   .     S
Cu29   O43     1.959   .     S
Cu29   Cu30    2.692   .     S
Cu29   O47     1.953   .     S
Cu29   N41     2.023   .     S
Cu29   O45     1.962   .     S
Cu30   O44     1.953   .     S
Cu30   O50     1.962   .     S
Cu30   O48     1.959   .     S
Cu30   N42     2.023   .     S
Cu30   O46     1.954   .     S
H37    C528    1.081   .     S
H39    C531    1.083   1_554 S
C57    C73     1.446   .     S
C57    O99     1.295   .     A
C57    O100    1.294   .     A
C58    C59     1.419   .     A
C58    C564    1.422   .     S
C58    C588    1.418   .     S
C59    C66     1.426   .     A
C59    C63     1.405   .     A
C60    C64     1.394   .     A
C60    C562    1.422   1_554 S
C60    C565    1.420   1_554 S
C61    C62     1.400   .     A
C61    C564    1.420   .     S
C61    C584    1.406   .     S
C62    C63     1.390   .     A
C62    I109    2.124   .     S
C63    I112    2.123   .     S
C64    C81     1.396   .     A
C64    H94     1.080   .     S
C65    C80     1.396   .     A
C65    C81     1.401   .     A
C65    H87     1.083   .     S
C66    C82     1.414   .     A
C66    C68     1.501   .     S
C67    H96     1.084   .     S
C67    C73     1.402   .     A
C67    C237    1.384   .     S
C68    O102    1.304   .     A
C68    O101    1.310   .     A
C69    H88     1.084   .     S
C69    C70     1.395   .     A
C69    C403    1.384   1_545 S
C70    C78     1.442   .     S
C70    C71     1.398   .     A
C71    H89     1.084   .     S
C71    C408    1.387   1_545 S
C72    I107    2.130   .     S
C72    C73     1.410   .     A
C72    C239    1.387   .     S
C74    N98     1.354   .     A
C74    H90     1.079   .     S
C74    C131    1.408   .     S
C75    N97     1.384   .     A
C75    Cl108   1.754   .     S
C76    N97     1.369   .     A
C76    H91     1.081   .     S
C77    H92     1.081   .     S
C77    N98     1.370   .     A
C77    C132    1.421   .     S
C78    O104    1.295   .     A
C78    O103    1.292   .     A
C79    C81     1.462   .     S
C79    O105    1.296   .     A
C79    O106    1.301   .     A
C80    C565    1.406   1_554 S
C80    H597    1.081   1_554 S
C82    C83     1.391   .     A
C82    Cl110   1.753   .     S
C83    C588    1.389   .     S
C83    H599    1.083   .     S
C84    Cl111   1.767   .     S
C84    C587    1.389   1_554 S
C84    C562    1.418   1_554 S
Cu85   O105    1.954   .     S
Cu85   O99     1.959   .     S
Cu85   Cu86    2.692   .     S
Cu85   O103    1.953   .     S
Cu85   N97     2.023   .     S
Cu85   O101    1.962   .     S
Cu86   O100    1.953   .     S
Cu86   O106    1.962   .     S
Cu86   O104    1.959   .     S
Cu86   N98     2.023   .     S
Cu86   O102    1.954   .     S
H93    C584    1.081   .     S
H95    C587    1.083   1_554 S
C113   C129    1.446   .     S
C113   O155    1.295   .     A
C113   O156    1.294   .     A
C114   C115    1.419   .     A
C114   C620    1.422   .     S
C114   C644    1.418   .     S
C115   C122    1.426   .     A
C115   C119    1.405   .     A
C116   C120    1.394   .     A
C116   C618    1.422   1_554 S
C116   C621    1.420   1_554 S
C117   C118    1.400   .     A
C117   C620    1.420   .     S
C117   C640    1.406   .     S
C118   C119    1.390   .     A
C118   I165    2.124   .     S
C119   I168    2.123   .     S
C120   C137    1.396   .     A
C120   H150    1.080   .     S
C121   C136    1.396   .     A
C121   C137    1.401   .     A
C121   H143    1.083   .     S
C122   C138    1.414   .     A
C122   C124    1.501   .     S
C123   H152    1.084   .     S
C123   C129    1.402   .     A
C123   C293    1.384   .     S
C124   O158    1.304   .     A
C124   O157    1.310   .     A
C125   H144    1.084   .     S
C125   C126    1.395   .     A
C125   C459    1.384   1_545 S
C126   C134    1.442   .     S
C126   C127    1.398   .     A
C127   H145    1.084   .     S
C127   C464    1.387   1_545 S
C128   I163    2.130   .     S
C128   C129    1.410   .     A
C128   C295    1.387   .     S
C130   N154    1.354   .     A
C130   H146    1.079   .     S
C130   C19     1.408   1_655 S
C131   N153    1.384   .     A
C131   Cl164   1.754   .     S
C132   N153    1.369   .     A
C132   H147    1.081   .     S
C133   H148    1.081   .     S
C133   N154    1.370   .     A
C133   C20     1.421   1_655 S
C134   O160    1.295   .     A
C134   O159    1.292   .     A
C135   C137    1.462   .     S
C135   O161    1.296   .     A
C135   O162    1.301   .     A
C136   C621    1.406   1_554 S
C136   H653    1.081   1_554 S
C138   C139    1.391   .     A
C138   Cl166   1.753   .     S
C139   C644    1.389   .     S
C139   H655    1.083   .     S
C140   Cl167   1.767   .     S
C140   C643    1.389   1_554 S
C140   C618    1.418   1_554 S
Cu141  O161    1.954   .     S
Cu141  O155    1.959   .     S
Cu141  Cu142   2.692   .     S
Cu141  O159    1.953   .     S
Cu141  N153    2.023   .     S
Cu141  O157    1.962   .     S
Cu142  O156    1.953   .     S
Cu142  O162    1.962   .     S
Cu142  O160    1.959   .     S
Cu142  N154    2.023   .     S
Cu142  O158    1.954   .     S
H149   C640    1.081   .     S
H151   C643    1.083   1_554 S
C169   C185    1.446   .     S
C169   O211    1.295   .     A
C169   O212    1.294   .     A
C170   C171    1.419   .     A
C170   C676    1.422   .     S
C170   C700    1.418   .     S
C171   C178    1.426   .     A
C171   C175    1.405   .     A
C172   C176    1.394   .     A
C172   C674    1.422   1_554 S
C172   C677    1.420   1_554 S
C173   C174    1.400   .     A
C173   C676    1.420   .     S
C173   C696    1.406   .     S
C174   C175    1.390   .     A
C174   I221    2.124   .     S
C175   I224    2.123   .     S
C176   C193    1.396   .     A
C176   H206    1.080   .     S
C177   C192    1.396   .     A
C177   C193    1.401   .     A
C177   H199    1.083   .     S
C178   C194    1.414   .     A
C178   C180    1.501   .     S
C179   H208    1.084   .     S
C179   C185    1.402   .     A
C179   C349    1.384   .     S
C180   O214    1.304   .     A
C180   O213    1.310   .     A
C181   H200    1.084   .     S
C181   C182    1.395   .     A
C182   C190    1.442   .     S
C182   C183    1.398   .     A
C183   H201    1.084   .     S
C184   I219    2.130   .     S
C184   C185    1.410   .     A
C184   C351    1.387   .     S
C186   N210    1.354   .     A
C186   H202    1.079   .     S
C186   C243    1.408   .     S
C187   N209    1.384   .     A
C187   Cl220   1.754   .     S
C187   C298    1.408   1_455 S
C188   N209    1.369   .     A
C188   H203    1.081   .     S
C188   C301    1.421   1_455 S
C189   H204    1.081   .     S
C189   N210    1.370   .     A
C189   C244    1.421   .     S
C190   O216    1.295   .     A
C190   O215    1.292   .     A
C191   C193    1.462   .     S
C191   O217    1.296   .     A
C191   O218    1.301   .     A
C192   C677    1.406   1_554 S
C192   H709    1.081   1_554 S
C194   C195    1.391   .     A
C194   Cl222   1.753   .     S
C195   C700    1.389   .     S
C195   H711    1.083   .     S
C196   Cl223   1.767   .     S
C196   C699    1.389   1_554 S
C196   C674    1.418   1_554 S
Cu197  O217    1.954   .     S
Cu197  O211    1.959   .     S
Cu197  Cu198   2.692   .     S
Cu197  O215    1.953   .     S
Cu197  N209    2.023   .     S
Cu197  O213    1.962   .     S
Cu198  O212    1.953   .     S
Cu198  O218    1.962   .     S
Cu198  O216    1.959   .     S
Cu198  N210    2.023   .     S
Cu198  O214    1.954   .     S
H205   C696    1.081   .     S
H207   C699    1.083   1_554 S
C225   C241    1.446   .     S
C225   O267    1.295   .     A
C225   O268    1.294   .     A
C226   C227    1.419   .     A
C226   C732    1.422   .     S
C226   C756    1.418   .     S
C227   C234    1.426   .     A
C227   C231    1.405   .     A
C228   C232    1.394   .     A
C228   C730    1.422   1_554 S
C228   C733    1.420   1_554 S
C229   C230    1.400   .     A
C229   C732    1.420   .     S
C229   C752    1.406   .     S
C230   C231    1.390   .     A
C230   I277    2.124   .     S
C231   I280    2.123   .     S
C232   C249    1.396   .     A
C232   H262    1.080   .     S
C233   C248    1.396   .     A
C233   C249    1.401   .     A
C233   H255    1.083   .     S
C234   C250    1.414   .     A
C234   C236    1.501   .     S
C235   H264    1.084   .     S
C235   C241    1.402   .     A
C235   C405    1.384   .     S
C236   O270    1.304   .     A
C236   O269    1.310   .     A
C237   H256    1.084   .     S
C237   C238    1.395   .     A
C238   C246    1.442   .     S
C238   C239    1.398   .     A
C239   H257    1.084   .     S
C240   I275    2.130   .     S
C240   C241    1.410   .     A
C240   C407    1.387   .     S
C242   N266    1.354   .     A
C242   H258    1.079   .     S
C242   C299    1.408   .     S
C243   N265    1.384   .     A
C243   Cl276   1.754   .     S
C244   N265    1.369   .     A
C244   H259    1.081   .     S
C245   H260    1.081   .     S
C245   N266    1.370   .     A
C245   C300    1.421   .     S
C246   O272    1.295   .     A
C246   O271    1.292   .     A
C247   C249    1.462   .     S
C247   O273    1.296   .     A
C247   O274    1.301   .     A
C248   C733    1.406   1_554 S
C248   H765    1.081   1_554 S
C250   C251    1.391   .     A
C250   Cl278   1.753   .     S
C251   C756    1.389   .     S
C251   H767    1.083   .     S
C252   Cl279   1.767   .     S
C252   C755    1.389   1_554 S
C252   C730    1.418   1_554 S
Cu253  O273    1.954   .     S
Cu253  O267    1.959   .     S
Cu253  Cu254   2.692   .     S
Cu253  O271    1.953   .     S
Cu253  N265    2.023   .     S
Cu253  O269    1.962   .     S
Cu254  O268    1.953   .     S
Cu254  O274    1.962   .     S
Cu254  O272    1.959   .     S
Cu254  N266    2.023   .     S
Cu254  O270    1.954   .     S
H261   C752    1.081   .     S
H263   C755    1.083   1_554 S
C281   C297    1.446   .     S
C281   O323    1.295   .     A
C281   O324    1.294   .     A
C282   C283    1.419   .     A
C282   C788    1.422   .     S
C282   C812    1.418   .     S
C283   C290    1.426   .     A
C283   C287    1.405   .     A
C284   C288    1.394   .     A
C284   C786    1.422   1_554 S
C284   C789    1.420   1_554 S
C285   C286    1.400   .     A
C285   C788    1.420   .     S
C285   C808    1.406   .     S
C286   C287    1.390   .     A
C286   I333    2.124   .     S
C287   I336    2.123   .     S
C288   C305    1.396   .     A
C288   H318    1.080   .     S
C289   C304    1.396   .     A
C289   C305    1.401   .     A
C289   H311    1.083   .     S
C290   C306    1.414   .     A
C290   C292    1.501   .     S
C291   H320    1.084   .     S
C291   C297    1.402   .     A
C291   C461    1.384   .     S
C292   O326    1.304   .     A
C292   O325    1.310   .     A
C293   H312    1.084   .     S
C293   C294    1.395   .     A
C294   C302    1.442   .     S
C294   C295    1.398   .     A
C295   H313    1.084   .     S
C296   I331    2.130   .     S
C296   C297    1.410   .     A
C296   C463    1.387   .     S
C298   N322    1.354   .     A
C298   H314    1.079   .     S
C298   C187    1.408   1_655 S
C299   N321    1.384   .     A
C299   Cl332   1.754   .     S
C300   N321    1.369   .     A
C300   H315    1.081   .     S
C301   H316    1.081   .     S
C301   N322    1.370   .     A
C301   C188    1.421   1_655 S
C302   O328    1.295   .     A
C302   O327    1.292   .     A
C303   C305    1.462   .     S
C303   O329    1.296   .     A
C303   O330    1.301   .     A
C304   C789    1.406   1_554 S
C304   H821    1.081   1_554 S
C306   C307    1.391   .     A
C306   Cl334   1.753   .     S
C307   C812    1.389   .     S
C307   H823    1.083   .     S
C308   Cl335   1.767   .     S
C308   C811    1.389   1_554 S
C308   C786    1.418   1_554 S
Cu309  O329    1.954   .     S
Cu309  O323    1.959   .     S
Cu309  Cu310   2.692   .     S
Cu309  O327    1.953   .     S
Cu309  N321    2.023   .     S
Cu309  O325    1.962   .     S
Cu310  O324    1.953   .     S
Cu310  O330    1.962   .     S
Cu310  O328    1.959   .     S
Cu310  N322    2.023   .     S
Cu310  O326    1.954   .     S
H317   C808    1.081   .     S
H319   C811    1.083   1_554 S
C337   C353    1.446   .     S
C337   O379    1.295   .     A
C337   O380    1.294   .     A
C338   C339    1.419   .     A
C338   C844    1.422   .     S
C338   C868    1.418   .     S
C339   C346    1.426   .     A
C339   C343    1.405   .     A
C340   C344    1.394   .     A
C340   C842    1.422   1_554 S
C340   C845    1.420   1_554 S
C341   C342    1.400   .     A
C341   C844    1.420   .     S
C341   C864    1.406   .     S
C342   C343    1.390   .     A
C342   I389    2.124   .     S
C343   I392    2.123   .     S
C344   C361    1.396   .     A
C344   H374    1.080   .     S
C345   C360    1.396   .     A
C345   C361    1.401   .     A
C345   H367    1.083   .     S
C346   C362    1.414   .     A
C346   C348    1.501   .     S
C347   H376    1.084   .     S
C347   C353    1.402   .     A
C347   C13     1.384   1_565 S
C348   O382    1.304   .     A
C348   O381    1.310   .     A
C349   H368    1.084   .     S
C349   C350    1.395   .     A
C350   C358    1.442   .     S
C350   C351    1.398   .     A
C351   H369    1.084   .     S
C352   I387    2.130   .     S
C352   C353    1.410   .     A
C352   C15     1.387   1_565 S
C354   N378    1.354   .     A
C354   H370    1.079   .     S
C354   C411    1.408   .     S
C355   N377    1.384   .     A
C355   Cl388   1.754   .     S
C355   C466    1.408   1_455 S
C356   N377    1.369   .     A
C356   H371    1.081   .     S
C356   C469    1.421   1_455 S
C357   H372    1.081   .     S
C357   N378    1.370   .     A
C357   C412    1.421   .     S
C358   O384    1.295   .     A
C358   O383    1.292   .     A
C359   C361    1.462   .     S
C359   O385    1.296   .     A
C359   O386    1.301   .     A
C360   C845    1.406   1_554 S
C360   H877    1.081   1_554 S
C362   C363    1.391   .     A
C362   Cl390   1.753   .     S
C363   C868    1.389   .     S
C363   H879    1.083   .     S
C364   Cl391   1.767   .     S
C364   C867    1.389   1_554 S
C364   C842    1.418   1_554 S
Cu365  O385    1.954   .     S
Cu365  O379    1.959   .     S
Cu365  Cu366   2.692   .     S
Cu365  O383    1.953   .     S
Cu365  N377    2.023   .     S
Cu365  O381    1.962   .     S
Cu366  O380    1.953   .     S
Cu366  O386    1.962   .     S
Cu366  O384    1.959   .     S
Cu366  N378    2.023   .     S
Cu366  O382    1.954   .     S
H373   C864    1.081   .     S
H375   C867    1.083   1_554 S
C393   C409    1.446   .     S
C393   O435    1.295   .     A
C393   O436    1.294   .     A
C394   C395    1.419   .     A
C394   C900    1.422   .     S
C394   C924    1.418   .     S
C395   C402    1.426   .     A
C395   C399    1.405   .     A
C396   C400    1.394   .     A
C396   C898    1.422   1_554 S
C396   C901    1.420   1_554 S
C397   C398    1.400   .     A
C397   C900    1.420   .     S
C397   C920    1.406   .     S
C398   C399    1.390   .     A
C398   I445    2.124   .     S
C399   I448    2.123   .     S
C400   C417    1.396   .     A
C400   H430    1.080   .     S
C401   C416    1.396   .     A
C401   C417    1.401   .     A
C401   H423    1.083   .     S
C402   C418    1.414   .     A
C402   C404    1.501   .     S
C403   H432    1.084   .     S
C403   C409    1.402   .     A
C403   C69     1.384   1_565 S
C404   O438    1.304   .     A
C404   O437    1.310   .     A
C405   H424    1.084   .     S
C405   C406    1.395   .     A
C406   C414    1.442   .     S
C406   C407    1.398   .     A
C407   H425    1.084   .     S
C408   I443    2.130   .     S
C408   C409    1.410   .     A
C408   C71     1.387   1_565 S
C410   N434    1.354   .     A
C410   H426    1.079   .     S
C410   C467    1.408   .     S
C411   N433    1.384   .     A
C411   Cl444   1.754   .     S
C412   N433    1.369   .     A
C412   H427    1.081   .     S
C413   H428    1.081   .     S
C413   N434    1.370   .     A
C413   C468    1.421   .     S
C414   O440    1.295   .     A
C414   O439    1.292   .     A
C415   C417    1.462   .     S
C415   O441    1.296   .     A
C415   O442    1.301   .     A
C416   C901    1.406   1_554 S
C416   H933    1.081   1_554 S
C418   C419    1.391   .     A
C418   Cl446   1.753   .     S
C419   C924    1.389   .     S
C419   H935    1.083   .     S
C420   Cl447   1.767   .     S
C420   C923    1.389   1_554 S
C420   C898    1.418   1_554 S
Cu421  O441    1.954   .     S
Cu421  O435    1.959   .     S
Cu421  Cu422   2.692   .     S
Cu421  O439    1.953   .     S
Cu421  N433    2.023   .     S
Cu421  O437    1.962   .     S
Cu422  O436    1.953   .     S
Cu422  O442    1.962   .     S
Cu422  O440    1.959   .     S
Cu422  N434    2.023   .     S
Cu422  O438    1.954   .     S
H429   C920    1.081   .     S
H431   C923    1.083   1_554 S
C449   C465    1.446   .     S
C449   O491    1.295   .     A
C449   O492    1.294   .     A
C450   C451    1.419   .     A
C450   C956    1.422   .     S
C450   C980    1.418   .     S
C451   C458    1.426   .     A
C451   C455    1.405   .     A
C452   C456    1.394   .     A
C452   C954    1.422   1_554 S
C452   C957    1.420   1_554 S
C453   C454    1.400   .     A
C453   C956    1.420   .     S
C453   C976    1.406   .     S
C454   C455    1.390   .     A
C454   I501    2.124   .     S
C455   I504    2.123   .     S
C456   C473    1.396   .     A
C456   H486    1.080   .     S
C457   C472    1.396   .     A
C457   C473    1.401   .     A
C457   H479    1.083   .     S
C458   C474    1.414   .     A
C458   C460    1.501   .     S
C459   H488    1.084   .     S
C459   C465    1.402   .     A
C459   C125    1.384   1_565 S
C460   O494    1.304   .     A
C460   O493    1.310   .     A
C461   H480    1.084   .     S
C461   C462    1.395   .     A
C462   C470    1.442   .     S
C462   C463    1.398   .     A
C463   H481    1.084   .     S
C464   I499    2.130   .     S
C464   C465    1.410   .     A
C464   C127    1.387   1_565 S
C466   N490    1.354   .     A
C466   H482    1.079   .     S
C466   C355    1.408   1_655 S
C467   N489    1.384   .     A
C467   Cl500   1.754   .     S
C468   N489    1.369   .     A
C468   H483    1.081   .     S
C469   H484    1.081   .     S
C469   N490    1.370   .     A
C469   C356    1.421   1_655 S
C470   O496    1.295   .     A
C470   O495    1.292   .     A
C471   C473    1.462   .     S
C471   O497    1.296   .     A
C471   O498    1.301   .     A
C472   C957    1.406   1_554 S
C472   H989    1.081   1_554 S
C474   C475    1.391   .     A
C474   Cl502   1.753   .     S
C475   C980    1.389   .     S
C475   H991    1.083   .     S
C476   Cl503   1.767   .     S
C476   C979    1.389   1_554 S
C476   C954    1.418   1_554 S
Cu477  O497    1.954   .     S
Cu477  O491    1.959   .     S
Cu477  Cu478   2.692   .     S
Cu477  O495    1.953   .     S
Cu477  N489    2.023   .     S
Cu477  O493    1.962   .     S
Cu478  O492    1.953   .     S
Cu478  O498    1.962   .     S
Cu478  O496    1.959   .     S
Cu478  N490    2.023   .     S
Cu478  O494    1.954   .     S
H485   C976    1.081   .     S
H487   C979    1.083   1_554 S
C505   C521    1.446   .     S
C505   O547    1.295   .     A
C505   O548    1.294   .     A
C506   C507    1.419   .     A
C506   C4      1.422   1_556 S
C506   C28     1.418   1_556 S
C507   C514    1.426   .     A
C507   C511    1.405   .     A
C508   C512    1.394   .     A
C509   C510    1.400   .     A
C509   C4      1.420   1_556 S
C509   C24     1.406   1_556 S
C510   C511    1.390   .     A
C510   I557    2.124   .     S
C511   I560    2.123   .     S
C512   C529    1.396   .     A
C512   H542    1.080   .     S
C513   C528    1.396   .     A
C513   C529    1.401   .     A
C513   H535    1.083   .     S
C514   C530    1.414   .     A
C514   C516    1.501   .     S
C515   H544    1.084   .     S
C515   C521    1.402   .     A
C515   C685    1.384   .     S
C516   O550    1.304   .     A
C516   O549    1.310   .     A
C517   H536    1.084   .     S
C517   C518    1.395   .     A
C517   C851    1.384   1_545 S
C518   C526    1.442   .     S
C518   C519    1.398   .     A
C519   H537    1.084   .     S
C519   C856    1.387   1_545 S
C520   I555    2.130   .     S
C520   C521    1.410   .     A
C520   C687    1.387   .     S
C522   N546    1.354   .     A
C522   H538    1.079   .     S
C522   C579    1.408   .     S
C523   N545    1.384   .     A
C523   Cl556   1.754   .     S
C523   C634    1.408   1_455 S
C524   N545    1.369   .     A
C524   H539    1.081   .     S
C524   C637    1.421   1_455 S
C525   H540    1.081   .     S
C525   N546    1.370   .     A
C525   C580    1.421   .     S
C526   O552    1.295   .     A
C526   O551    1.292   .     A
C527   C529    1.462   .     S
C527   O553    1.296   .     A
C527   O554    1.301   .     A
C530   C531    1.391   .     A
C530   Cl558   1.753   .     S
C531   C28     1.389   1_556 S
C531   H39     1.083   1_556 S
C532   Cl559   1.767   .     S
Cu533  O553    1.954   .     S
Cu533  O547    1.959   .     S
Cu533  Cu534   2.692   .     S
Cu533  O551    1.953   .     S
Cu533  N545    2.023   .     S
Cu533  O549    1.962   .     S
Cu534  O548    1.953   .     S
Cu534  O554    1.962   .     S
Cu534  O552    1.959   .     S
Cu534  N546    2.023   .     S
Cu534  O550    1.954   .     S
H541   C24     1.081   1_556 S
C561   C577    1.446   .     S
C561   O603    1.295   .     A
C561   O604    1.294   .     A
C562   C563    1.419   .     A
C562   C60     1.422   1_556 S
C562   C84     1.418   1_556 S
C563   C570    1.426   .     A
C563   C567    1.405   .     A
C564   C568    1.394   .     A
C565   C566    1.400   .     A
C565   C60     1.420   1_556 S
C565   C80     1.406   1_556 S
C566   C567    1.390   .     A
C566   I613    2.124   .     S
C567   I616    2.123   .     S
C568   C585    1.396   .     A
C568   H598    1.080   .     S
C569   C584    1.396   .     A
C569   C585    1.401   .     A
C569   H591    1.083   .     S
C570   C586    1.414   .     A
C570   C572    1.501   .     S
C571   H600    1.084   .     S
C571   C577    1.402   .     A
C571   C741    1.384   .     S
C572   O606    1.304   .     A
C572   O605    1.310   .     A
C573   H592    1.084   .     S
C573   C574    1.395   .     A
C573   C907    1.384   1_545 S
C574   C582    1.442   .     S
C574   C575    1.398   .     A
C575   H593    1.084   .     S
C575   C912    1.387   1_545 S
C576   I611    2.130   .     S
C576   C577    1.410   .     A
C576   C743    1.387   .     S
C578   N602    1.354   .     A
C578   H594    1.079   .     S
C578   C635    1.408   .     S
C579   N601    1.384   .     A
C579   Cl612   1.754   .     S
C580   N601    1.369   .     A
C580   H595    1.081   .     S
C581   H596    1.081   .     S
C581   N602    1.370   .     A
C581   C636    1.421   .     S
C582   O608    1.295   .     A
C582   O607    1.292   .     A
C583   C585    1.462   .     S
C583   O609    1.296   .     A
C583   O610    1.301   .     A
C586   C587    1.391   .     A
C586   Cl614   1.753   .     S
C587   C84     1.389   1_556 S
C587   H95     1.083   1_556 S
C588   Cl615   1.767   .     S
Cu589  O609    1.954   .     S
Cu589  O603    1.959   .     S
Cu589  Cu590   2.692   .     S
Cu589  O607    1.953   .     S
Cu589  N601    2.023   .     S
Cu589  O605    1.962   .     S
Cu590  O604    1.953   .     S
Cu590  O610    1.962   .     S
Cu590  O608    1.959   .     S
Cu590  N602    2.023   .     S
Cu590  O606    1.954   .     S
H597   C80     1.081   1_556 S
C617   C633    1.446   .     S
C617   O659    1.295   .     A
C617   O660    1.294   .     A
C618   C619    1.419   .     A
C618   C116    1.422   1_556 S
C618   C140    1.418   1_556 S
C619   C626    1.426   .     A
C619   C623    1.405   .     A
C620   C624    1.394   .     A
C621   C622    1.400   .     A
C621   C116    1.420   1_556 S
C621   C136    1.406   1_556 S
C622   C623    1.390   .     A
C622   I669    2.124   .     S
C623   I672    2.123   .     S
C624   C641    1.396   .     A
C624   H654    1.080   .     S
C625   C640    1.396   .     A
C625   C641    1.401   .     A
C625   H647    1.083   .     S
C626   C642    1.414   .     A
C626   C628    1.501   .     S
C627   H656    1.084   .     S
C627   C633    1.402   .     A
C627   C797    1.384   .     S
C628   O662    1.304   .     A
C628   O661    1.310   .     A
C629   H648    1.084   .     S
C629   C630    1.395   .     A
C629   C963    1.384   1_545 S
C630   C638    1.442   .     S
C630   C631    1.398   .     A
C631   H649    1.084   .     S
C631   C968    1.387   1_545 S
C632   I667    2.130   .     S
C632   C633    1.410   .     A
C632   C799    1.387   .     S
C634   N658    1.354   .     A
C634   H650    1.079   .     S
C634   C523    1.408   1_655 S
C635   N657    1.384   .     A
C635   Cl668   1.754   .     S
C636   N657    1.369   .     A
C636   H651    1.081   .     S
C637   H652    1.081   .     S
C637   N658    1.370   .     A
C637   C524    1.421   1_655 S
C638   O664    1.295   .     A
C638   O663    1.292   .     A
C639   C641    1.462   .     S
C639   O665    1.296   .     A
C639   O666    1.301   .     A
C642   C643    1.391   .     A
C642   Cl670   1.753   .     S
C643   C140    1.389   1_556 S
C643   H151    1.083   1_556 S
C644   Cl671   1.767   .     S
Cu645  O665    1.954   .     S
Cu645  O659    1.959   .     S
Cu645  Cu646   2.692   .     S
Cu645  O663    1.953   .     S
Cu645  N657    2.023   .     S
Cu645  O661    1.962   .     S
Cu646  O660    1.953   .     S
Cu646  O666    1.962   .     S
Cu646  O664    1.959   .     S
Cu646  N658    2.023   .     S
Cu646  O662    1.954   .     S
H653   C136    1.081   1_556 S
C673   C689    1.446   .     S
C673   O715    1.295   .     A
C673   O716    1.294   .     A
C674   C675    1.419   .     A
C674   C172    1.422   1_556 S
C674   C196    1.418   1_556 S
C675   C682    1.426   .     A
C675   C679    1.405   .     A
C676   C680    1.394   .     A
C677   C678    1.400   .     A
C677   C172    1.420   1_556 S
C677   C192    1.406   1_556 S
C678   C679    1.390   .     A
C678   I725    2.124   .     S
C679   I728    2.123   .     S
C680   C697    1.396   .     A
C680   H710    1.080   .     S
C681   C696    1.396   .     A
C681   C697    1.401   .     A
C681   H703    1.083   .     S
C682   C698    1.414   .     A
C682   C684    1.501   .     S
C683   H712    1.084   .     S
C683   C689    1.402   .     A
C683   C853    1.384   .     S
C684   O718    1.304   .     A
C684   O717    1.310   .     A
C685   H704    1.084   .     S
C685   C686    1.395   .     A
C686   C694    1.442   .     S
C686   C687    1.398   .     A
C687   H705    1.084   .     S
C688   I723    2.130   .     S
C688   C689    1.410   .     A
C688   C855    1.387   .     S
C690   N714    1.354   .     A
C690   H706    1.079   .     S
C690   C747    1.408   .     S
C691   N713    1.384   .     A
C691   Cl724   1.754   .     S
C691   C802    1.408   1_455 S
C692   N713    1.369   .     A
C692   H707    1.081   .     S
C692   C805    1.421   1_455 S
C693   H708    1.081   .     S
C693   N714    1.370   .     A
C693   C748    1.421   .     S
C694   O720    1.295   .     A
C694   O719    1.292   .     A
C695   C697    1.462   .     S
C695   O721    1.296   .     A
C695   O722    1.301   .     A
C698   C699    1.391   .     A
C698   Cl726   1.753   .     S
C699   C196    1.389   1_556 S
C699   H207    1.083   1_556 S
C700   Cl727   1.767   .     S
Cu701  O721    1.954   .     S
Cu701  O715    1.959   .     S
Cu701  Cu702   2.692   .     S
Cu701  O719    1.953   .     S
Cu701  N713    2.023   .     S
Cu701  O717    1.962   .     S
Cu702  O716    1.953   .     S
Cu702  O722    1.962   .     S
Cu702  O720    1.959   .     S
Cu702  N714    2.023   .     S
Cu702  O718    1.954   .     S
H709   C192    1.081   1_556 S
C729   C745    1.446   .     S
C729   O771    1.295   .     A
C729   O772    1.294   .     A
C730   C731    1.419   .     A
C730   C228    1.422   1_556 S
C730   C252    1.418   1_556 S
C731   C738    1.426   .     A
C731   C735    1.405   .     A
C732   C736    1.394   .     A
C733   C734    1.400   .     A
C733   C228    1.420   1_556 S
C733   C248    1.406   1_556 S
C734   C735    1.390   .     A
C734   I781    2.124   .     S
C735   I784    2.123   .     S
C736   C753    1.396   .     A
C736   H766    1.080   .     S
C737   C752    1.396   .     A
C737   C753    1.401   .     A
C737   H759    1.083   .     S
C738   C754    1.414   .     A
C738   C740    1.501   .     S
C739   H768    1.084   .     S
C739   C745    1.402   .     A
C739   C909    1.384   .     S
C740   O774    1.304   .     A
C740   O773    1.310   .     A
C741   H760    1.084   .     S
C741   C742    1.395   .     A
C742   C750    1.442   .     S
C742   C743    1.398   .     A
C743   H761    1.084   .     S
C744   I779    2.130   .     S
C744   C745    1.410   .     A
C744   C911    1.387   .     S
C746   N770    1.354   .     A
C746   H762    1.079   .     S
C746   C803    1.408   .     S
C747   N769    1.384   .     A
C747   Cl780   1.754   .     S
C748   N769    1.369   .     A
C748   H763    1.081   .     S
C749   H764    1.081   .     S
C749   N770    1.370   .     A
C749   C804    1.421   .     S
C750   O776    1.295   .     A
C750   O775    1.292   .     A
C751   C753    1.462   .     S
C751   O777    1.296   .     A
C751   O778    1.301   .     A
C754   C755    1.391   .     A
C754   Cl782   1.753   .     S
C755   C252    1.389   1_556 S
C755   H263    1.083   1_556 S
C756   Cl783   1.767   .     S
Cu757  O777    1.954   .     S
Cu757  O771    1.959   .     S
Cu757  Cu758   2.692   .     S
Cu757  O775    1.953   .     S
Cu757  N769    2.023   .     S
Cu757  O773    1.962   .     S
Cu758  O772    1.953   .     S
Cu758  O778    1.962   .     S
Cu758  O776    1.959   .     S
Cu758  N770    2.023   .     S
Cu758  O774    1.954   .     S
H765   C248    1.081   1_556 S
C785   C801    1.446   .     S
C785   O827    1.295   .     A
C785   O828    1.294   .     A
C786   C787    1.419   .     A
C786   C284    1.422   1_556 S
C786   C308    1.418   1_556 S
C787   C794    1.426   .     A
C787   C791    1.405   .     A
C788   C792    1.394   .     A
C789   C790    1.400   .     A
C789   C284    1.420   1_556 S
C789   C304    1.406   1_556 S
C790   C791    1.390   .     A
C790   I837    2.124   .     S
C791   I840    2.123   .     S
C792   C809    1.396   .     A
C792   H822    1.080   .     S
C793   C808    1.396   .     A
C793   C809    1.401   .     A
C793   H815    1.083   .     S
C794   C810    1.414   .     A
C794   C796    1.501   .     S
C795   H824    1.084   .     S
C795   C801    1.402   .     A
C795   C965    1.384   .     S
C796   O830    1.304   .     A
C796   O829    1.310   .     A
C797   H816    1.084   .     S
C797   C798    1.395   .     A
C798   C806    1.442   .     S
C798   C799    1.398   .     A
C799   H817    1.084   .     S
C800   I835    2.130   .     S
C800   C801    1.410   .     A
C800   C967    1.387   .     S
C802   N826    1.354   .     A
C802   H818    1.079   .     S
C802   C691    1.408   1_655 S
C803   N825    1.384   .     A
C803   Cl836   1.754   .     S
C804   N825    1.369   .     A
C804   H819    1.081   .     S
C805   H820    1.081   .     S
C805   N826    1.370   .     A
C805   C692    1.421   1_655 S
C806   O832    1.295   .     A
C806   O831    1.292   .     A
C807   C809    1.462   .     S
C807   O833    1.296   .     A
C807   O834    1.301   .     A
C810   C811    1.391   .     A
C810   Cl838   1.753   .     S
C811   C308    1.389   1_556 S
C811   H319    1.083   1_556 S
C812   Cl839   1.767   .     S
Cu813  O833    1.954   .     S
Cu813  O827    1.959   .     S
Cu813  Cu814   2.692   .     S
Cu813  O831    1.953   .     S
Cu813  N825    2.023   .     S
Cu813  O829    1.962   .     S
Cu814  O828    1.953   .     S
Cu814  O834    1.962   .     S
Cu814  O832    1.959   .     S
Cu814  N826    2.023   .     S
Cu814  O830    1.954   .     S
H821   C304    1.081   1_556 S
C841   C857    1.446   .     S
C841   O883    1.295   .     A
C841   O884    1.294   .     A
C842   C843    1.419   .     A
C842   C340    1.422   1_556 S
C842   C364    1.418   1_556 S
C843   C850    1.426   .     A
C843   C847    1.405   .     A
C844   C848    1.394   .     A
C845   C846    1.400   .     A
C845   C340    1.420   1_556 S
C845   C360    1.406   1_556 S
C846   C847    1.390   .     A
C846   I893    2.124   .     S
C847   I896    2.123   .     S
C848   C865    1.396   .     A
C848   H878    1.080   .     S
C849   C864    1.396   .     A
C849   C865    1.401   .     A
C849   H871    1.083   .     S
C850   C866    1.414   .     A
C850   C852    1.501   .     S
C851   H880    1.084   .     S
C851   C857    1.402   .     A
C851   C517    1.384   1_565 S
C852   O886    1.304   .     A
C852   O885    1.310   .     A
C853   H872    1.084   .     S
C853   C854    1.395   .     A
C854   C862    1.442   .     S
C854   C855    1.398   .     A
C855   H873    1.084   .     S
C856   I891    2.130   .     S
C856   C857    1.410   .     A
C856   C519    1.387   1_565 S
C858   N882    1.354   .     A
C858   H874    1.079   .     S
C858   C915    1.408   .     S
C859   N881    1.384   .     A
C859   Cl892   1.754   .     S
C859   C970    1.408   1_455 S
C860   N881    1.369   .     A
C860   H875    1.081   .     S
C860   C973    1.421   1_455 S
C861   H876    1.081   .     S
C861   N882    1.370   .     A
C861   C916    1.421   .     S
C862   O888    1.295   .     A
C862   O887    1.292   .     A
C863   C865    1.462   .     S
C863   O889    1.296   .     A
C863   O890    1.301   .     A
C866   C867    1.391   .     A
C866   Cl894   1.753   .     S
C867   C364    1.389   1_556 S
C867   H375    1.083   1_556 S
C868   Cl895   1.767   .     S
Cu869  O889    1.954   .     S
Cu869  O883    1.959   .     S
Cu869  Cu870   2.692   .     S
Cu869  O887    1.953   .     S
Cu869  N881    2.023   .     S
Cu869  O885    1.962   .     S
Cu870  O884    1.953   .     S
Cu870  O890    1.962   .     S
Cu870  O888    1.959   .     S
Cu870  N882    2.023   .     S
Cu870  O886    1.954   .     S
H877   C360    1.081   1_556 S
C897   C913    1.446   .     S
C897   O939    1.295   .     A
C897   O940    1.294   .     A
C898   C899    1.419   .     A
C898   C396    1.422   1_556 S
C898   C420    1.418   1_556 S
C899   C906    1.426   .     A
C899   C903    1.405   .     A
C900   C904    1.394   .     A
C901   C902    1.400   .     A
C901   C396    1.420   1_556 S
C901   C416    1.406   1_556 S
C902   C903    1.390   .     A
C902   I949    2.124   .     S
C903   I952    2.123   .     S
C904   C921    1.396   .     A
C904   H934    1.080   .     S
C905   C920    1.396   .     A
C905   C921    1.401   .     A
C905   H927    1.083   .     S
C906   C922    1.414   .     A
C906   C908    1.501   .     S
C907   H936    1.084   .     S
C907   C913    1.402   .     A
C907   C573    1.384   1_565 S
C908   O942    1.304   .     A
C908   O941    1.310   .     A
C909   H928    1.084   .     S
C909   C910    1.395   .     A
C910   C918    1.442   .     S
C910   C911    1.398   .     A
C911   H929    1.084   .     S
C912   I947    2.130   .     S
C912   C913    1.410   .     A
C912   C575    1.387   1_565 S
C914   N938    1.354   .     A
C914   H930    1.079   .     S
C914   C971    1.408   .     S
C915   N937    1.384   .     A
C915   Cl948   1.754   .     S
C916   N937    1.369   .     A
C916   H931    1.081   .     S
C917   H932    1.081   .     S
C917   N938    1.370   .     A
C917   C972    1.421   .     S
C918   O944    1.295   .     A
C918   O943    1.292   .     A
C919   C921    1.462   .     S
C919   O945    1.296   .     A
C919   O946    1.301   .     A
C922   C923    1.391   .     A
C922   Cl950   1.753   .     S
C923   C420    1.389   1_556 S
C923   H431    1.083   1_556 S
C924   Cl951   1.767   .     S
Cu925  O945    1.954   .     S
Cu925  O939    1.959   .     S
Cu925  Cu926   2.692   .     S
Cu925  O943    1.953   .     S
Cu925  N937    2.023   .     S
Cu925  O941    1.962   .     S
Cu926  O940    1.953   .     S
Cu926  O946    1.962   .     S
Cu926  O944    1.959   .     S
Cu926  N938    2.023   .     S
Cu926  O942    1.954   .     S
H933   C416    1.081   1_556 S
C953   C969    1.446   .     S
C953   O995    1.295   .     A
C953   O996    1.294   .     A
C954   C955    1.419   .     A
C954   C452    1.422   1_556 S
C954   C476    1.418   1_556 S
C955   C962    1.426   .     A
C955   C959    1.405   .     A
C956   C960    1.394   .     A
C957   C958    1.400   .     A
C957   C452    1.420   1_556 S
C957   C472    1.406   1_556 S
C958   C959    1.390   .     A
C958   I1005   2.124   .     S
C959   I1008   2.123   .     S
C960   C977    1.396   .     A
C960   H990    1.080   .     S
C961   C976    1.396   .     A
C961   C977    1.401   .     A
C961   H983    1.083   .     S
C962   C978    1.414   .     A
C962   C964    1.501   .     S
C963   H992    1.084   .     S
C963   C969    1.402   .     A
C963   C629    1.384   1_565 S
C964   O998    1.304   .     A
C964   O997    1.310   .     A
C965   H984    1.084   .     S
C965   C966    1.395   .     A
C966   C974    1.442   .     S
C966   C967    1.398   .     A
C967   H985    1.084   .     S
C968   I1003   2.130   .     S
C968   C969    1.410   .     A
C968   C631    1.387   1_565 S
C970   N994    1.354   .     A
C970   H986    1.079   .     S
C970   C859    1.408   1_655 S
C971   N993    1.384   .     A
C971   Cl1004  1.754   .     S
C972   N993    1.369   .     A
C972   H987    1.081   .     S
C973   H988    1.081   .     S
C973   N994    1.370   .     A
C973   C860    1.421   1_655 S
C974   O1000   1.295   .     A
C974   O999    1.292   .     A
C975   C977    1.462   .     S
C975   O1001   1.296   .     A
C975   O1002   1.301   .     A
C978   C979    1.391   .     A
C978   Cl1006  1.753   .     S
C979   C476    1.389   1_556 S
C979   H487    1.083   1_556 S
C980   Cl1007  1.767   .     S
Cu981  O1001   1.954   .     S
Cu981  O995    1.959   .     S
Cu981  Cu982   2.692   .     S
Cu981  O999    1.953   .     S
Cu981  N993    2.023   .     S
Cu981  O997    1.962   .     S
Cu982  O996    1.953   .     S
Cu982  O1002   1.962   .     S
Cu982  O1000   1.959   .     S
Cu982  N994    2.023   .     S
Cu982  O998    1.954   .     S
H989   C472    1.081   1_556 S
