data_str_m2_o10_o17_pcu_sym.200
_audit_creation_date              2020-01-03
_audit_creation_method            'Materials Studio'
_symmetry_space_group_name_H-M    'P1'
_symmetry_Int_Tables_number       1
_symmetry_cell_setting            triclinic
loop_
_symmetry_equiv_pos_as_xyz
  x,y,z
_cell_length_a                    30.0349
_cell_length_b                    26.3168
_cell_length_c                    22.4222
_cell_angle_alpha                 102.3258
_cell_angle_beta                  92.1970
_cell_angle_gamma                 90.9482
loop_
_atom_site_label
_atom_site_type_symbol
_atom_site_fract_x
_atom_site_fract_y
_atom_site_fract_z
_atom_site_U_iso_or_equiv
_atom_site_adp_type
_atom_site_occupancy
C1     C     0.24655   0.06686   0.15170   0.00000  Uiso   1.00
C2     C     0.25259   0.26635   0.18168   0.00000  Uiso   1.00
C3     C     0.02210   0.06684   0.14412   0.00000  Uiso   1.00
C4     C     0.47687   0.25465   0.20657   0.00000  Uiso   1.00
C5     C     0.24104   0.01101   0.14479   0.00000  Uiso   1.00
C6     C     0.25850   0.32166   0.18871   0.00000  Uiso   1.00
C7     C     0.16473   0.16645   0.16866   0.00000  Uiso   1.00
C8     C     0.33508   0.16283   0.16404   0.00000  Uiso   1.00
C9     C     0.40736   0.20875   0.16849   0.00000  Uiso   1.00
C10    C     0.09371   0.11574   0.16280   0.00000  Uiso   1.00
C11    C     0.38313   0.16161   0.15817   0.00000  Uiso   1.00
C12    C     0.11668   0.16418   0.17381   0.00000  Uiso   1.00
C13    C     0.40486   0.11387   0.14822   0.00000  Uiso   1.00
C14    C     0.09433   0.21105   0.18873   0.00000  Uiso   1.00
C15    C     0.45210   0.11341   0.15058   0.00000  Uiso   1.00
C16    C     0.04725   0.21014   0.18973   0.00000  Uiso   1.00
C17    C     0.47640   0.16118   0.16669   0.00000  Uiso   1.00
C18    C     0.02352   0.16189   0.17154   0.00000  Uiso   1.00
C19    C     0.45352   0.20851   0.17924   0.00000  Uiso   1.00
C20    C     0.04668   0.11447   0.15941   0.00000  Uiso   1.00
C21    C     0.47555   0.06676   0.13922   0.00000  Uiso   1.00
C22    C     0.02319   0.25573   0.20974   0.00000  Uiso   1.00
Cu23   Cu    0.25500   0.17246   0.22813   0.00000  Uiso   1.00
Cu24   Cu    0.24499   0.16087   0.10521   0.00000  Uiso   1.00
H25    H     0.45848   0.02931   0.12683   0.00000  Uiso   1.00
H26    H     0.03921   0.29242   0.23126   0.00000  Uiso   1.00
H27    H     0.21290   0.13114   0.31782   0.00000  Uiso   1.00
H28    H     0.28624   0.20369   0.01586   0.00000  Uiso   1.00
N29    N     0.23744   0.15214   0.01284   0.00000  Uiso   1.00
N30    N     0.26255   0.18119   0.32049   0.00000  Uiso   1.00
O31    O     0.25325   0.09538   0.20659   0.00000  Uiso   1.00
O32    O     0.24674   0.23796   0.12674   0.00000  Uiso   1.00
O33    O     0.24480   0.08559   0.10279   0.00000  Uiso   1.00
O34    O     0.25520   0.24774   0.23055   0.00000  Uiso   1.00
O35    O     0.18935   0.17155   0.21857   0.00000  Uiso   1.00
O36    O     0.31064   0.16179   0.11476   0.00000  Uiso   1.00
O37    O     0.18090   0.16176   0.11477   0.00000  Uiso   1.00
O38    O     0.31910   0.17157   0.21857   0.00000  Uiso   1.00
O39    O     0.38689   0.25583   0.17075   0.00000  Uiso   1.00
H40    H     0.35601   0.25022   0.15339   0.00000  Uiso   1.00
O41    O     0.11634   0.06943   0.15368   0.00000  Uiso   1.00
H42    H     0.14774   0.07556   0.16876   0.00000  Uiso   1.00
O43    O     0.37895   0.06887   0.13528   0.00000  Uiso   1.00
H44    H     0.39286   0.04349   0.15655   0.00000  Uiso   1.00
O45    O     0.12021   0.25633   0.20112   0.00000  Uiso   1.00
H46    H     0.10235   0.28647   0.19681   0.00000  Uiso   1.00
O47    O     0.04305   0.01983   0.13962   0.00000  Uiso   1.00
C48    C     0.04772   0.33024   0.07741   0.00000  Uiso   1.00
H49    H     0.06709   0.02302   0.05426   0.00000  Uiso   1.00
H50    H     0.01455   0.32228   0.05458   0.00000  Uiso   1.00
C51    C     0.07189   0.27898   0.07276   0.00000  Uiso   1.00
H52    H     0.10565   0.28701   0.09502   0.00000  Uiso   1.00
H53    H     0.05276   0.25363   0.09633   0.00000  Uiso   1.00
C54    C     0.07649   0.24940   0.00733   0.00000  Uiso   1.00
H55    H     0.08803   0.27586   0.31183   0.00000  Uiso   1.00
H56    H     0.04412   0.23070   0.32202   0.00000  Uiso   1.00
H57    H     0.10115   0.21827   0.00630   0.00000  Uiso   1.00
O58    O     0.45449   0.29749   0.23694   0.00000  Uiso   1.00
C59    C     0.45000   0.29355   0.29866   0.00000  Uiso   1.00
H60    H     0.45062   0.00032   0.32717   0.00000  Uiso   1.00
H61    H     0.47770   0.27240   0.31582   0.00000  Uiso   1.00
C62    C     0.40641   0.26566   0.30802   0.00000  Uiso   1.00
H63    H     0.37782   0.28198   0.28665   0.00000  Uiso   1.00
H64    H     0.40818   0.22353   0.28754   0.00000  Uiso   1.00
C65    C     0.39831   0.27074   0.04205   0.00000  Uiso   1.00
H66    H     0.42719   0.25598   0.06513   0.00000  Uiso   1.00
H67    H     0.36791   0.24764   0.04688   0.00000  Uiso   1.00
H68    H     0.39316   0.31197   0.06381   0.00000  Uiso   1.00
O69    O     0.20869   0.31654   0.10340   0.00000  Uiso   1.00
C70    C     0.21360   0.32080   0.04218   0.00000  Uiso   1.00
H71    H     0.21200   0.28066   0.01368   0.00000  Uiso   1.00
H72    H     0.24634   0.00413   0.03309   0.00000  Uiso   1.00
C73    C     0.17414   0.01712   0.02220   0.00000  Uiso   1.00
H74    H     0.14303   0.33071   0.03029   0.00000  Uiso   1.00
H75    H     0.17348   0.05736   0.04982   0.00000  Uiso   1.00
C76    C     0.17446   0.01895   0.28823   0.00000  Uiso   1.00
H77    H     0.20117   0.04581   0.28059   0.00000  Uiso   1.00
H78    H     0.14208   0.03320   0.27362   0.00000  Uiso   1.00
H79    H     0.18010   0.31312   0.26014   0.00000  Uiso   1.00
O80    O     0.27554   0.01631   0.24499   0.00000  Uiso   1.00
C81    C     0.32097   0.02892   0.24149   0.00000  Uiso   1.00
H82    H     0.32523   0.05436   0.20867   0.00000  Uiso   1.00
H83    H     0.34031   0.32676   0.22673   0.00000  Uiso   1.00
C84    C     0.33890   0.05816   0.30451   0.00000  Uiso   1.00
H85    H     0.31534   0.08881   0.32398   0.00000  Uiso   1.00
H86    H     0.34156   0.03067   0.00240   0.00000  Uiso   1.00
C87    C     0.38438   0.08393   0.30105   0.00000  Uiso   1.00
H88    H     0.38090   0.11660   0.27718   0.00000  Uiso   1.00
H89    H     0.40759   0.05549   0.27600   0.00000  Uiso   1.00
H90    H     0.39869   0.09964   0.01452   0.00000  Uiso   1.00
C91    C     0.74655   0.06686   0.15170   0.00000  Uiso   1.00
C92    C     0.75259   0.26635   0.18168   0.00000  Uiso   1.00
C93    C     0.52210   0.06684   0.14412   0.00000  Uiso   1.00
C94    C     0.97687   0.25465   0.20657   0.00000  Uiso   1.00
C95    C     0.74104   0.01101   0.14479   0.00000  Uiso   1.00
C96    C     0.75850   0.32166   0.18871   0.00000  Uiso   1.00
C97    C     0.66473   0.16645   0.16866   0.00000  Uiso   1.00
C98    C     0.83508   0.16283   0.16404   0.00000  Uiso   1.00
C99    C     0.90736   0.20875   0.16849   0.00000  Uiso   1.00
C100   C     0.59371   0.11574   0.16280   0.00000  Uiso   1.00
C101   C     0.88313   0.16161   0.15817   0.00000  Uiso   1.00
C102   C     0.61668   0.16418   0.17381   0.00000  Uiso   1.00
C103   C     0.90486   0.11387   0.14822   0.00000  Uiso   1.00
C104   C     0.59433   0.21105   0.18873   0.00000  Uiso   1.00
C105   C     0.95210   0.11341   0.15058   0.00000  Uiso   1.00
C106   C     0.54725   0.21014   0.18973   0.00000  Uiso   1.00
C107   C     0.97640   0.16118   0.16669   0.00000  Uiso   1.00
C108   C     0.52352   0.16189   0.17154   0.00000  Uiso   1.00
C109   C     0.95352   0.20851   0.17924   0.00000  Uiso   1.00
C110   C     0.54668   0.11447   0.15941   0.00000  Uiso   1.00
C111   C     0.97555   0.06676   0.13922   0.00000  Uiso   1.00
C112   C     0.52319   0.25573   0.20974   0.00000  Uiso   1.00
Cu113  Cu    0.75500   0.17246   0.22813   0.00000  Uiso   1.00
Cu114  Cu    0.74499   0.16087   0.10521   0.00000  Uiso   1.00
H115   H     0.95848   0.02931   0.12683   0.00000  Uiso   1.00
H116   H     0.53921   0.29242   0.23126   0.00000  Uiso   1.00
H117   H     0.71290   0.13114   0.31782   0.00000  Uiso   1.00
H118   H     0.78624   0.20369   0.01586   0.00000  Uiso   1.00
N119   N     0.73744   0.15214   0.01284   0.00000  Uiso   1.00
N120   N     0.76255   0.18119   0.32049   0.00000  Uiso   1.00
O121   O     0.75325   0.09538   0.20659   0.00000  Uiso   1.00
O122   O     0.74674   0.23796   0.12674   0.00000  Uiso   1.00
O123   O     0.74480   0.08559   0.10279   0.00000  Uiso   1.00
O124   O     0.75520   0.24774   0.23055   0.00000  Uiso   1.00
O125   O     0.68935   0.17155   0.21857   0.00000  Uiso   1.00
O126   O     0.81064   0.16179   0.11476   0.00000  Uiso   1.00
O127   O     0.68090   0.16176   0.11477   0.00000  Uiso   1.00
O128   O     0.81910   0.17157   0.21857   0.00000  Uiso   1.00
O129   O     0.88689   0.25583   0.17075   0.00000  Uiso   1.00
H130   H     0.85601   0.25022   0.15339   0.00000  Uiso   1.00
O131   O     0.61634   0.06943   0.15368   0.00000  Uiso   1.00
H132   H     0.64774   0.07556   0.16876   0.00000  Uiso   1.00
O133   O     0.87895   0.06887   0.13528   0.00000  Uiso   1.00
H134   H     0.89286   0.04349   0.15655   0.00000  Uiso   1.00
O135   O     0.62021   0.25633   0.20112   0.00000  Uiso   1.00
H136   H     0.60235   0.28647   0.19681   0.00000  Uiso   1.00
O137   O     0.54305   0.01983   0.13962   0.00000  Uiso   1.00
C138   C     0.54772   0.33024   0.07741   0.00000  Uiso   1.00
H139   H     0.56709   0.02302   0.05426   0.00000  Uiso   1.00
H140   H     0.51455   0.32228   0.05458   0.00000  Uiso   1.00
C141   C     0.57189   0.27898   0.07276   0.00000  Uiso   1.00
H142   H     0.60565   0.28701   0.09502   0.00000  Uiso   1.00
H143   H     0.55276   0.25363   0.09633   0.00000  Uiso   1.00
C144   C     0.57649   0.24940   0.00733   0.00000  Uiso   1.00
H145   H     0.58803   0.27586   0.31183   0.00000  Uiso   1.00
H146   H     0.54412   0.23070   0.32202   0.00000  Uiso   1.00
H147   H     0.60115   0.21827   0.00630   0.00000  Uiso   1.00
O148   O     0.95449   0.29749   0.23694   0.00000  Uiso   1.00
C149   C     0.95000   0.29355   0.29866   0.00000  Uiso   1.00
H150   H     0.95062   0.00032   0.32717   0.00000  Uiso   1.00
H151   H     0.97770   0.27240   0.31582   0.00000  Uiso   1.00
C152   C     0.90641   0.26566   0.30802   0.00000  Uiso   1.00
H153   H     0.87782   0.28198   0.28665   0.00000  Uiso   1.00
H154   H     0.90818   0.22353   0.28754   0.00000  Uiso   1.00
C155   C     0.89831   0.27074   0.04205   0.00000  Uiso   1.00
H156   H     0.92719   0.25598   0.06513   0.00000  Uiso   1.00
H157   H     0.86791   0.24764   0.04688   0.00000  Uiso   1.00
H158   H     0.89316   0.31197   0.06381   0.00000  Uiso   1.00
O159   O     0.70869   0.31654   0.10340   0.00000  Uiso   1.00
C160   C     0.71360   0.32080   0.04218   0.00000  Uiso   1.00
H161   H     0.71200   0.28066   0.01368   0.00000  Uiso   1.00
H162   H     0.74634   0.00413   0.03309   0.00000  Uiso   1.00
C163   C     0.67414   0.01712   0.02220   0.00000  Uiso   1.00
H164   H     0.64303   0.33071   0.03029   0.00000  Uiso   1.00
H165   H     0.67348   0.05736   0.04982   0.00000  Uiso   1.00
C166   C     0.67446   0.01895   0.28823   0.00000  Uiso   1.00
H167   H     0.70117   0.04581   0.28059   0.00000  Uiso   1.00
H168   H     0.64208   0.03320   0.27362   0.00000  Uiso   1.00
H169   H     0.68010   0.31312   0.26014   0.00000  Uiso   1.00
O170   O     0.77554   0.01631   0.24499   0.00000  Uiso   1.00
C171   C     0.82097   0.02892   0.24149   0.00000  Uiso   1.00
H172   H     0.82523   0.05436   0.20867   0.00000  Uiso   1.00
H173   H     0.84031   0.32676   0.22673   0.00000  Uiso   1.00
C174   C     0.83890   0.05816   0.30451   0.00000  Uiso   1.00
H175   H     0.81534   0.08881   0.32398   0.00000  Uiso   1.00
H176   H     0.84156   0.03067   0.00240   0.00000  Uiso   1.00
C177   C     0.88438   0.08393   0.30105   0.00000  Uiso   1.00
H178   H     0.88090   0.11660   0.27718   0.00000  Uiso   1.00
H179   H     0.90759   0.05549   0.27600   0.00000  Uiso   1.00
H180   H     0.89869   0.09964   0.01452   0.00000  Uiso   1.00
C181   C     0.24655   0.40019   0.15170   0.00000  Uiso   1.00
C182   C     0.25259   0.59969   0.18168   0.00000  Uiso   1.00
C183   C     0.02210   0.40018   0.14412   0.00000  Uiso   1.00
C184   C     0.47687   0.58799   0.20657   0.00000  Uiso   1.00
C185   C     0.24104   0.34434   0.14479   0.00000  Uiso   1.00
C186   C     0.25850   0.65500   0.18871   0.00000  Uiso   1.00
C187   C     0.16473   0.49978   0.16866   0.00000  Uiso   1.00
C188   C     0.33508   0.49616   0.16404   0.00000  Uiso   1.00
C189   C     0.40736   0.54208   0.16849   0.00000  Uiso   1.00
C190   C     0.09371   0.44907   0.16280   0.00000  Uiso   1.00
C191   C     0.38313   0.49495   0.15817   0.00000  Uiso   1.00
C192   C     0.11668   0.49752   0.17381   0.00000  Uiso   1.00
C193   C     0.40486   0.44721   0.14822   0.00000  Uiso   1.00
C194   C     0.09433   0.54438   0.18873   0.00000  Uiso   1.00
C195   C     0.45210   0.44675   0.15058   0.00000  Uiso   1.00
C196   C     0.04725   0.54348   0.18973   0.00000  Uiso   1.00
C197   C     0.47640   0.49452   0.16669   0.00000  Uiso   1.00
C198   C     0.02352   0.49523   0.17154   0.00000  Uiso   1.00
C199   C     0.45352   0.54184   0.17924   0.00000  Uiso   1.00
C200   C     0.04668   0.44781   0.15941   0.00000  Uiso   1.00
C201   C     0.47555   0.40010   0.13922   0.00000  Uiso   1.00
C202   C     0.02319   0.58906   0.20974   0.00000  Uiso   1.00
Cu203  Cu    0.25500   0.50579   0.22813   0.00000  Uiso   1.00
Cu204  Cu    0.24499   0.49421   0.10521   0.00000  Uiso   1.00
H205   H     0.45848   0.36264   0.12683   0.00000  Uiso   1.00
H206   H     0.03921   0.62576   0.23126   0.00000  Uiso   1.00
H207   H     0.21290   0.46447   0.31782   0.00000  Uiso   1.00
H208   H     0.28624   0.53702   0.01586   0.00000  Uiso   1.00
N209   N     0.23744   0.48547   0.01284   0.00000  Uiso   1.00
N210   N     0.26255   0.51453   0.32049   0.00000  Uiso   1.00
O211   O     0.25325   0.42871   0.20659   0.00000  Uiso   1.00
O212   O     0.24674   0.57129   0.12674   0.00000  Uiso   1.00
O213   O     0.24480   0.41892   0.10279   0.00000  Uiso   1.00
O214   O     0.25520   0.58108   0.23055   0.00000  Uiso   1.00
O215   O     0.18935   0.50488   0.21857   0.00000  Uiso   1.00
O216   O     0.31064   0.49512   0.11476   0.00000  Uiso   1.00
O217   O     0.18090   0.49510   0.11477   0.00000  Uiso   1.00
O218   O     0.31910   0.50490   0.21857   0.00000  Uiso   1.00
O219   O     0.38689   0.58917   0.17075   0.00000  Uiso   1.00
H220   H     0.35601   0.58355   0.15339   0.00000  Uiso   1.00
O221   O     0.11634   0.40277   0.15368   0.00000  Uiso   1.00
H222   H     0.14774   0.40890   0.16876   0.00000  Uiso   1.00
O223   O     0.37895   0.40221   0.13528   0.00000  Uiso   1.00
H224   H     0.39286   0.37683   0.15655   0.00000  Uiso   1.00
O225   O     0.12021   0.58967   0.20112   0.00000  Uiso   1.00
H226   H     0.10235   0.61981   0.19681   0.00000  Uiso   1.00
O227   O     0.04305   0.35316   0.13962   0.00000  Uiso   1.00
C228   C     0.04772   0.66358   0.07741   0.00000  Uiso   1.00
H229   H     0.06709   0.35636   0.05426   0.00000  Uiso   1.00
H230   H     0.01455   0.65561   0.05458   0.00000  Uiso   1.00
C231   C     0.07189   0.61232   0.07276   0.00000  Uiso   1.00
H232   H     0.10565   0.62034   0.09502   0.00000  Uiso   1.00
H233   H     0.05276   0.58697   0.09633   0.00000  Uiso   1.00
C234   C     0.07649   0.58274   0.00733   0.00000  Uiso   1.00
H235   H     0.08803   0.60920   0.31183   0.00000  Uiso   1.00
H236   H     0.04412   0.56403   0.32202   0.00000  Uiso   1.00
H237   H     0.10115   0.55160   0.00630   0.00000  Uiso   1.00
O238   O     0.45449   0.63082   0.23694   0.00000  Uiso   1.00
C239   C     0.45000   0.62689   0.29866   0.00000  Uiso   1.00
H240   H     0.45062   0.33365   0.32717   0.00000  Uiso   1.00
H241   H     0.47770   0.60574   0.31582   0.00000  Uiso   1.00
C242   C     0.40641   0.59900   0.30802   0.00000  Uiso   1.00
H243   H     0.37782   0.61532   0.28665   0.00000  Uiso   1.00
H244   H     0.40818   0.55687   0.28754   0.00000  Uiso   1.00
C245   C     0.39831   0.60408   0.04205   0.00000  Uiso   1.00
H246   H     0.42719   0.58931   0.06513   0.00000  Uiso   1.00
H247   H     0.36791   0.58097   0.04688   0.00000  Uiso   1.00
H248   H     0.39316   0.64531   0.06381   0.00000  Uiso   1.00
O249   O     0.20869   0.64987   0.10340   0.00000  Uiso   1.00
C250   C     0.21360   0.65413   0.04218   0.00000  Uiso   1.00
H251   H     0.21200   0.61399   0.01368   0.00000  Uiso   1.00
H252   H     0.24634   0.33746   0.03309   0.00000  Uiso   1.00
C253   C     0.17414   0.35046   0.02220   0.00000  Uiso   1.00
H254   H     0.14303   0.66405   0.03029   0.00000  Uiso   1.00
H255   H     0.17348   0.39070   0.04982   0.00000  Uiso   1.00
C256   C     0.17446   0.35229   0.28823   0.00000  Uiso   1.00
H257   H     0.20117   0.37915   0.28059   0.00000  Uiso   1.00
H258   H     0.14208   0.36653   0.27362   0.00000  Uiso   1.00
H259   H     0.18010   0.64646   0.26014   0.00000  Uiso   1.00
O260   O     0.27554   0.34964   0.24499   0.00000  Uiso   1.00
C261   C     0.32097   0.36225   0.24149   0.00000  Uiso   1.00
H262   H     0.32523   0.38769   0.20867   0.00000  Uiso   1.00
H263   H     0.34031   0.66009   0.22673   0.00000  Uiso   1.00
C264   C     0.33890   0.39149   0.30451   0.00000  Uiso   1.00
H265   H     0.31534   0.42215   0.32398   0.00000  Uiso   1.00
H266   H     0.34156   0.36400   0.00240   0.00000  Uiso   1.00
C267   C     0.38438   0.41726   0.30105   0.00000  Uiso   1.00
H268   H     0.38090   0.44993   0.27718   0.00000  Uiso   1.00
H269   H     0.40759   0.38883   0.27600   0.00000  Uiso   1.00
H270   H     0.39869   0.43297   0.01452   0.00000  Uiso   1.00
C271   C     0.74655   0.40019   0.15170   0.00000  Uiso   1.00
C272   C     0.75259   0.59969   0.18168   0.00000  Uiso   1.00
C273   C     0.52210   0.40018   0.14412   0.00000  Uiso   1.00
C274   C     0.97687   0.58799   0.20657   0.00000  Uiso   1.00
C275   C     0.74104   0.34434   0.14479   0.00000  Uiso   1.00
C276   C     0.75850   0.65500   0.18871   0.00000  Uiso   1.00
C277   C     0.66473   0.49978   0.16866   0.00000  Uiso   1.00
C278   C     0.83508   0.49616   0.16404   0.00000  Uiso   1.00
C279   C     0.90736   0.54208   0.16849   0.00000  Uiso   1.00
C280   C     0.59371   0.44907   0.16280   0.00000  Uiso   1.00
C281   C     0.88313   0.49495   0.15817   0.00000  Uiso   1.00
C282   C     0.61668   0.49752   0.17381   0.00000  Uiso   1.00
C283   C     0.90486   0.44721   0.14822   0.00000  Uiso   1.00
C284   C     0.59433   0.54438   0.18873   0.00000  Uiso   1.00
C285   C     0.95210   0.44675   0.15058   0.00000  Uiso   1.00
C286   C     0.54725   0.54348   0.18973   0.00000  Uiso   1.00
C287   C     0.97640   0.49452   0.16669   0.00000  Uiso   1.00
C288   C     0.52352   0.49523   0.17154   0.00000  Uiso   1.00
C289   C     0.95352   0.54184   0.17924   0.00000  Uiso   1.00
C290   C     0.54668   0.44781   0.15941   0.00000  Uiso   1.00
C291   C     0.97555   0.40010   0.13922   0.00000  Uiso   1.00
C292   C     0.52319   0.58906   0.20974   0.00000  Uiso   1.00
Cu293  Cu    0.75500   0.50579   0.22813   0.00000  Uiso   1.00
Cu294  Cu    0.74499   0.49421   0.10521   0.00000  Uiso   1.00
H295   H     0.95848   0.36264   0.12683   0.00000  Uiso   1.00
H296   H     0.53921   0.62576   0.23126   0.00000  Uiso   1.00
H297   H     0.71290   0.46447   0.31782   0.00000  Uiso   1.00
H298   H     0.78624   0.53702   0.01586   0.00000  Uiso   1.00
N299   N     0.73744   0.48547   0.01284   0.00000  Uiso   1.00
N300   N     0.76255   0.51453   0.32049   0.00000  Uiso   1.00
O301   O     0.75325   0.42871   0.20659   0.00000  Uiso   1.00
O302   O     0.74674   0.57129   0.12674   0.00000  Uiso   1.00
O303   O     0.74480   0.41892   0.10279   0.00000  Uiso   1.00
O304   O     0.75520   0.58108   0.23055   0.00000  Uiso   1.00
O305   O     0.68935   0.50488   0.21857   0.00000  Uiso   1.00
O306   O     0.81064   0.49512   0.11476   0.00000  Uiso   1.00
O307   O     0.68090   0.49510   0.11477   0.00000  Uiso   1.00
O308   O     0.81910   0.50490   0.21857   0.00000  Uiso   1.00
O309   O     0.88689   0.58917   0.17075   0.00000  Uiso   1.00
H310   H     0.85601   0.58355   0.15339   0.00000  Uiso   1.00
O311   O     0.61634   0.40277   0.15368   0.00000  Uiso   1.00
H312   H     0.64774   0.40890   0.16876   0.00000  Uiso   1.00
O313   O     0.87895   0.40221   0.13528   0.00000  Uiso   1.00
H314   H     0.89286   0.37683   0.15655   0.00000  Uiso   1.00
O315   O     0.62021   0.58967   0.20112   0.00000  Uiso   1.00
H316   H     0.60235   0.61981   0.19681   0.00000  Uiso   1.00
O317   O     0.54305   0.35316   0.13962   0.00000  Uiso   1.00
C318   C     0.54772   0.66358   0.07741   0.00000  Uiso   1.00
H319   H     0.56709   0.35636   0.05426   0.00000  Uiso   1.00
H320   H     0.51455   0.65561   0.05458   0.00000  Uiso   1.00
C321   C     0.57189   0.61232   0.07276   0.00000  Uiso   1.00
H322   H     0.60565   0.62034   0.09502   0.00000  Uiso   1.00
H323   H     0.55276   0.58697   0.09633   0.00000  Uiso   1.00
C324   C     0.57649   0.58274   0.00733   0.00000  Uiso   1.00
H325   H     0.58803   0.60920   0.31183   0.00000  Uiso   1.00
H326   H     0.54412   0.56403   0.32202   0.00000  Uiso   1.00
H327   H     0.60115   0.55160   0.00630   0.00000  Uiso   1.00
O328   O     0.95449   0.63082   0.23694   0.00000  Uiso   1.00
C329   C     0.95000   0.62689   0.29866   0.00000  Uiso   1.00
H330   H     0.95062   0.33365   0.32717   0.00000  Uiso   1.00
H331   H     0.97770   0.60574   0.31582   0.00000  Uiso   1.00
C332   C     0.90641   0.59900   0.30802   0.00000  Uiso   1.00
H333   H     0.87782   0.61532   0.28665   0.00000  Uiso   1.00
H334   H     0.90818   0.55687   0.28754   0.00000  Uiso   1.00
C335   C     0.89831   0.60408   0.04205   0.00000  Uiso   1.00
H336   H     0.92719   0.58931   0.06513   0.00000  Uiso   1.00
H337   H     0.86791   0.58097   0.04688   0.00000  Uiso   1.00
H338   H     0.89316   0.64531   0.06381   0.00000  Uiso   1.00
O339   O     0.70869   0.64987   0.10340   0.00000  Uiso   1.00
C340   C     0.71360   0.65413   0.04218   0.00000  Uiso   1.00
H341   H     0.71200   0.61399   0.01368   0.00000  Uiso   1.00
H342   H     0.74634   0.33746   0.03309   0.00000  Uiso   1.00
C343   C     0.67414   0.35046   0.02220   0.00000  Uiso   1.00
H344   H     0.64303   0.66405   0.03029   0.00000  Uiso   1.00
H345   H     0.67348   0.39070   0.04982   0.00000  Uiso   1.00
C346   C     0.67446   0.35229   0.28823   0.00000  Uiso   1.00
H347   H     0.70117   0.37915   0.28059   0.00000  Uiso   1.00
H348   H     0.64208   0.36653   0.27362   0.00000  Uiso   1.00
H349   H     0.68010   0.64646   0.26014   0.00000  Uiso   1.00
O350   O     0.77554   0.34964   0.24499   0.00000  Uiso   1.00
C351   C     0.82097   0.36225   0.24149   0.00000  Uiso   1.00
H352   H     0.82523   0.38769   0.20867   0.00000  Uiso   1.00
H353   H     0.84031   0.66009   0.22673   0.00000  Uiso   1.00
C354   C     0.83890   0.39149   0.30451   0.00000  Uiso   1.00
H355   H     0.81534   0.42215   0.32398   0.00000  Uiso   1.00
H356   H     0.84156   0.36400   0.00240   0.00000  Uiso   1.00
C357   C     0.88438   0.41726   0.30105   0.00000  Uiso   1.00
H358   H     0.88090   0.44993   0.27718   0.00000  Uiso   1.00
H359   H     0.90759   0.38883   0.27600   0.00000  Uiso   1.00
H360   H     0.89869   0.43297   0.01452   0.00000  Uiso   1.00
C361   C     0.24655   0.73352   0.15170   0.00000  Uiso   1.00
C362   C     0.25259   0.93302   0.18168   0.00000  Uiso   1.00
C363   C     0.02210   0.73351   0.14412   0.00000  Uiso   1.00
C364   C     0.47687   0.92132   0.20657   0.00000  Uiso   1.00
C365   C     0.24104   0.67767   0.14479   0.00000  Uiso   1.00
C366   C     0.25850   0.98833   0.18871   0.00000  Uiso   1.00
C367   C     0.16473   0.83312   0.16866   0.00000  Uiso   1.00
C368   C     0.33508   0.82950   0.16404   0.00000  Uiso   1.00
C369   C     0.40736   0.87542   0.16849   0.00000  Uiso   1.00
C370   C     0.09371   0.78240   0.16280   0.00000  Uiso   1.00
C371   C     0.38313   0.82828   0.15817   0.00000  Uiso   1.00
C372   C     0.11668   0.83085   0.17381   0.00000  Uiso   1.00
C373   C     0.40486   0.78054   0.14822   0.00000  Uiso   1.00
C374   C     0.09433   0.87772   0.18873   0.00000  Uiso   1.00
C375   C     0.45210   0.78008   0.15058   0.00000  Uiso   1.00
C376   C     0.04725   0.87681   0.18973   0.00000  Uiso   1.00
C377   C     0.47640   0.82785   0.16669   0.00000  Uiso   1.00
C378   C     0.02352   0.82856   0.17154   0.00000  Uiso   1.00
C379   C     0.45352   0.87518   0.17924   0.00000  Uiso   1.00
C380   C     0.04668   0.78114   0.15941   0.00000  Uiso   1.00
C381   C     0.47555   0.73343   0.13922   0.00000  Uiso   1.00
C382   C     0.02319   0.92239   0.20974   0.00000  Uiso   1.00
Cu383  Cu    0.25500   0.83913   0.22813   0.00000  Uiso   1.00
Cu384  Cu    0.24499   0.82754   0.10521   0.00000  Uiso   1.00
H385   H     0.45848   0.69598   0.12683   0.00000  Uiso   1.00
H386   H     0.03921   0.95909   0.23126   0.00000  Uiso   1.00
H387   H     0.21290   0.79780   0.31782   0.00000  Uiso   1.00
H388   H     0.28624   0.87036   0.01586   0.00000  Uiso   1.00
N389   N     0.23744   0.81881   0.01284   0.00000  Uiso   1.00
N390   N     0.26255   0.84786   0.32049   0.00000  Uiso   1.00
O391   O     0.25325   0.76204   0.20659   0.00000  Uiso   1.00
O392   O     0.24674   0.90462   0.12674   0.00000  Uiso   1.00
O393   O     0.24480   0.75226   0.10279   0.00000  Uiso   1.00
O394   O     0.25520   0.91441   0.23055   0.00000  Uiso   1.00
O395   O     0.18935   0.83821   0.21857   0.00000  Uiso   1.00
O396   O     0.31064   0.82845   0.11476   0.00000  Uiso   1.00
O397   O     0.18090   0.82843   0.11477   0.00000  Uiso   1.00
O398   O     0.31910   0.83824   0.21857   0.00000  Uiso   1.00
O399   O     0.38689   0.92250   0.17075   0.00000  Uiso   1.00
H400   H     0.35601   0.91688   0.15339   0.00000  Uiso   1.00
O401   O     0.11634   0.73610   0.15368   0.00000  Uiso   1.00
H402   H     0.14774   0.74223   0.16876   0.00000  Uiso   1.00
O403   O     0.37895   0.73554   0.13528   0.00000  Uiso   1.00
H404   H     0.39286   0.71016   0.15655   0.00000  Uiso   1.00
O405   O     0.12021   0.92300   0.20112   0.00000  Uiso   1.00
H406   H     0.10235   0.95314   0.19681   0.00000  Uiso   1.00
O407   O     0.04305   0.68650   0.13962   0.00000  Uiso   1.00
C408   C     0.04772   0.99691   0.07741   0.00000  Uiso   1.00
H409   H     0.06709   0.68969   0.05426   0.00000  Uiso   1.00
H410   H     0.01455   0.98895   0.05458   0.00000  Uiso   1.00
C411   C     0.07189   0.94565   0.07276   0.00000  Uiso   1.00
H412   H     0.10565   0.95367   0.09502   0.00000  Uiso   1.00
H413   H     0.05276   0.92030   0.09633   0.00000  Uiso   1.00
C414   C     0.07649   0.91607   0.00733   0.00000  Uiso   1.00
H415   H     0.08803   0.94253   0.31183   0.00000  Uiso   1.00
H416   H     0.04412   0.89736   0.32202   0.00000  Uiso   1.00
H417   H     0.10115   0.88494   0.00630   0.00000  Uiso   1.00
O418   O     0.45449   0.96415   0.23694   0.00000  Uiso   1.00
C419   C     0.45000   0.96022   0.29866   0.00000  Uiso   1.00
H420   H     0.45062   0.66698   0.32717   0.00000  Uiso   1.00
H421   H     0.47770   0.93907   0.31582   0.00000  Uiso   1.00
C422   C     0.40641   0.93233   0.30802   0.00000  Uiso   1.00
H423   H     0.37782   0.94865   0.28665   0.00000  Uiso   1.00
H424   H     0.40818   0.89020   0.28754   0.00000  Uiso   1.00
C425   C     0.39831   0.93741   0.04205   0.00000  Uiso   1.00
H426   H     0.42719   0.92264   0.06513   0.00000  Uiso   1.00
H427   H     0.36791   0.91430   0.04688   0.00000  Uiso   1.00
H428   H     0.39316   0.97864   0.06381   0.00000  Uiso   1.00
O429   O     0.20869   0.98320   0.10340   0.00000  Uiso   1.00
C430   C     0.21360   0.98746   0.04218   0.00000  Uiso   1.00
H431   H     0.21200   0.94732   0.01368   0.00000  Uiso   1.00
H432   H     0.24634   0.67080   0.03309   0.00000  Uiso   1.00
C433   C     0.17414   0.68379   0.02220   0.00000  Uiso   1.00
H434   H     0.14303   0.99738   0.03029   0.00000  Uiso   1.00
H435   H     0.17348   0.72403   0.04982   0.00000  Uiso   1.00
C436   C     0.17446   0.68562   0.28823   0.00000  Uiso   1.00
H437   H     0.20117   0.71248   0.28059   0.00000  Uiso   1.00
H438   H     0.14208   0.69986   0.27362   0.00000  Uiso   1.00
H439   H     0.18010   0.97979   0.26014   0.00000  Uiso   1.00
O440   O     0.27554   0.68297   0.24499   0.00000  Uiso   1.00
C441   C     0.32097   0.69559   0.24149   0.00000  Uiso   1.00
H442   H     0.32523   0.72102   0.20867   0.00000  Uiso   1.00
H443   H     0.34031   0.99342   0.22673   0.00000  Uiso   1.00
C444   C     0.33890   0.72483   0.30451   0.00000  Uiso   1.00
H445   H     0.31534   0.75548   0.32398   0.00000  Uiso   1.00
H446   H     0.34156   0.69733   0.00240   0.00000  Uiso   1.00
C447   C     0.38438   0.75059   0.30105   0.00000  Uiso   1.00
H448   H     0.38090   0.78327   0.27718   0.00000  Uiso   1.00
H449   H     0.40759   0.72216   0.27600   0.00000  Uiso   1.00
H450   H     0.39869   0.76631   0.01452   0.00000  Uiso   1.00
C451   C     0.74655   0.73352   0.15170   0.00000  Uiso   1.00
C452   C     0.75259   0.93302   0.18168   0.00000  Uiso   1.00
C453   C     0.52210   0.73351   0.14412   0.00000  Uiso   1.00
C454   C     0.97687   0.92132   0.20657   0.00000  Uiso   1.00
C455   C     0.74104   0.67767   0.14479   0.00000  Uiso   1.00
C456   C     0.75850   0.98833   0.18871   0.00000  Uiso   1.00
C457   C     0.66473   0.83312   0.16866   0.00000  Uiso   1.00
C458   C     0.83508   0.82950   0.16404   0.00000  Uiso   1.00
C459   C     0.90736   0.87542   0.16849   0.00000  Uiso   1.00
C460   C     0.59371   0.78240   0.16280   0.00000  Uiso   1.00
C461   C     0.88313   0.82828   0.15817   0.00000  Uiso   1.00
C462   C     0.61668   0.83085   0.17381   0.00000  Uiso   1.00
C463   C     0.90486   0.78054   0.14822   0.00000  Uiso   1.00
C464   C     0.59433   0.87772   0.18873   0.00000  Uiso   1.00
C465   C     0.95210   0.78008   0.15058   0.00000  Uiso   1.00
C466   C     0.54725   0.87681   0.18973   0.00000  Uiso   1.00
C467   C     0.97640   0.82785   0.16669   0.00000  Uiso   1.00
C468   C     0.52352   0.82856   0.17154   0.00000  Uiso   1.00
C469   C     0.95352   0.87518   0.17924   0.00000  Uiso   1.00
C470   C     0.54668   0.78114   0.15941   0.00000  Uiso   1.00
C471   C     0.97555   0.73343   0.13922   0.00000  Uiso   1.00
C472   C     0.52319   0.92239   0.20974   0.00000  Uiso   1.00
Cu473  Cu    0.75500   0.83913   0.22813   0.00000  Uiso   1.00
Cu474  Cu    0.74499   0.82754   0.10521   0.00000  Uiso   1.00
H475   H     0.95848   0.69598   0.12683   0.00000  Uiso   1.00
H476   H     0.53921   0.95909   0.23126   0.00000  Uiso   1.00
H477   H     0.71290   0.79780   0.31782   0.00000  Uiso   1.00
H478   H     0.78624   0.87036   0.01586   0.00000  Uiso   1.00
N479   N     0.73744   0.81881   0.01284   0.00000  Uiso   1.00
N480   N     0.76255   0.84786   0.32049   0.00000  Uiso   1.00
O481   O     0.75325   0.76204   0.20659   0.00000  Uiso   1.00
O482   O     0.74674   0.90462   0.12674   0.00000  Uiso   1.00
O483   O     0.74480   0.75226   0.10279   0.00000  Uiso   1.00
O484   O     0.75520   0.91441   0.23055   0.00000  Uiso   1.00
O485   O     0.68935   0.83821   0.21857   0.00000  Uiso   1.00
O486   O     0.81064   0.82845   0.11476   0.00000  Uiso   1.00
O487   O     0.68090   0.82843   0.11477   0.00000  Uiso   1.00
O488   O     0.81910   0.83824   0.21857   0.00000  Uiso   1.00
O489   O     0.88689   0.92250   0.17075   0.00000  Uiso   1.00
H490   H     0.85601   0.91688   0.15339   0.00000  Uiso   1.00
O491   O     0.61634   0.73610   0.15368   0.00000  Uiso   1.00
H492   H     0.64774   0.74223   0.16876   0.00000  Uiso   1.00
O493   O     0.87895   0.73554   0.13528   0.00000  Uiso   1.00
H494   H     0.89286   0.71016   0.15655   0.00000  Uiso   1.00
O495   O     0.62021   0.92300   0.20112   0.00000  Uiso   1.00
H496   H     0.60235   0.95314   0.19681   0.00000  Uiso   1.00
O497   O     0.54305   0.68650   0.13962   0.00000  Uiso   1.00
C498   C     0.54772   0.99691   0.07741   0.00000  Uiso   1.00
H499   H     0.56709   0.68969   0.05426   0.00000  Uiso   1.00
H500   H     0.51455   0.98895   0.05458   0.00000  Uiso   1.00
C501   C     0.57189   0.94565   0.07276   0.00000  Uiso   1.00
H502   H     0.60565   0.95367   0.09502   0.00000  Uiso   1.00
H503   H     0.55276   0.92030   0.09633   0.00000  Uiso   1.00
C504   C     0.57649   0.91607   0.00733   0.00000  Uiso   1.00
H505   H     0.58803   0.94253   0.31183   0.00000  Uiso   1.00
H506   H     0.54412   0.89736   0.32202   0.00000  Uiso   1.00
H507   H     0.60115   0.88494   0.00630   0.00000  Uiso   1.00
O508   O     0.95449   0.96415   0.23694   0.00000  Uiso   1.00
C509   C     0.95000   0.96022   0.29866   0.00000  Uiso   1.00
H510   H     0.95062   0.66698   0.32717   0.00000  Uiso   1.00
H511   H     0.97770   0.93907   0.31582   0.00000  Uiso   1.00
C512   C     0.90641   0.93233   0.30802   0.00000  Uiso   1.00
H513   H     0.87782   0.94865   0.28665   0.00000  Uiso   1.00
H514   H     0.90818   0.89020   0.28754   0.00000  Uiso   1.00
C515   C     0.89831   0.93741   0.04205   0.00000  Uiso   1.00
H516   H     0.92719   0.92264   0.06513   0.00000  Uiso   1.00
H517   H     0.86791   0.91430   0.04688   0.00000  Uiso   1.00
H518   H     0.89316   0.97864   0.06381   0.00000  Uiso   1.00
O519   O     0.70869   0.98320   0.10340   0.00000  Uiso   1.00
C520   C     0.71360   0.98746   0.04218   0.00000  Uiso   1.00
H521   H     0.71200   0.94732   0.01368   0.00000  Uiso   1.00
H522   H     0.74634   0.67080   0.03309   0.00000  Uiso   1.00
C523   C     0.67414   0.68379   0.02220   0.00000  Uiso   1.00
H524   H     0.64303   0.99738   0.03029   0.00000  Uiso   1.00
H525   H     0.67348   0.72403   0.04982   0.00000  Uiso   1.00
C526   C     0.67446   0.68562   0.28823   0.00000  Uiso   1.00
H527   H     0.70117   0.71248   0.28059   0.00000  Uiso   1.00
H528   H     0.64208   0.69986   0.27362   0.00000  Uiso   1.00
H529   H     0.68010   0.97979   0.26014   0.00000  Uiso   1.00
O530   O     0.77554   0.68297   0.24499   0.00000  Uiso   1.00
C531   C     0.82097   0.69559   0.24149   0.00000  Uiso   1.00
H532   H     0.82523   0.72102   0.20867   0.00000  Uiso   1.00
H533   H     0.84031   0.99342   0.22673   0.00000  Uiso   1.00
C534   C     0.83890   0.72483   0.30451   0.00000  Uiso   1.00
H535   H     0.81534   0.75548   0.32398   0.00000  Uiso   1.00
H536   H     0.84156   0.69733   0.00240   0.00000  Uiso   1.00
C537   C     0.88438   0.75059   0.30105   0.00000  Uiso   1.00
H538   H     0.88090   0.78327   0.27718   0.00000  Uiso   1.00
H539   H     0.90759   0.72216   0.27600   0.00000  Uiso   1.00
H540   H     0.89869   0.76631   0.01452   0.00000  Uiso   1.00
C541   C     0.24655   0.06686   0.48504   0.00000  Uiso   1.00
C542   C     0.25259   0.26635   0.51501   0.00000  Uiso   1.00
C543   C     0.02210   0.06684   0.47745   0.00000  Uiso   1.00
C544   C     0.47687   0.25465   0.53991   0.00000  Uiso   1.00
C545   C     0.24104   0.01101   0.47813   0.00000  Uiso   1.00
C546   C     0.25850   0.32166   0.52205   0.00000  Uiso   1.00
C547   C     0.16473   0.16645   0.50199   0.00000  Uiso   1.00
C548   C     0.33508   0.16283   0.49737   0.00000  Uiso   1.00
C549   C     0.40736   0.20875   0.50183   0.00000  Uiso   1.00
C550   C     0.09371   0.11574   0.49613   0.00000  Uiso   1.00
C551   C     0.38313   0.16161   0.49151   0.00000  Uiso   1.00
C552   C     0.11668   0.16418   0.50714   0.00000  Uiso   1.00
C553   C     0.40486   0.11387   0.48156   0.00000  Uiso   1.00
C554   C     0.09433   0.21105   0.52207   0.00000  Uiso   1.00
C555   C     0.45210   0.11341   0.48391   0.00000  Uiso   1.00
C556   C     0.04725   0.21014   0.52307   0.00000  Uiso   1.00
C557   C     0.47640   0.16118   0.50003   0.00000  Uiso   1.00
C558   C     0.02352   0.16189   0.50487   0.00000  Uiso   1.00
C559   C     0.45352   0.20851   0.51258   0.00000  Uiso   1.00
C560   C     0.04668   0.11447   0.49275   0.00000  Uiso   1.00
C561   C     0.47555   0.06676   0.47255   0.00000  Uiso   1.00
C562   C     0.02319   0.25573   0.54307   0.00000  Uiso   1.00
Cu563  Cu    0.25500   0.17246   0.56146   0.00000  Uiso   1.00
Cu564  Cu    0.24499   0.16087   0.43854   0.00000  Uiso   1.00
H565   H     0.45848   0.02931   0.46016   0.00000  Uiso   1.00
H566   H     0.03921   0.29242   0.56459   0.00000  Uiso   1.00
H567   H     0.21290   0.13114   0.65115   0.00000  Uiso   1.00
H568   H     0.28624   0.20369   0.34919   0.00000  Uiso   1.00
N569   N     0.23744   0.15214   0.34617   0.00000  Uiso   1.00
N570   N     0.26255   0.18119   0.65383   0.00000  Uiso   1.00
O571   O     0.25325   0.09538   0.53992   0.00000  Uiso   1.00
O572   O     0.24674   0.23796   0.46008   0.00000  Uiso   1.00
O573   O     0.24480   0.08559   0.43612   0.00000  Uiso   1.00
O574   O     0.25520   0.24774   0.56388   0.00000  Uiso   1.00
O575   O     0.18935   0.17155   0.55191   0.00000  Uiso   1.00
O576   O     0.31064   0.16179   0.44809   0.00000  Uiso   1.00
O577   O     0.18090   0.16176   0.44810   0.00000  Uiso   1.00
O578   O     0.31910   0.17157   0.55190   0.00000  Uiso   1.00
O579   O     0.38689   0.25583   0.50408   0.00000  Uiso   1.00
H580   H     0.35601   0.25022   0.48672   0.00000  Uiso   1.00
O581   O     0.11634   0.06943   0.48702   0.00000  Uiso   1.00
H582   H     0.14774   0.07556   0.50209   0.00000  Uiso   1.00
O583   O     0.37895   0.06887   0.46862   0.00000  Uiso   1.00
H584   H     0.39286   0.04349   0.48988   0.00000  Uiso   1.00
O585   O     0.12021   0.25633   0.53446   0.00000  Uiso   1.00
H586   H     0.10235   0.28647   0.53015   0.00000  Uiso   1.00
O587   O     0.04305   0.01983   0.47296   0.00000  Uiso   1.00
C588   C     0.04772   0.33024   0.41074   0.00000  Uiso   1.00
H589   H     0.06709   0.02302   0.38760   0.00000  Uiso   1.00
H590   H     0.01455   0.32228   0.38791   0.00000  Uiso   1.00
C591   C     0.07189   0.27898   0.40610   0.00000  Uiso   1.00
H592   H     0.10565   0.28701   0.42835   0.00000  Uiso   1.00
H593   H     0.05276   0.25363   0.42967   0.00000  Uiso   1.00
C594   C     0.07649   0.24940   0.34066   0.00000  Uiso   1.00
H595   H     0.08803   0.27586   0.64517   0.00000  Uiso   1.00
H596   H     0.04412   0.23070   0.65536   0.00000  Uiso   1.00
H597   H     0.10115   0.21827   0.33964   0.00000  Uiso   1.00
O598   O     0.45449   0.29749   0.57027   0.00000  Uiso   1.00
C599   C     0.45000   0.29355   0.63199   0.00000  Uiso   1.00
H600   H     0.45062   0.00032   0.66050   0.00000  Uiso   1.00
H601   H     0.47770   0.27240   0.64916   0.00000  Uiso   1.00
C602   C     0.40641   0.26566   0.64136   0.00000  Uiso   1.00
H603   H     0.37782   0.28198   0.61998   0.00000  Uiso   1.00
H604   H     0.40818   0.22353   0.62088   0.00000  Uiso   1.00
C605   C     0.39831   0.27074   0.37538   0.00000  Uiso   1.00
H606   H     0.42719   0.25598   0.39846   0.00000  Uiso   1.00
H607   H     0.36791   0.24764   0.38021   0.00000  Uiso   1.00
H608   H     0.39316   0.31197   0.39714   0.00000  Uiso   1.00
O609   O     0.20869   0.31654   0.43673   0.00000  Uiso   1.00
C610   C     0.21360   0.32080   0.37551   0.00000  Uiso   1.00
H611   H     0.21200   0.28066   0.34702   0.00000  Uiso   1.00
H612   H     0.24634   0.00413   0.36642   0.00000  Uiso   1.00
C613   C     0.17414   0.01712   0.35553   0.00000  Uiso   1.00
H614   H     0.14303   0.33071   0.36362   0.00000  Uiso   1.00
H615   H     0.17348   0.05736   0.38315   0.00000  Uiso   1.00
C616   C     0.17446   0.01895   0.62156   0.00000  Uiso   1.00
H617   H     0.20117   0.04581   0.61392   0.00000  Uiso   1.00
H618   H     0.14208   0.03320   0.60695   0.00000  Uiso   1.00
H619   H     0.18010   0.31312   0.59347   0.00000  Uiso   1.00
O620   O     0.27554   0.01631   0.57833   0.00000  Uiso   1.00
C621   C     0.32097   0.02892   0.57482   0.00000  Uiso   1.00
H622   H     0.32523   0.05436   0.54200   0.00000  Uiso   1.00
H623   H     0.34031   0.32676   0.56006   0.00000  Uiso   1.00
C624   C     0.33890   0.05816   0.63784   0.00000  Uiso   1.00
H625   H     0.31534   0.08881   0.65731   0.00000  Uiso   1.00
H626   H     0.34156   0.03067   0.33574   0.00000  Uiso   1.00
C627   C     0.38438   0.08393   0.63438   0.00000  Uiso   1.00
H628   H     0.38090   0.11660   0.61051   0.00000  Uiso   1.00
H629   H     0.40759   0.05549   0.60934   0.00000  Uiso   1.00
H630   H     0.39869   0.09964   0.34785   0.00000  Uiso   1.00
C631   C     0.74655   0.06686   0.48504   0.00000  Uiso   1.00
C632   C     0.75259   0.26635   0.51501   0.00000  Uiso   1.00
C633   C     0.52210   0.06684   0.47745   0.00000  Uiso   1.00
C634   C     0.97687   0.25465   0.53991   0.00000  Uiso   1.00
C635   C     0.74104   0.01101   0.47813   0.00000  Uiso   1.00
C636   C     0.75850   0.32166   0.52205   0.00000  Uiso   1.00
C637   C     0.66473   0.16645   0.50199   0.00000  Uiso   1.00
C638   C     0.83508   0.16283   0.49737   0.00000  Uiso   1.00
C639   C     0.90736   0.20875   0.50183   0.00000  Uiso   1.00
C640   C     0.59371   0.11574   0.49613   0.00000  Uiso   1.00
C641   C     0.88313   0.16161   0.49151   0.00000  Uiso   1.00
C642   C     0.61668   0.16418   0.50714   0.00000  Uiso   1.00
C643   C     0.90486   0.11387   0.48156   0.00000  Uiso   1.00
C644   C     0.59433   0.21105   0.52207   0.00000  Uiso   1.00
C645   C     0.95210   0.11341   0.48391   0.00000  Uiso   1.00
C646   C     0.54725   0.21014   0.52307   0.00000  Uiso   1.00
C647   C     0.97640   0.16118   0.50003   0.00000  Uiso   1.00
C648   C     0.52352   0.16189   0.50487   0.00000  Uiso   1.00
C649   C     0.95352   0.20851   0.51258   0.00000  Uiso   1.00
C650   C     0.54668   0.11447   0.49275   0.00000  Uiso   1.00
C651   C     0.97555   0.06676   0.47255   0.00000  Uiso   1.00
C652   C     0.52319   0.25573   0.54307   0.00000  Uiso   1.00
Cu653  Cu    0.75500   0.17246   0.56146   0.00000  Uiso   1.00
Cu654  Cu    0.74499   0.16087   0.43854   0.00000  Uiso   1.00
H655   H     0.95848   0.02931   0.46016   0.00000  Uiso   1.00
H656   H     0.53921   0.29242   0.56459   0.00000  Uiso   1.00
H657   H     0.71290   0.13114   0.65115   0.00000  Uiso   1.00
H658   H     0.78624   0.20369   0.34919   0.00000  Uiso   1.00
N659   N     0.73744   0.15214   0.34617   0.00000  Uiso   1.00
N660   N     0.76255   0.18119   0.65383   0.00000  Uiso   1.00
O661   O     0.75325   0.09538   0.53992   0.00000  Uiso   1.00
O662   O     0.74674   0.23796   0.46008   0.00000  Uiso   1.00
O663   O     0.74480   0.08559   0.43612   0.00000  Uiso   1.00
O664   O     0.75520   0.24774   0.56388   0.00000  Uiso   1.00
O665   O     0.68935   0.17155   0.55191   0.00000  Uiso   1.00
O666   O     0.81064   0.16179   0.44809   0.00000  Uiso   1.00
O667   O     0.68090   0.16176   0.44810   0.00000  Uiso   1.00
O668   O     0.81910   0.17157   0.55190   0.00000  Uiso   1.00
O669   O     0.88689   0.25583   0.50408   0.00000  Uiso   1.00
H670   H     0.85601   0.25022   0.48672   0.00000  Uiso   1.00
O671   O     0.61634   0.06943   0.48702   0.00000  Uiso   1.00
H672   H     0.64774   0.07556   0.50209   0.00000  Uiso   1.00
O673   O     0.87895   0.06887   0.46862   0.00000  Uiso   1.00
H674   H     0.89286   0.04349   0.48988   0.00000  Uiso   1.00
O675   O     0.62021   0.25633   0.53446   0.00000  Uiso   1.00
H676   H     0.60235   0.28647   0.53015   0.00000  Uiso   1.00
O677   O     0.54305   0.01983   0.47296   0.00000  Uiso   1.00
C678   C     0.54772   0.33024   0.41074   0.00000  Uiso   1.00
H679   H     0.56709   0.02302   0.38760   0.00000  Uiso   1.00
H680   H     0.51455   0.32228   0.38791   0.00000  Uiso   1.00
C681   C     0.57189   0.27898   0.40610   0.00000  Uiso   1.00
H682   H     0.60565   0.28701   0.42835   0.00000  Uiso   1.00
H683   H     0.55276   0.25363   0.42967   0.00000  Uiso   1.00
C684   C     0.57649   0.24940   0.34066   0.00000  Uiso   1.00
H685   H     0.58803   0.27586   0.64517   0.00000  Uiso   1.00
H686   H     0.54412   0.23070   0.65536   0.00000  Uiso   1.00
H687   H     0.60115   0.21827   0.33964   0.00000  Uiso   1.00
O688   O     0.95449   0.29749   0.57027   0.00000  Uiso   1.00
C689   C     0.95000   0.29355   0.63199   0.00000  Uiso   1.00
H690   H     0.95062   0.00032   0.66050   0.00000  Uiso   1.00
H691   H     0.97770   0.27240   0.64916   0.00000  Uiso   1.00
C692   C     0.90641   0.26566   0.64136   0.00000  Uiso   1.00
H693   H     0.87782   0.28198   0.61998   0.00000  Uiso   1.00
H694   H     0.90818   0.22353   0.62088   0.00000  Uiso   1.00
C695   C     0.89831   0.27074   0.37538   0.00000  Uiso   1.00
H696   H     0.92719   0.25598   0.39846   0.00000  Uiso   1.00
H697   H     0.86791   0.24764   0.38021   0.00000  Uiso   1.00
H698   H     0.89316   0.31197   0.39714   0.00000  Uiso   1.00
O699   O     0.70869   0.31654   0.43673   0.00000  Uiso   1.00
C700   C     0.71360   0.32080   0.37551   0.00000  Uiso   1.00
H701   H     0.71200   0.28066   0.34702   0.00000  Uiso   1.00
H702   H     0.74634   0.00413   0.36642   0.00000  Uiso   1.00
C703   C     0.67414   0.01712   0.35553   0.00000  Uiso   1.00
H704   H     0.64303   0.33071   0.36362   0.00000  Uiso   1.00
H705   H     0.67348   0.05736   0.38315   0.00000  Uiso   1.00
C706   C     0.67446   0.01895   0.62156   0.00000  Uiso   1.00
H707   H     0.70117   0.04581   0.61392   0.00000  Uiso   1.00
H708   H     0.64208   0.03320   0.60695   0.00000  Uiso   1.00
H709   H     0.68010   0.31312   0.59347   0.00000  Uiso   1.00
O710   O     0.77554   0.01631   0.57833   0.00000  Uiso   1.00
C711   C     0.82097   0.02892   0.57482   0.00000  Uiso   1.00
H712   H     0.82523   0.05436   0.54200   0.00000  Uiso   1.00
H713   H     0.84031   0.32676   0.56006   0.00000  Uiso   1.00
C714   C     0.83890   0.05816   0.63784   0.00000  Uiso   1.00
H715   H     0.81534   0.08881   0.65731   0.00000  Uiso   1.00
H716   H     0.84156   0.03067   0.33574   0.00000  Uiso   1.00
C717   C     0.88438   0.08393   0.63438   0.00000  Uiso   1.00
H718   H     0.88090   0.11660   0.61051   0.00000  Uiso   1.00
H719   H     0.90759   0.05549   0.60934   0.00000  Uiso   1.00
H720   H     0.89869   0.09964   0.34785   0.00000  Uiso   1.00
C721   C     0.24655   0.40019   0.48504   0.00000  Uiso   1.00
C722   C     0.25259   0.59969   0.51501   0.00000  Uiso   1.00
C723   C     0.02210   0.40018   0.47745   0.00000  Uiso   1.00
C724   C     0.47687   0.58799   0.53991   0.00000  Uiso   1.00
C725   C     0.24104   0.34434   0.47813   0.00000  Uiso   1.00
C726   C     0.25850   0.65500   0.52205   0.00000  Uiso   1.00
C727   C     0.16473   0.49978   0.50199   0.00000  Uiso   1.00
C728   C     0.33508   0.49616   0.49737   0.00000  Uiso   1.00
C729   C     0.40736   0.54208   0.50183   0.00000  Uiso   1.00
C730   C     0.09371   0.44907   0.49613   0.00000  Uiso   1.00
C731   C     0.38313   0.49495   0.49151   0.00000  Uiso   1.00
C732   C     0.11668   0.49752   0.50714   0.00000  Uiso   1.00
C733   C     0.40486   0.44721   0.48156   0.00000  Uiso   1.00
C734   C     0.09433   0.54438   0.52207   0.00000  Uiso   1.00
C735   C     0.45210   0.44675   0.48391   0.00000  Uiso   1.00
C736   C     0.04725   0.54348   0.52307   0.00000  Uiso   1.00
C737   C     0.47640   0.49452   0.50003   0.00000  Uiso   1.00
C738   C     0.02352   0.49523   0.50487   0.00000  Uiso   1.00
C739   C     0.45352   0.54184   0.51258   0.00000  Uiso   1.00
C740   C     0.04668   0.44781   0.49275   0.00000  Uiso   1.00
C741   C     0.47555   0.40010   0.47255   0.00000  Uiso   1.00
C742   C     0.02319   0.58906   0.54307   0.00000  Uiso   1.00
Cu743  Cu    0.25500   0.50579   0.56146   0.00000  Uiso   1.00
Cu744  Cu    0.24499   0.49421   0.43854   0.00000  Uiso   1.00
H745   H     0.45848   0.36264   0.46016   0.00000  Uiso   1.00
H746   H     0.03921   0.62576   0.56459   0.00000  Uiso   1.00
H747   H     0.21290   0.46447   0.65115   0.00000  Uiso   1.00
H748   H     0.28624   0.53702   0.34919   0.00000  Uiso   1.00
N749   N     0.23744   0.48547   0.34617   0.00000  Uiso   1.00
N750   N     0.26255   0.51453   0.65383   0.00000  Uiso   1.00
O751   O     0.25325   0.42871   0.53992   0.00000  Uiso   1.00
O752   O     0.24674   0.57129   0.46008   0.00000  Uiso   1.00
O753   O     0.24480   0.41892   0.43612   0.00000  Uiso   1.00
O754   O     0.25520   0.58108   0.56388   0.00000  Uiso   1.00
O755   O     0.18935   0.50488   0.55191   0.00000  Uiso   1.00
O756   O     0.31064   0.49512   0.44809   0.00000  Uiso   1.00
O757   O     0.18090   0.49510   0.44810   0.00000  Uiso   1.00
O758   O     0.31910   0.50490   0.55190   0.00000  Uiso   1.00
O759   O     0.38689   0.58917   0.50408   0.00000  Uiso   1.00
H760   H     0.35601   0.58355   0.48672   0.00000  Uiso   1.00
O761   O     0.11634   0.40277   0.48702   0.00000  Uiso   1.00
H762   H     0.14774   0.40890   0.50209   0.00000  Uiso   1.00
O763   O     0.37895   0.40221   0.46862   0.00000  Uiso   1.00
H764   H     0.39286   0.37683   0.48988   0.00000  Uiso   1.00
O765   O     0.12021   0.58967   0.53446   0.00000  Uiso   1.00
H766   H     0.10235   0.61981   0.53015   0.00000  Uiso   1.00
O767   O     0.04305   0.35316   0.47296   0.00000  Uiso   1.00
C768   C     0.04772   0.66358   0.41074   0.00000  Uiso   1.00
H769   H     0.06709   0.35636   0.38760   0.00000  Uiso   1.00
H770   H     0.01455   0.65561   0.38791   0.00000  Uiso   1.00
C771   C     0.07189   0.61232   0.40610   0.00000  Uiso   1.00
H772   H     0.10565   0.62034   0.42835   0.00000  Uiso   1.00
H773   H     0.05276   0.58697   0.42967   0.00000  Uiso   1.00
C774   C     0.07649   0.58274   0.34066   0.00000  Uiso   1.00
H775   H     0.08803   0.60920   0.64517   0.00000  Uiso   1.00
H776   H     0.04412   0.56403   0.65536   0.00000  Uiso   1.00
H777   H     0.10115   0.55160   0.33964   0.00000  Uiso   1.00
O778   O     0.45449   0.63082   0.57027   0.00000  Uiso   1.00
C779   C     0.45000   0.62689   0.63199   0.00000  Uiso   1.00
H780   H     0.45062   0.33365   0.66050   0.00000  Uiso   1.00
H781   H     0.47770   0.60574   0.64916   0.00000  Uiso   1.00
C782   C     0.40641   0.59900   0.64136   0.00000  Uiso   1.00
H783   H     0.37782   0.61532   0.61998   0.00000  Uiso   1.00
H784   H     0.40818   0.55687   0.62088   0.00000  Uiso   1.00
C785   C     0.39831   0.60408   0.37538   0.00000  Uiso   1.00
H786   H     0.42719   0.58931   0.39846   0.00000  Uiso   1.00
H787   H     0.36791   0.58097   0.38021   0.00000  Uiso   1.00
H788   H     0.39316   0.64531   0.39714   0.00000  Uiso   1.00
O789   O     0.20869   0.64987   0.43673   0.00000  Uiso   1.00
C790   C     0.21360   0.65413   0.37551   0.00000  Uiso   1.00
H791   H     0.21200   0.61399   0.34702   0.00000  Uiso   1.00
H792   H     0.24634   0.33746   0.36642   0.00000  Uiso   1.00
C793   C     0.17414   0.35046   0.35553   0.00000  Uiso   1.00
H794   H     0.14303   0.66405   0.36362   0.00000  Uiso   1.00
H795   H     0.17348   0.39070   0.38315   0.00000  Uiso   1.00
C796   C     0.17446   0.35229   0.62156   0.00000  Uiso   1.00
H797   H     0.20117   0.37915   0.61392   0.00000  Uiso   1.00
H798   H     0.14208   0.36653   0.60695   0.00000  Uiso   1.00
H799   H     0.18010   0.64646   0.59347   0.00000  Uiso   1.00
O800   O     0.27554   0.34964   0.57833   0.00000  Uiso   1.00
C801   C     0.32097   0.36225   0.57482   0.00000  Uiso   1.00
H802   H     0.32523   0.38769   0.54200   0.00000  Uiso   1.00
H803   H     0.34031   0.66009   0.56006   0.00000  Uiso   1.00
C804   C     0.33890   0.39149   0.63784   0.00000  Uiso   1.00
H805   H     0.31534   0.42215   0.65731   0.00000  Uiso   1.00
H806   H     0.34156   0.36400   0.33574   0.00000  Uiso   1.00
C807   C     0.38438   0.41726   0.63438   0.00000  Uiso   1.00
H808   H     0.38090   0.44993   0.61051   0.00000  Uiso   1.00
H809   H     0.40759   0.38883   0.60934   0.00000  Uiso   1.00
H810   H     0.39869   0.43297   0.34785   0.00000  Uiso   1.00
C811   C     0.74655   0.40019   0.48504   0.00000  Uiso   1.00
C812   C     0.75259   0.59969   0.51501   0.00000  Uiso   1.00
C813   C     0.52210   0.40018   0.47745   0.00000  Uiso   1.00
C814   C     0.97687   0.58799   0.53991   0.00000  Uiso   1.00
C815   C     0.74104   0.34434   0.47813   0.00000  Uiso   1.00
C816   C     0.75850   0.65500   0.52205   0.00000  Uiso   1.00
C817   C     0.66473   0.49978   0.50199   0.00000  Uiso   1.00
C818   C     0.83508   0.49616   0.49737   0.00000  Uiso   1.00
C819   C     0.90736   0.54208   0.50183   0.00000  Uiso   1.00
C820   C     0.59371   0.44907   0.49613   0.00000  Uiso   1.00
C821   C     0.88313   0.49495   0.49151   0.00000  Uiso   1.00
C822   C     0.61668   0.49752   0.50714   0.00000  Uiso   1.00
C823   C     0.90486   0.44721   0.48156   0.00000  Uiso   1.00
C824   C     0.59433   0.54438   0.52207   0.00000  Uiso   1.00
C825   C     0.95210   0.44675   0.48391   0.00000  Uiso   1.00
C826   C     0.54725   0.54348   0.52307   0.00000  Uiso   1.00
C827   C     0.97640   0.49452   0.50003   0.00000  Uiso   1.00
C828   C     0.52352   0.49523   0.50487   0.00000  Uiso   1.00
C829   C     0.95352   0.54184   0.51258   0.00000  Uiso   1.00
C830   C     0.54668   0.44781   0.49275   0.00000  Uiso   1.00
C831   C     0.97555   0.40010   0.47255   0.00000  Uiso   1.00
C832   C     0.52319   0.58906   0.54307   0.00000  Uiso   1.00
Cu833  Cu    0.75500   0.50579   0.56146   0.00000  Uiso   1.00
Cu834  Cu    0.74499   0.49421   0.43854   0.00000  Uiso   1.00
H835   H     0.95848   0.36264   0.46016   0.00000  Uiso   1.00
H836   H     0.53921   0.62576   0.56459   0.00000  Uiso   1.00
H837   H     0.71290   0.46447   0.65115   0.00000  Uiso   1.00
H838   H     0.78624   0.53702   0.34919   0.00000  Uiso   1.00
N839   N     0.73744   0.48547   0.34617   0.00000  Uiso   1.00
N840   N     0.76255   0.51453   0.65383   0.00000  Uiso   1.00
O841   O     0.75325   0.42871   0.53992   0.00000  Uiso   1.00
O842   O     0.74674   0.57129   0.46008   0.00000  Uiso   1.00
O843   O     0.74480   0.41892   0.43612   0.00000  Uiso   1.00
O844   O     0.75520   0.58108   0.56388   0.00000  Uiso   1.00
O845   O     0.68935   0.50488   0.55191   0.00000  Uiso   1.00
O846   O     0.81064   0.49512   0.44809   0.00000  Uiso   1.00
O847   O     0.68090   0.49510   0.44810   0.00000  Uiso   1.00
O848   O     0.81910   0.50490   0.55190   0.00000  Uiso   1.00
O849   O     0.88689   0.58917   0.50408   0.00000  Uiso   1.00
H850   H     0.85601   0.58355   0.48672   0.00000  Uiso   1.00
O851   O     0.61634   0.40277   0.48702   0.00000  Uiso   1.00
H852   H     0.64774   0.40890   0.50209   0.00000  Uiso   1.00
O853   O     0.87895   0.40221   0.46862   0.00000  Uiso   1.00
H854   H     0.89286   0.37683   0.48988   0.00000  Uiso   1.00
O855   O     0.62021   0.58967   0.53446   0.00000  Uiso   1.00
H856   H     0.60235   0.61981   0.53015   0.00000  Uiso   1.00
O857   O     0.54305   0.35316   0.47296   0.00000  Uiso   1.00
C858   C     0.54772   0.66358   0.41074   0.00000  Uiso   1.00
H859   H     0.56709   0.35636   0.38760   0.00000  Uiso   1.00
H860   H     0.51455   0.65561   0.38791   0.00000  Uiso   1.00
C861   C     0.57189   0.61232   0.40610   0.00000  Uiso   1.00
H862   H     0.60565   0.62034   0.42835   0.00000  Uiso   1.00
H863   H     0.55276   0.58697   0.42967   0.00000  Uiso   1.00
C864   C     0.57649   0.58274   0.34066   0.00000  Uiso   1.00
H865   H     0.58803   0.60920   0.64517   0.00000  Uiso   1.00
H866   H     0.54412   0.56403   0.65536   0.00000  Uiso   1.00
H867   H     0.60115   0.55160   0.33964   0.00000  Uiso   1.00
O868   O     0.95449   0.63082   0.57027   0.00000  Uiso   1.00
C869   C     0.95000   0.62689   0.63199   0.00000  Uiso   1.00
H870   H     0.95062   0.33365   0.66050   0.00000  Uiso   1.00
H871   H     0.97770   0.60574   0.64916   0.00000  Uiso   1.00
C872   C     0.90641   0.59900   0.64136   0.00000  Uiso   1.00
H873   H     0.87782   0.61532   0.61998   0.00000  Uiso   1.00
H874   H     0.90818   0.55687   0.62088   0.00000  Uiso   1.00
C875   C     0.89831   0.60408   0.37538   0.00000  Uiso   1.00
H876   H     0.92719   0.58931   0.39846   0.00000  Uiso   1.00
H877   H     0.86791   0.58097   0.38021   0.00000  Uiso   1.00
H878   H     0.89316   0.64531   0.39714   0.00000  Uiso   1.00
O879   O     0.70869   0.64987   0.43673   0.00000  Uiso   1.00
C880   C     0.71360   0.65413   0.37551   0.00000  Uiso   1.00
H881   H     0.71200   0.61399   0.34702   0.00000  Uiso   1.00
H882   H     0.74634   0.33746   0.36642   0.00000  Uiso   1.00
C883   C     0.67414   0.35046   0.35553   0.00000  Uiso   1.00
H884   H     0.64303   0.66405   0.36362   0.00000  Uiso   1.00
H885   H     0.67348   0.39070   0.38315   0.00000  Uiso   1.00
C886   C     0.67446   0.35229   0.62156   0.00000  Uiso   1.00
H887   H     0.70117   0.37915   0.61392   0.00000  Uiso   1.00
H888   H     0.64208   0.36653   0.60695   0.00000  Uiso   1.00
H889   H     0.68010   0.64646   0.59347   0.00000  Uiso   1.00
O890   O     0.77554   0.34964   0.57833   0.00000  Uiso   1.00
C891   C     0.82097   0.36225   0.57482   0.00000  Uiso   1.00
H892   H     0.82523   0.38769   0.54200   0.00000  Uiso   1.00
H893   H     0.84031   0.66009   0.56006   0.00000  Uiso   1.00
C894   C     0.83890   0.39149   0.63784   0.00000  Uiso   1.00
H895   H     0.81534   0.42215   0.65731   0.00000  Uiso   1.00
H896   H     0.84156   0.36400   0.33574   0.00000  Uiso   1.00
C897   C     0.88438   0.41726   0.63438   0.00000  Uiso   1.00
H898   H     0.88090   0.44993   0.61051   0.00000  Uiso   1.00
H899   H     0.90759   0.38883   0.60934   0.00000  Uiso   1.00
H900   H     0.89869   0.43297   0.34785   0.00000  Uiso   1.00
C901   C     0.24655   0.73352   0.48504   0.00000  Uiso   1.00
C902   C     0.25259   0.93302   0.51501   0.00000  Uiso   1.00
C903   C     0.02210   0.73351   0.47745   0.00000  Uiso   1.00
C904   C     0.47687   0.92132   0.53991   0.00000  Uiso   1.00
C905   C     0.24104   0.67767   0.47813   0.00000  Uiso   1.00
C906   C     0.25850   0.98833   0.52205   0.00000  Uiso   1.00
C907   C     0.16473   0.83312   0.50199   0.00000  Uiso   1.00
C908   C     0.33508   0.82950   0.49737   0.00000  Uiso   1.00
C909   C     0.40736   0.87542   0.50183   0.00000  Uiso   1.00
C910   C     0.09371   0.78240   0.49613   0.00000  Uiso   1.00
C911   C     0.38313   0.82828   0.49151   0.00000  Uiso   1.00
C912   C     0.11668   0.83085   0.50714   0.00000  Uiso   1.00
C913   C     0.40486   0.78054   0.48156   0.00000  Uiso   1.00
C914   C     0.09433   0.87772   0.52207   0.00000  Uiso   1.00
C915   C     0.45210   0.78008   0.48391   0.00000  Uiso   1.00
C916   C     0.04725   0.87681   0.52307   0.00000  Uiso   1.00
C917   C     0.47640   0.82785   0.50003   0.00000  Uiso   1.00
C918   C     0.02352   0.82856   0.50487   0.00000  Uiso   1.00
C919   C     0.45352   0.87518   0.51258   0.00000  Uiso   1.00
C920   C     0.04668   0.78114   0.49275   0.00000  Uiso   1.00
C921   C     0.47555   0.73343   0.47255   0.00000  Uiso   1.00
C922   C     0.02319   0.92239   0.54307   0.00000  Uiso   1.00
Cu923  Cu    0.25500   0.83913   0.56146   0.00000  Uiso   1.00
Cu924  Cu    0.24499   0.82754   0.43854   0.00000  Uiso   1.00
H925   H     0.45848   0.69598   0.46016   0.00000  Uiso   1.00
H926   H     0.03921   0.95909   0.56459   0.00000  Uiso   1.00
H927   H     0.21290   0.79780   0.65115   0.00000  Uiso   1.00
H928   H     0.28624   0.87036   0.34919   0.00000  Uiso   1.00
N929   N     0.23744   0.81881   0.34617   0.00000  Uiso   1.00
N930   N     0.26255   0.84786   0.65383   0.00000  Uiso   1.00
O931   O     0.25325   0.76204   0.53992   0.00000  Uiso   1.00
O932   O     0.24674   0.90462   0.46008   0.00000  Uiso   1.00
O933   O     0.24480   0.75226   0.43612   0.00000  Uiso   1.00
O934   O     0.25520   0.91441   0.56388   0.00000  Uiso   1.00
O935   O     0.18935   0.83821   0.55191   0.00000  Uiso   1.00
O936   O     0.31064   0.82845   0.44809   0.00000  Uiso   1.00
O937   O     0.18090   0.82843   0.44810   0.00000  Uiso   1.00
O938   O     0.31910   0.83824   0.55190   0.00000  Uiso   1.00
O939   O     0.38689   0.92250   0.50408   0.00000  Uiso   1.00
H940   H     0.35601   0.91688   0.48672   0.00000  Uiso   1.00
O941   O     0.11634   0.73610   0.48702   0.00000  Uiso   1.00
H942   H     0.14774   0.74223   0.50209   0.00000  Uiso   1.00
O943   O     0.37895   0.73554   0.46862   0.00000  Uiso   1.00
H944   H     0.39286   0.71016   0.48988   0.00000  Uiso   1.00
O945   O     0.12021   0.92300   0.53446   0.00000  Uiso   1.00
H946   H     0.10235   0.95314   0.53015   0.00000  Uiso   1.00
O947   O     0.04305   0.68650   0.47296   0.00000  Uiso   1.00
C948   C     0.04772   0.99691   0.41074   0.00000  Uiso   1.00
H949   H     0.06709   0.68969   0.38760   0.00000  Uiso   1.00
H950   H     0.01455   0.98895   0.38791   0.00000  Uiso   1.00
C951   C     0.07189   0.94565   0.40610   0.00000  Uiso   1.00
H952   H     0.10565   0.95367   0.42835   0.00000  Uiso   1.00
H953   H     0.05276   0.92030   0.42967   0.00000  Uiso   1.00
C954   C     0.07649   0.91607   0.34066   0.00000  Uiso   1.00
H955   H     0.08803   0.94253   0.64517   0.00000  Uiso   1.00
H956   H     0.04412   0.89736   0.65536   0.00000  Uiso   1.00
H957   H     0.10115   0.88494   0.33964   0.00000  Uiso   1.00
O958   O     0.45449   0.96415   0.57027   0.00000  Uiso   1.00
C959   C     0.45000   0.96022   0.63199   0.00000  Uiso   1.00
H960   H     0.45062   0.66698   0.66050   0.00000  Uiso   1.00
H961   H     0.47770   0.93907   0.64916   0.00000  Uiso   1.00
C962   C     0.40641   0.93233   0.64136   0.00000  Uiso   1.00
H963   H     0.37782   0.94865   0.61998   0.00000  Uiso   1.00
H964   H     0.40818   0.89020   0.62088   0.00000  Uiso   1.00
C965   C     0.39831   0.93741   0.37538   0.00000  Uiso   1.00
H966   H     0.42719   0.92264   0.39846   0.00000  Uiso   1.00
H967   H     0.36791   0.91430   0.38021   0.00000  Uiso   1.00
H968   H     0.39316   0.97864   0.39714   0.00000  Uiso   1.00
O969   O     0.20869   0.98320   0.43673   0.00000  Uiso   1.00
C970   C     0.21360   0.98746   0.37551   0.00000  Uiso   1.00
H971   H     0.21200   0.94732   0.34702   0.00000  Uiso   1.00
H972   H     0.24634   0.67080   0.36642   0.00000  Uiso   1.00
C973   C     0.17414   0.68379   0.35553   0.00000  Uiso   1.00
H974   H     0.14303   0.99738   0.36362   0.00000  Uiso   1.00
H975   H     0.17348   0.72403   0.38315   0.00000  Uiso   1.00
C976   C     0.17446   0.68562   0.62156   0.00000  Uiso   1.00
H977   H     0.20117   0.71248   0.61392   0.00000  Uiso   1.00
H978   H     0.14208   0.69986   0.60695   0.00000  Uiso   1.00
H979   H     0.18010   0.97979   0.59347   0.00000  Uiso   1.00
O980   O     0.27554   0.68297   0.57833   0.00000  Uiso   1.00
C981   C     0.32097   0.69559   0.57482   0.00000  Uiso   1.00
H982   H     0.32523   0.72102   0.54200   0.00000  Uiso   1.00
H983   H     0.34031   0.99342   0.56006   0.00000  Uiso   1.00
C984   C     0.33890   0.72483   0.63784   0.00000  Uiso   1.00
H985   H     0.31534   0.75548   0.65731   0.00000  Uiso   1.00
H986   H     0.34156   0.69733   0.33574   0.00000  Uiso   1.00
C987   C     0.38438   0.75059   0.63438   0.00000  Uiso   1.00
H988   H     0.38090   0.78327   0.61051   0.00000  Uiso   1.00
H989   H     0.40759   0.72216   0.60934   0.00000  Uiso   1.00
H990   H     0.39869   0.76631   0.34785   0.00000  Uiso   1.00
C991   C     0.74655   0.73352   0.48504   0.00000  Uiso   1.00
C992   C     0.75259   0.93302   0.51501   0.00000  Uiso   1.00
C993   C     0.52210   0.73351   0.47745   0.00000  Uiso   1.00
C994   C     0.97687   0.92132   0.53991   0.00000  Uiso   1.00
C995   C     0.74104   0.67767   0.47813   0.00000  Uiso   1.00
C996   C     0.75850   0.98833   0.52205   0.00000  Uiso   1.00
C997   C     0.66473   0.83312   0.50199   0.00000  Uiso   1.00
C998   C     0.83508   0.82950   0.49737   0.00000  Uiso   1.00
C999   C     0.90736   0.87542   0.50183   0.00000  Uiso   1.00
C1000  C     0.59371   0.78240   0.49613   0.00000  Uiso   1.00
C1001  C     0.88313   0.82828   0.49151   0.00000  Uiso   1.00
C1002  C     0.61668   0.83085   0.50714   0.00000  Uiso   1.00
C1003  C     0.90486   0.78054   0.48156   0.00000  Uiso   1.00
C1004  C     0.59433   0.87772   0.52207   0.00000  Uiso   1.00
C1005  C     0.95210   0.78008   0.48391   0.00000  Uiso   1.00
C1006  C     0.54725   0.87681   0.52307   0.00000  Uiso   1.00
C1007  C     0.97640   0.82785   0.50003   0.00000  Uiso   1.00
C1008  C     0.52352   0.82856   0.50487   0.00000  Uiso   1.00
C1009  C     0.95352   0.87518   0.51258   0.00000  Uiso   1.00
C1010  C     0.54668   0.78114   0.49275   0.00000  Uiso   1.00
C1011  C     0.97555   0.73343   0.47255   0.00000  Uiso   1.00
C1012  C     0.52319   0.92239   0.54307   0.00000  Uiso   1.00
Cu1013 Cu    0.75500   0.83913   0.56146   0.00000  Uiso   1.00
Cu1014 Cu    0.74499   0.82754   0.43854   0.00000  Uiso   1.00
H1015  H     0.95848   0.69598   0.46016   0.00000  Uiso   1.00
H1016  H     0.53921   0.95909   0.56459   0.00000  Uiso   1.00
H1017  H     0.71290   0.79780   0.65115   0.00000  Uiso   1.00
H1018  H     0.78624   0.87036   0.34919   0.00000  Uiso   1.00
N1019  N     0.73744   0.81881   0.34617   0.00000  Uiso   1.00
N1020  N     0.76255   0.84786   0.65383   0.00000  Uiso   1.00
O1021  O     0.75325   0.76204   0.53992   0.00000  Uiso   1.00
O1022  O     0.74674   0.90462   0.46008   0.00000  Uiso   1.00
O1023  O     0.74480   0.75226   0.43612   0.00000  Uiso   1.00
O1024  O     0.75520   0.91441   0.56388   0.00000  Uiso   1.00
O1025  O     0.68935   0.83821   0.55191   0.00000  Uiso   1.00
O1026  O     0.81064   0.82845   0.44809   0.00000  Uiso   1.00
O1027  O     0.68090   0.82843   0.44810   0.00000  Uiso   1.00
O1028  O     0.81910   0.83824   0.55190   0.00000  Uiso   1.00
O1029  O     0.88689   0.92250   0.50408   0.00000  Uiso   1.00
H1030  H     0.85601   0.91688   0.48672   0.00000  Uiso   1.00
O1031  O     0.61634   0.73610   0.48702   0.00000  Uiso   1.00
H1032  H     0.64774   0.74223   0.50209   0.00000  Uiso   1.00
O1033  O     0.87895   0.73554   0.46862   0.00000  Uiso   1.00
H1034  H     0.89286   0.71016   0.48988   0.00000  Uiso   1.00
O1035  O     0.62021   0.92300   0.53446   0.00000  Uiso   1.00
H1036  H     0.60235   0.95314   0.53015   0.00000  Uiso   1.00
O1037  O     0.54305   0.68650   0.47296   0.00000  Uiso   1.00
C1038  C     0.54772   0.99691   0.41074   0.00000  Uiso   1.00
H1039  H     0.56709   0.68969   0.38760   0.00000  Uiso   1.00
H1040  H     0.51455   0.98895   0.38791   0.00000  Uiso   1.00
C1041  C     0.57189   0.94565   0.40610   0.00000  Uiso   1.00
H1042  H     0.60565   0.95367   0.42835   0.00000  Uiso   1.00
H1043  H     0.55276   0.92030   0.42967   0.00000  Uiso   1.00
C1044  C     0.57649   0.91607   0.34066   0.00000  Uiso   1.00
H1045  H     0.58803   0.94253   0.64517   0.00000  Uiso   1.00
H1046  H     0.54412   0.89736   0.65536   0.00000  Uiso   1.00
H1047  H     0.60115   0.88494   0.33964   0.00000  Uiso   1.00
O1048  O     0.95449   0.96415   0.57027   0.00000  Uiso   1.00
C1049  C     0.95000   0.96022   0.63199   0.00000  Uiso   1.00
H1050  H     0.95062   0.66698   0.66050   0.00000  Uiso   1.00
H1051  H     0.97770   0.93907   0.64916   0.00000  Uiso   1.00
C1052  C     0.90641   0.93233   0.64136   0.00000  Uiso   1.00
H1053  H     0.87782   0.94865   0.61998   0.00000  Uiso   1.00
H1054  H     0.90818   0.89020   0.62088   0.00000  Uiso   1.00
C1055  C     0.89831   0.93741   0.37538   0.00000  Uiso   1.00
H1056  H     0.92719   0.92264   0.39846   0.00000  Uiso   1.00
H1057  H     0.86791   0.91430   0.38021   0.00000  Uiso   1.00
H1058  H     0.89316   0.97864   0.39714   0.00000  Uiso   1.00
O1059  O     0.70869   0.98320   0.43673   0.00000  Uiso   1.00
C1060  C     0.71360   0.98746   0.37551   0.00000  Uiso   1.00
H1061  H     0.71200   0.94732   0.34702   0.00000  Uiso   1.00
H1062  H     0.74634   0.67080   0.36642   0.00000  Uiso   1.00
C1063  C     0.67414   0.68379   0.35553   0.00000  Uiso   1.00
H1064  H     0.64303   0.99738   0.36362   0.00000  Uiso   1.00
H1065  H     0.67348   0.72403   0.38315   0.00000  Uiso   1.00
C1066  C     0.67446   0.68562   0.62156   0.00000  Uiso   1.00
H1067  H     0.70117   0.71248   0.61392   0.00000  Uiso   1.00
H1068  H     0.64208   0.69986   0.60695   0.00000  Uiso   1.00
H1069  H     0.68010   0.97979   0.59347   0.00000  Uiso   1.00
O1070  O     0.77554   0.68297   0.57833   0.00000  Uiso   1.00
C1071  C     0.82097   0.69559   0.57482   0.00000  Uiso   1.00
H1072  H     0.82523   0.72102   0.54200   0.00000  Uiso   1.00
H1073  H     0.84031   0.99342   0.56006   0.00000  Uiso   1.00
C1074  C     0.83890   0.72483   0.63784   0.00000  Uiso   1.00
H1075  H     0.81534   0.75548   0.65731   0.00000  Uiso   1.00
H1076  H     0.84156   0.69733   0.33574   0.00000  Uiso   1.00
C1077  C     0.88438   0.75059   0.63438   0.00000  Uiso   1.00
H1078  H     0.88090   0.78327   0.61051   0.00000  Uiso   1.00
H1079  H     0.90759   0.72216   0.60934   0.00000  Uiso   1.00
H1080  H     0.89869   0.76631   0.34785   0.00000  Uiso   1.00
C1081  C     0.24655   0.06686   0.81837   0.00000  Uiso   1.00
C1082  C     0.25259   0.26635   0.84835   0.00000  Uiso   1.00
C1083  C     0.02210   0.06684   0.81079   0.00000  Uiso   1.00
C1084  C     0.47687   0.25465   0.87324   0.00000  Uiso   1.00
C1085  C     0.24104   0.01101   0.81146   0.00000  Uiso   1.00
C1086  C     0.25850   0.32166   0.85538   0.00000  Uiso   1.00
C1087  C     0.16473   0.16645   0.83533   0.00000  Uiso   1.00
C1088  C     0.33508   0.16283   0.83071   0.00000  Uiso   1.00
C1089  C     0.40736   0.20875   0.83516   0.00000  Uiso   1.00
C1090  C     0.09371   0.11574   0.82946   0.00000  Uiso   1.00
C1091  C     0.38313   0.16161   0.82484   0.00000  Uiso   1.00
C1092  C     0.11668   0.16418   0.84048   0.00000  Uiso   1.00
C1093  C     0.40486   0.11387   0.81489   0.00000  Uiso   1.00
C1094  C     0.09433   0.21105   0.85540   0.00000  Uiso   1.00
C1095  C     0.45210   0.11341   0.81724   0.00000  Uiso   1.00
C1096  C     0.04725   0.21014   0.85640   0.00000  Uiso   1.00
C1097  C     0.47640   0.16118   0.83336   0.00000  Uiso   1.00
C1098  C     0.02352   0.16189   0.83821   0.00000  Uiso   1.00
C1099  C     0.45352   0.20851   0.84591   0.00000  Uiso   1.00
C1100  C     0.04668   0.11447   0.82608   0.00000  Uiso   1.00
C1101  C     0.47555   0.06676   0.80588   0.00000  Uiso   1.00
C1102  C     0.02319   0.25573   0.87641   0.00000  Uiso   1.00
Cu1103 Cu    0.25500   0.17246   0.89479   0.00000  Uiso   1.00
Cu1104 Cu    0.24499   0.16087   0.77187   0.00000  Uiso   1.00
H1105  H     0.45848   0.02931   0.79349   0.00000  Uiso   1.00
H1106  H     0.03921   0.29242   0.89793   0.00000  Uiso   1.00
H1107  H     0.21290   0.13114   0.98449   0.00000  Uiso   1.00
H1108  H     0.28624   0.20369   0.68252   0.00000  Uiso   1.00
N1109  N     0.23744   0.15214   0.67951   0.00000  Uiso   1.00
N1110  N     0.26255   0.18119   0.98716   0.00000  Uiso   1.00
O1111  O     0.25325   0.09538   0.87326   0.00000  Uiso   1.00
O1112  O     0.24674   0.23796   0.79341   0.00000  Uiso   1.00
O1113  O     0.24480   0.08559   0.76945   0.00000  Uiso   1.00
O1114  O     0.25520   0.24774   0.89721   0.00000  Uiso   1.00
O1115  O     0.18935   0.17155   0.88524   0.00000  Uiso   1.00
O1116  O     0.31064   0.16179   0.78143   0.00000  Uiso   1.00
O1117  O     0.18090   0.16176   0.78143   0.00000  Uiso   1.00
O1118  O     0.31910   0.17157   0.88523   0.00000  Uiso   1.00
O1119  O     0.38689   0.25583   0.83742   0.00000  Uiso   1.00
H1120  H     0.35601   0.25022   0.82006   0.00000  Uiso   1.00
O1121  O     0.11634   0.06943   0.82035   0.00000  Uiso   1.00
H1122  H     0.14774   0.07556   0.83543   0.00000  Uiso   1.00
O1123  O     0.37895   0.06887   0.80195   0.00000  Uiso   1.00
H1124  H     0.39286   0.04349   0.82321   0.00000  Uiso   1.00
O1125  O     0.12021   0.25633   0.86779   0.00000  Uiso   1.00
H1126  H     0.10235   0.28647   0.86348   0.00000  Uiso   1.00
O1127  O     0.04305   0.01983   0.80629   0.00000  Uiso   1.00
C1128  C     0.04772   0.33024   0.74408   0.00000  Uiso   1.00
H1129  H     0.06709   0.02302   0.72093   0.00000  Uiso   1.00
H1130  H     0.01455   0.32228   0.72125   0.00000  Uiso   1.00
C1131  C     0.07189   0.27898   0.73943   0.00000  Uiso   1.00
H1132  H     0.10565   0.28701   0.76168   0.00000  Uiso   1.00
H1133  H     0.05276   0.25363   0.76300   0.00000  Uiso   1.00
C1134  C     0.07649   0.24940   0.67400   0.00000  Uiso   1.00
H1135  H     0.08803   0.27586   0.97850   0.00000  Uiso   1.00
H1136  H     0.04412   0.23070   0.98869   0.00000  Uiso   1.00
H1137  H     0.10115   0.21827   0.67297   0.00000  Uiso   1.00
O1138  O     0.45449   0.29749   0.90360   0.00000  Uiso   1.00
C1139  C     0.45000   0.29355   0.96532   0.00000  Uiso   1.00
H1140  H     0.45062   0.00032   0.99383   0.00000  Uiso   1.00
H1141  H     0.47770   0.27240   0.98249   0.00000  Uiso   1.00
C1142  C     0.40641   0.26566   0.97469   0.00000  Uiso   1.00
H1143  H     0.37782   0.28198   0.95332   0.00000  Uiso   1.00
H1144  H     0.40818   0.22353   0.95421   0.00000  Uiso   1.00
C1145  C     0.39831   0.27074   0.70871   0.00000  Uiso   1.00
H1146  H     0.42719   0.25598   0.73179   0.00000  Uiso   1.00
H1147  H     0.36791   0.24764   0.71354   0.00000  Uiso   1.00
H1148  H     0.39316   0.31197   0.73047   0.00000  Uiso   1.00
O1149  O     0.20869   0.31654   0.77007   0.00000  Uiso   1.00
C1150  C     0.21360   0.32080   0.70885   0.00000  Uiso   1.00
H1151  H     0.21200   0.28066   0.68035   0.00000  Uiso   1.00
H1152  H     0.24634   0.00413   0.69976   0.00000  Uiso   1.00
C1153  C     0.17414   0.01712   0.68886   0.00000  Uiso   1.00
H1154  H     0.14303   0.33071   0.69696   0.00000  Uiso   1.00
H1155  H     0.17348   0.05736   0.71648   0.00000  Uiso   1.00
C1156  C     0.17446   0.01895   0.95489   0.00000  Uiso   1.00
H1157  H     0.20117   0.04581   0.94726   0.00000  Uiso   1.00
H1158  H     0.14208   0.03320   0.94028   0.00000  Uiso   1.00
H1159  H     0.18010   0.31312   0.92681   0.00000  Uiso   1.00
O1160  O     0.27554   0.01631   0.91166   0.00000  Uiso   1.00
C1161  C     0.32097   0.02892   0.90815   0.00000  Uiso   1.00
H1162  H     0.32523   0.05436   0.87533   0.00000  Uiso   1.00
H1163  H     0.34031   0.32676   0.89340   0.00000  Uiso   1.00
C1164  C     0.33890   0.05816   0.97117   0.00000  Uiso   1.00
H1165  H     0.31534   0.08881   0.99065   0.00000  Uiso   1.00
H1166  H     0.34156   0.03067   0.66907   0.00000  Uiso   1.00
C1167  C     0.38438   0.08393   0.96772   0.00000  Uiso   1.00
H1168  H     0.38090   0.11660   0.94384   0.00000  Uiso   1.00
H1169  H     0.40759   0.05549   0.94267   0.00000  Uiso   1.00
H1170  H     0.39869   0.09964   0.68118   0.00000  Uiso   1.00
C1171  C     0.74655   0.06686   0.81837   0.00000  Uiso   1.00
C1172  C     0.75259   0.26635   0.84835   0.00000  Uiso   1.00
C1173  C     0.52210   0.06684   0.81079   0.00000  Uiso   1.00
C1174  C     0.97687   0.25465   0.87324   0.00000  Uiso   1.00
C1175  C     0.74104   0.01101   0.81146   0.00000  Uiso   1.00
C1176  C     0.75850   0.32166   0.85538   0.00000  Uiso   1.00
C1177  C     0.66473   0.16645   0.83533   0.00000  Uiso   1.00
C1178  C     0.83508   0.16283   0.83071   0.00000  Uiso   1.00
C1179  C     0.90736   0.20875   0.83516   0.00000  Uiso   1.00
C1180  C     0.59371   0.11574   0.82946   0.00000  Uiso   1.00
C1181  C     0.88313   0.16161   0.82484   0.00000  Uiso   1.00
C1182  C     0.61668   0.16418   0.84048   0.00000  Uiso   1.00
C1183  C     0.90486   0.11387   0.81489   0.00000  Uiso   1.00
C1184  C     0.59433   0.21105   0.85540   0.00000  Uiso   1.00
C1185  C     0.95210   0.11341   0.81724   0.00000  Uiso   1.00
C1186  C     0.54725   0.21014   0.85640   0.00000  Uiso   1.00
C1187  C     0.97640   0.16118   0.83336   0.00000  Uiso   1.00
C1188  C     0.52352   0.16189   0.83821   0.00000  Uiso   1.00
C1189  C     0.95352   0.20851   0.84591   0.00000  Uiso   1.00
C1190  C     0.54668   0.11447   0.82608   0.00000  Uiso   1.00
C1191  C     0.97555   0.06676   0.80588   0.00000  Uiso   1.00
C1192  C     0.52319   0.25573   0.87641   0.00000  Uiso   1.00
Cu1193 Cu    0.75500   0.17246   0.89479   0.00000  Uiso   1.00
Cu1194 Cu    0.74499   0.16087   0.77187   0.00000  Uiso   1.00
H1195  H     0.95848   0.02931   0.79349   0.00000  Uiso   1.00
H1196  H     0.53921   0.29242   0.89793   0.00000  Uiso   1.00
H1197  H     0.71290   0.13114   0.98449   0.00000  Uiso   1.00
H1198  H     0.78624   0.20369   0.68252   0.00000  Uiso   1.00
N1199  N     0.73744   0.15214   0.67951   0.00000  Uiso   1.00
N1200  N     0.76255   0.18119   0.98716   0.00000  Uiso   1.00
O1201  O     0.75325   0.09538   0.87326   0.00000  Uiso   1.00
O1202  O     0.74674   0.23796   0.79341   0.00000  Uiso   1.00
O1203  O     0.74480   0.08559   0.76945   0.00000  Uiso   1.00
O1204  O     0.75520   0.24774   0.89721   0.00000  Uiso   1.00
O1205  O     0.68935   0.17155   0.88524   0.00000  Uiso   1.00
O1206  O     0.81064   0.16179   0.78143   0.00000  Uiso   1.00
O1207  O     0.68090   0.16176   0.78143   0.00000  Uiso   1.00
O1208  O     0.81910   0.17157   0.88523   0.00000  Uiso   1.00
O1209  O     0.88689   0.25583   0.83742   0.00000  Uiso   1.00
H1210  H     0.85601   0.25022   0.82006   0.00000  Uiso   1.00
O1211  O     0.61634   0.06943   0.82035   0.00000  Uiso   1.00
H1212  H     0.64774   0.07556   0.83543   0.00000  Uiso   1.00
O1213  O     0.87895   0.06887   0.80195   0.00000  Uiso   1.00
H1214  H     0.89286   0.04349   0.82321   0.00000  Uiso   1.00
O1215  O     0.62021   0.25633   0.86779   0.00000  Uiso   1.00
H1216  H     0.60235   0.28647   0.86348   0.00000  Uiso   1.00
O1217  O     0.54305   0.01983   0.80629   0.00000  Uiso   1.00
C1218  C     0.54772   0.33024   0.74408   0.00000  Uiso   1.00
H1219  H     0.56709   0.02302   0.72093   0.00000  Uiso   1.00
H1220  H     0.51455   0.32228   0.72125   0.00000  Uiso   1.00
C1221  C     0.57189   0.27898   0.73943   0.00000  Uiso   1.00
H1222  H     0.60565   0.28701   0.76168   0.00000  Uiso   1.00
H1223  H     0.55276   0.25363   0.76300   0.00000  Uiso   1.00
C1224  C     0.57649   0.24940   0.67400   0.00000  Uiso   1.00
H1225  H     0.58803   0.27586   0.97850   0.00000  Uiso   1.00
H1226  H     0.54412   0.23070   0.98869   0.00000  Uiso   1.00
H1227  H     0.60115   0.21827   0.67297   0.00000  Uiso   1.00
O1228  O     0.95449   0.29749   0.90360   0.00000  Uiso   1.00
C1229  C     0.95000   0.29355   0.96532   0.00000  Uiso   1.00
H1230  H     0.95062   0.00032   0.99383   0.00000  Uiso   1.00
H1231  H     0.97770   0.27240   0.98249   0.00000  Uiso   1.00
C1232  C     0.90641   0.26566   0.97469   0.00000  Uiso   1.00
H1233  H     0.87782   0.28198   0.95332   0.00000  Uiso   1.00
H1234  H     0.90818   0.22353   0.95421   0.00000  Uiso   1.00
C1235  C     0.89831   0.27074   0.70871   0.00000  Uiso   1.00
H1236  H     0.92719   0.25598   0.73179   0.00000  Uiso   1.00
H1237  H     0.86791   0.24764   0.71354   0.00000  Uiso   1.00
H1238  H     0.89316   0.31197   0.73047   0.00000  Uiso   1.00
O1239  O     0.70869   0.31654   0.77007   0.00000  Uiso   1.00
C1240  C     0.71360   0.32080   0.70885   0.00000  Uiso   1.00
H1241  H     0.71200   0.28066   0.68035   0.00000  Uiso   1.00
H1242  H     0.74634   0.00413   0.69976   0.00000  Uiso   1.00
C1243  C     0.67414   0.01712   0.68886   0.00000  Uiso   1.00
H1244  H     0.64303   0.33071   0.69696   0.00000  Uiso   1.00
H1245  H     0.67348   0.05736   0.71648   0.00000  Uiso   1.00
C1246  C     0.67446   0.01895   0.95489   0.00000  Uiso   1.00
H1247  H     0.70117   0.04581   0.94726   0.00000  Uiso   1.00
H1248  H     0.64208   0.03320   0.94028   0.00000  Uiso   1.00
H1249  H     0.68010   0.31312   0.92681   0.00000  Uiso   1.00
O1250  O     0.77554   0.01631   0.91166   0.00000  Uiso   1.00
C1251  C     0.82097   0.02892   0.90815   0.00000  Uiso   1.00
H1252  H     0.82523   0.05436   0.87533   0.00000  Uiso   1.00
H1253  H     0.84031   0.32676   0.89340   0.00000  Uiso   1.00
C1254  C     0.83890   0.05816   0.97117   0.00000  Uiso   1.00
H1255  H     0.81534   0.08881   0.99065   0.00000  Uiso   1.00
H1256  H     0.84156   0.03067   0.66907   0.00000  Uiso   1.00
C1257  C     0.88438   0.08393   0.96772   0.00000  Uiso   1.00
H1258  H     0.88090   0.11660   0.94384   0.00000  Uiso   1.00
H1259  H     0.90759   0.05549   0.94267   0.00000  Uiso   1.00
H1260  H     0.89869   0.09964   0.68118   0.00000  Uiso   1.00
C1261  C     0.24655   0.40019   0.81837   0.00000  Uiso   1.00
C1262  C     0.25259   0.59969   0.84835   0.00000  Uiso   1.00
C1263  C     0.02210   0.40018   0.81079   0.00000  Uiso   1.00
C1264  C     0.47687   0.58799   0.87324   0.00000  Uiso   1.00
C1265  C     0.24104   0.34434   0.81146   0.00000  Uiso   1.00
C1266  C     0.25850   0.65500   0.85538   0.00000  Uiso   1.00
C1267  C     0.16473   0.49978   0.83533   0.00000  Uiso   1.00
C1268  C     0.33508   0.49616   0.83071   0.00000  Uiso   1.00
C1269  C     0.40736   0.54208   0.83516   0.00000  Uiso   1.00
C1270  C     0.09371   0.44907   0.82946   0.00000  Uiso   1.00
C1271  C     0.38313   0.49495   0.82484   0.00000  Uiso   1.00
C1272  C     0.11668   0.49752   0.84048   0.00000  Uiso   1.00
C1273  C     0.40486   0.44721   0.81489   0.00000  Uiso   1.00
C1274  C     0.09433   0.54438   0.85540   0.00000  Uiso   1.00
C1275  C     0.45210   0.44675   0.81724   0.00000  Uiso   1.00
C1276  C     0.04725   0.54348   0.85640   0.00000  Uiso   1.00
C1277  C     0.47640   0.49452   0.83336   0.00000  Uiso   1.00
C1278  C     0.02352   0.49523   0.83821   0.00000  Uiso   1.00
C1279  C     0.45352   0.54184   0.84591   0.00000  Uiso   1.00
C1280  C     0.04668   0.44781   0.82608   0.00000  Uiso   1.00
C1281  C     0.47555   0.40010   0.80588   0.00000  Uiso   1.00
C1282  C     0.02319   0.58906   0.87641   0.00000  Uiso   1.00
Cu1283 Cu    0.25500   0.50579   0.89479   0.00000  Uiso   1.00
Cu1284 Cu    0.24499   0.49421   0.77187   0.00000  Uiso   1.00
H1285  H     0.45848   0.36264   0.79349   0.00000  Uiso   1.00
H1286  H     0.03921   0.62576   0.89793   0.00000  Uiso   1.00
H1287  H     0.21290   0.46447   0.98449   0.00000  Uiso   1.00
H1288  H     0.28624   0.53702   0.68252   0.00000  Uiso   1.00
N1289  N     0.23744   0.48547   0.67951   0.00000  Uiso   1.00
N1290  N     0.26255   0.51453   0.98716   0.00000  Uiso   1.00
O1291  O     0.25325   0.42871   0.87326   0.00000  Uiso   1.00
O1292  O     0.24674   0.57129   0.79341   0.00000  Uiso   1.00
O1293  O     0.24480   0.41892   0.76945   0.00000  Uiso   1.00
O1294  O     0.25520   0.58108   0.89721   0.00000  Uiso   1.00
O1295  O     0.18935   0.50488   0.88524   0.00000  Uiso   1.00
O1296  O     0.31064   0.49512   0.78143   0.00000  Uiso   1.00
O1297  O     0.18090   0.49510   0.78143   0.00000  Uiso   1.00
O1298  O     0.31910   0.50490   0.88523   0.00000  Uiso   1.00
O1299  O     0.38689   0.58917   0.83742   0.00000  Uiso   1.00
H1300  H     0.35601   0.58355   0.82006   0.00000  Uiso   1.00
O1301  O     0.11634   0.40277   0.82035   0.00000  Uiso   1.00
H1302  H     0.14774   0.40890   0.83543   0.00000  Uiso   1.00
O1303  O     0.37895   0.40221   0.80195   0.00000  Uiso   1.00
H1304  H     0.39286   0.37683   0.82321   0.00000  Uiso   1.00
O1305  O     0.12021   0.58967   0.86779   0.00000  Uiso   1.00
H1306  H     0.10235   0.61981   0.86348   0.00000  Uiso   1.00
O1307  O     0.04305   0.35316   0.80629   0.00000  Uiso   1.00
C1308  C     0.04772   0.66358   0.74408   0.00000  Uiso   1.00
H1309  H     0.06709   0.35636   0.72093   0.00000  Uiso   1.00
H1310  H     0.01455   0.65561   0.72125   0.00000  Uiso   1.00
C1311  C     0.07189   0.61232   0.73943   0.00000  Uiso   1.00
H1312  H     0.10565   0.62034   0.76168   0.00000  Uiso   1.00
H1313  H     0.05276   0.58697   0.76300   0.00000  Uiso   1.00
C1314  C     0.07649   0.58274   0.67400   0.00000  Uiso   1.00
H1315  H     0.08803   0.60920   0.97850   0.00000  Uiso   1.00
H1316  H     0.04412   0.56403   0.98869   0.00000  Uiso   1.00
H1317  H     0.10115   0.55160   0.67297   0.00000  Uiso   1.00
O1318  O     0.45449   0.63082   0.90360   0.00000  Uiso   1.00
C1319  C     0.45000   0.62689   0.96532   0.00000  Uiso   1.00
H1320  H     0.45062   0.33365   0.99383   0.00000  Uiso   1.00
H1321  H     0.47770   0.60574   0.98249   0.00000  Uiso   1.00
C1322  C     0.40641   0.59900   0.97469   0.00000  Uiso   1.00
H1323  H     0.37782   0.61532   0.95332   0.00000  Uiso   1.00
H1324  H     0.40818   0.55687   0.95421   0.00000  Uiso   1.00
C1325  C     0.39831   0.60408   0.70871   0.00000  Uiso   1.00
H1326  H     0.42719   0.58931   0.73179   0.00000  Uiso   1.00
H1327  H     0.36791   0.58097   0.71354   0.00000  Uiso   1.00
H1328  H     0.39316   0.64531   0.73047   0.00000  Uiso   1.00
O1329  O     0.20869   0.64987   0.77007   0.00000  Uiso   1.00
C1330  C     0.21360   0.65413   0.70885   0.00000  Uiso   1.00
H1331  H     0.21200   0.61399   0.68035   0.00000  Uiso   1.00
H1332  H     0.24634   0.33746   0.69976   0.00000  Uiso   1.00
C1333  C     0.17414   0.35046   0.68886   0.00000  Uiso   1.00
H1334  H     0.14303   0.66405   0.69696   0.00000  Uiso   1.00
H1335  H     0.17348   0.39070   0.71648   0.00000  Uiso   1.00
C1336  C     0.17446   0.35229   0.95489   0.00000  Uiso   1.00
H1337  H     0.20117   0.37915   0.94726   0.00000  Uiso   1.00
H1338  H     0.14208   0.36653   0.94028   0.00000  Uiso   1.00
H1339  H     0.18010   0.64646   0.92681   0.00000  Uiso   1.00
O1340  O     0.27554   0.34964   0.91166   0.00000  Uiso   1.00
C1341  C     0.32097   0.36225   0.90815   0.00000  Uiso   1.00
H1342  H     0.32523   0.38769   0.87533   0.00000  Uiso   1.00
H1343  H     0.34031   0.66009   0.89340   0.00000  Uiso   1.00
C1344  C     0.33890   0.39149   0.97117   0.00000  Uiso   1.00
H1345  H     0.31534   0.42215   0.99065   0.00000  Uiso   1.00
H1346  H     0.34156   0.36400   0.66907   0.00000  Uiso   1.00
C1347  C     0.38438   0.41726   0.96772   0.00000  Uiso   1.00
H1348  H     0.38090   0.44993   0.94384   0.00000  Uiso   1.00
H1349  H     0.40759   0.38883   0.94267   0.00000  Uiso   1.00
H1350  H     0.39869   0.43297   0.68118   0.00000  Uiso   1.00
C1351  C     0.74655   0.40019   0.81837   0.00000  Uiso   1.00
C1352  C     0.75259   0.59969   0.84835   0.00000  Uiso   1.00
C1353  C     0.52210   0.40018   0.81079   0.00000  Uiso   1.00
C1354  C     0.97687   0.58799   0.87324   0.00000  Uiso   1.00
C1355  C     0.74104   0.34434   0.81146   0.00000  Uiso   1.00
C1356  C     0.75850   0.65500   0.85538   0.00000  Uiso   1.00
C1357  C     0.66473   0.49978   0.83533   0.00000  Uiso   1.00
C1358  C     0.83508   0.49616   0.83071   0.00000  Uiso   1.00
C1359  C     0.90736   0.54208   0.83516   0.00000  Uiso   1.00
C1360  C     0.59371   0.44907   0.82946   0.00000  Uiso   1.00
C1361  C     0.88313   0.49495   0.82484   0.00000  Uiso   1.00
C1362  C     0.61668   0.49752   0.84048   0.00000  Uiso   1.00
C1363  C     0.90486   0.44721   0.81489   0.00000  Uiso   1.00
C1364  C     0.59433   0.54438   0.85540   0.00000  Uiso   1.00
C1365  C     0.95210   0.44675   0.81724   0.00000  Uiso   1.00
C1366  C     0.54725   0.54348   0.85640   0.00000  Uiso   1.00
C1367  C     0.97640   0.49452   0.83336   0.00000  Uiso   1.00
C1368  C     0.52352   0.49523   0.83821   0.00000  Uiso   1.00
C1369  C     0.95352   0.54184   0.84591   0.00000  Uiso   1.00
C1370  C     0.54668   0.44781   0.82608   0.00000  Uiso   1.00
C1371  C     0.97555   0.40010   0.80588   0.00000  Uiso   1.00
C1372  C     0.52319   0.58906   0.87641   0.00000  Uiso   1.00
Cu1373 Cu    0.75500   0.50579   0.89479   0.00000  Uiso   1.00
Cu1374 Cu    0.74499   0.49421   0.77187   0.00000  Uiso   1.00
H1375  H     0.95848   0.36264   0.79349   0.00000  Uiso   1.00
H1376  H     0.53921   0.62576   0.89793   0.00000  Uiso   1.00
H1377  H     0.71290   0.46447   0.98449   0.00000  Uiso   1.00
H1378  H     0.78624   0.53702   0.68252   0.00000  Uiso   1.00
N1379  N     0.73744   0.48547   0.67951   0.00000  Uiso   1.00
N1380  N     0.76255   0.51453   0.98716   0.00000  Uiso   1.00
O1381  O     0.75325   0.42871   0.87326   0.00000  Uiso   1.00
O1382  O     0.74674   0.57129   0.79341   0.00000  Uiso   1.00
O1383  O     0.74480   0.41892   0.76945   0.00000  Uiso   1.00
O1384  O     0.75520   0.58108   0.89721   0.00000  Uiso   1.00
O1385  O     0.68935   0.50488   0.88524   0.00000  Uiso   1.00
O1386  O     0.81064   0.49512   0.78143   0.00000  Uiso   1.00
O1387  O     0.68090   0.49510   0.78143   0.00000  Uiso   1.00
O1388  O     0.81910   0.50490   0.88523   0.00000  Uiso   1.00
O1389  O     0.88689   0.58917   0.83742   0.00000  Uiso   1.00
H1390  H     0.85601   0.58355   0.82006   0.00000  Uiso   1.00
O1391  O     0.61634   0.40277   0.82035   0.00000  Uiso   1.00
H1392  H     0.64774   0.40890   0.83543   0.00000  Uiso   1.00
O1393  O     0.87895   0.40221   0.80195   0.00000  Uiso   1.00
H1394  H     0.89286   0.37683   0.82321   0.00000  Uiso   1.00
O1395  O     0.62021   0.58967   0.86779   0.00000  Uiso   1.00
H1396  H     0.60235   0.61981   0.86348   0.00000  Uiso   1.00
O1397  O     0.54305   0.35316   0.80629   0.00000  Uiso   1.00
C1398  C     0.54772   0.66358   0.74408   0.00000  Uiso   1.00
H1399  H     0.56709   0.35636   0.72093   0.00000  Uiso   1.00
H1400  H     0.51455   0.65561   0.72125   0.00000  Uiso   1.00
C1401  C     0.57189   0.61232   0.73943   0.00000  Uiso   1.00
H1402  H     0.60565   0.62034   0.76168   0.00000  Uiso   1.00
H1403  H     0.55276   0.58697   0.76300   0.00000  Uiso   1.00
C1404  C     0.57649   0.58274   0.67400   0.00000  Uiso   1.00
H1405  H     0.58803   0.60920   0.97850   0.00000  Uiso   1.00
H1406  H     0.54412   0.56403   0.98869   0.00000  Uiso   1.00
H1407  H     0.60115   0.55160   0.67297   0.00000  Uiso   1.00
O1408  O     0.95449   0.63082   0.90360   0.00000  Uiso   1.00
C1409  C     0.95000   0.62689   0.96532   0.00000  Uiso   1.00
H1410  H     0.95062   0.33365   0.99383   0.00000  Uiso   1.00
H1411  H     0.97770   0.60574   0.98249   0.00000  Uiso   1.00
C1412  C     0.90641   0.59900   0.97469   0.00000  Uiso   1.00
H1413  H     0.87782   0.61532   0.95332   0.00000  Uiso   1.00
H1414  H     0.90818   0.55687   0.95421   0.00000  Uiso   1.00
C1415  C     0.89831   0.60408   0.70871   0.00000  Uiso   1.00
H1416  H     0.92719   0.58931   0.73179   0.00000  Uiso   1.00
H1417  H     0.86791   0.58097   0.71354   0.00000  Uiso   1.00
H1418  H     0.89316   0.64531   0.73047   0.00000  Uiso   1.00
O1419  O     0.70869   0.64987   0.77007   0.00000  Uiso   1.00
C1420  C     0.71360   0.65413   0.70885   0.00000  Uiso   1.00
H1421  H     0.71200   0.61399   0.68035   0.00000  Uiso   1.00
H1422  H     0.74634   0.33746   0.69976   0.00000  Uiso   1.00
C1423  C     0.67414   0.35046   0.68886   0.00000  Uiso   1.00
H1424  H     0.64303   0.66405   0.69696   0.00000  Uiso   1.00
H1425  H     0.67348   0.39070   0.71648   0.00000  Uiso   1.00
C1426  C     0.67446   0.35229   0.95489   0.00000  Uiso   1.00
H1427  H     0.70117   0.37915   0.94726   0.00000  Uiso   1.00
H1428  H     0.64208   0.36653   0.94028   0.00000  Uiso   1.00
H1429  H     0.68010   0.64646   0.92681   0.00000  Uiso   1.00
O1430  O     0.77554   0.34964   0.91166   0.00000  Uiso   1.00
C1431  C     0.82097   0.36225   0.90815   0.00000  Uiso   1.00
H1432  H     0.82523   0.38769   0.87533   0.00000  Uiso   1.00
H1433  H     0.84031   0.66009   0.89340   0.00000  Uiso   1.00
C1434  C     0.83890   0.39149   0.97117   0.00000  Uiso   1.00
H1435  H     0.81534   0.42215   0.99065   0.00000  Uiso   1.00
H1436  H     0.84156   0.36400   0.66907   0.00000  Uiso   1.00
C1437  C     0.88438   0.41726   0.96772   0.00000  Uiso   1.00
H1438  H     0.88090   0.44993   0.94384   0.00000  Uiso   1.00
H1439  H     0.90759   0.38883   0.94267   0.00000  Uiso   1.00
H1440  H     0.89869   0.43297   0.68118   0.00000  Uiso   1.00
C1441  C     0.24655   0.73352   0.81837   0.00000  Uiso   1.00
C1442  C     0.25259   0.93302   0.84835   0.00000  Uiso   1.00
C1443  C     0.02210   0.73351   0.81079   0.00000  Uiso   1.00
C1444  C     0.47687   0.92132   0.87324   0.00000  Uiso   1.00
C1445  C     0.24104   0.67767   0.81146   0.00000  Uiso   1.00
C1446  C     0.25850   0.98833   0.85538   0.00000  Uiso   1.00
C1447  C     0.16473   0.83312   0.83533   0.00000  Uiso   1.00
C1448  C     0.33508   0.82950   0.83071   0.00000  Uiso   1.00
C1449  C     0.40736   0.87542   0.83516   0.00000  Uiso   1.00
C1450  C     0.09371   0.78240   0.82946   0.00000  Uiso   1.00
C1451  C     0.38313   0.82828   0.82484   0.00000  Uiso   1.00
C1452  C     0.11668   0.83085   0.84048   0.00000  Uiso   1.00
C1453  C     0.40486   0.78054   0.81489   0.00000  Uiso   1.00
C1454  C     0.09433   0.87772   0.85540   0.00000  Uiso   1.00
C1455  C     0.45210   0.78008   0.81724   0.00000  Uiso   1.00
C1456  C     0.04725   0.87681   0.85640   0.00000  Uiso   1.00
C1457  C     0.47640   0.82785   0.83336   0.00000  Uiso   1.00
C1458  C     0.02352   0.82856   0.83821   0.00000  Uiso   1.00
C1459  C     0.45352   0.87518   0.84591   0.00000  Uiso   1.00
C1460  C     0.04668   0.78114   0.82608   0.00000  Uiso   1.00
C1461  C     0.47555   0.73343   0.80588   0.00000  Uiso   1.00
C1462  C     0.02319   0.92239   0.87641   0.00000  Uiso   1.00
Cu1463 Cu    0.25500   0.83913   0.89479   0.00000  Uiso   1.00
Cu1464 Cu    0.24499   0.82754   0.77187   0.00000  Uiso   1.00
H1465  H     0.45848   0.69598   0.79349   0.00000  Uiso   1.00
H1466  H     0.03921   0.95909   0.89793   0.00000  Uiso   1.00
H1467  H     0.21290   0.79780   0.98449   0.00000  Uiso   1.00
H1468  H     0.28624   0.87036   0.68252   0.00000  Uiso   1.00
N1469  N     0.23744   0.81881   0.67951   0.00000  Uiso   1.00
N1470  N     0.26255   0.84786   0.98716   0.00000  Uiso   1.00
O1471  O     0.25325   0.76204   0.87326   0.00000  Uiso   1.00
O1472  O     0.24674   0.90462   0.79341   0.00000  Uiso   1.00
O1473  O     0.24480   0.75226   0.76945   0.00000  Uiso   1.00
O1474  O     0.25520   0.91441   0.89721   0.00000  Uiso   1.00
O1475  O     0.18935   0.83821   0.88524   0.00000  Uiso   1.00
O1476  O     0.31064   0.82845   0.78143   0.00000  Uiso   1.00
O1477  O     0.18090   0.82843   0.78143   0.00000  Uiso   1.00
O1478  O     0.31910   0.83824   0.88523   0.00000  Uiso   1.00
O1479  O     0.38689   0.92250   0.83742   0.00000  Uiso   1.00
H1480  H     0.35601   0.91688   0.82006   0.00000  Uiso   1.00
O1481  O     0.11634   0.73610   0.82035   0.00000  Uiso   1.00
H1482  H     0.14774   0.74223   0.83543   0.00000  Uiso   1.00
O1483  O     0.37895   0.73554   0.80195   0.00000  Uiso   1.00
H1484  H     0.39286   0.71016   0.82321   0.00000  Uiso   1.00
O1485  O     0.12021   0.92300   0.86779   0.00000  Uiso   1.00
H1486  H     0.10235   0.95314   0.86348   0.00000  Uiso   1.00
O1487  O     0.04305   0.68650   0.80629   0.00000  Uiso   1.00
C1488  C     0.04772   0.99691   0.74408   0.00000  Uiso   1.00
H1489  H     0.06709   0.68969   0.72093   0.00000  Uiso   1.00
H1490  H     0.01455   0.98895   0.72125   0.00000  Uiso   1.00
C1491  C     0.07189   0.94565   0.73943   0.00000  Uiso   1.00
H1492  H     0.10565   0.95367   0.76168   0.00000  Uiso   1.00
H1493  H     0.05276   0.92030   0.76300   0.00000  Uiso   1.00
C1494  C     0.07649   0.91607   0.67400   0.00000  Uiso   1.00
H1495  H     0.08803   0.94253   0.97850   0.00000  Uiso   1.00
H1496  H     0.04412   0.89736   0.98869   0.00000  Uiso   1.00
H1497  H     0.10115   0.88494   0.67297   0.00000  Uiso   1.00
O1498  O     0.45449   0.96415   0.90360   0.00000  Uiso   1.00
C1499  C     0.45000   0.96022   0.96532   0.00000  Uiso   1.00
H1500  H     0.45062   0.66698   0.99383   0.00000  Uiso   1.00
H1501  H     0.47770   0.93907   0.98249   0.00000  Uiso   1.00
C1502  C     0.40641   0.93233   0.97469   0.00000  Uiso   1.00
H1503  H     0.37782   0.94865   0.95332   0.00000  Uiso   1.00
H1504  H     0.40818   0.89020   0.95421   0.00000  Uiso   1.00
C1505  C     0.39831   0.93741   0.70871   0.00000  Uiso   1.00
H1506  H     0.42719   0.92264   0.73179   0.00000  Uiso   1.00
H1507  H     0.36791   0.91430   0.71354   0.00000  Uiso   1.00
H1508  H     0.39316   0.97864   0.73047   0.00000  Uiso   1.00
O1509  O     0.20869   0.98320   0.77007   0.00000  Uiso   1.00
C1510  C     0.21360   0.98746   0.70885   0.00000  Uiso   1.00
H1511  H     0.21200   0.94732   0.68035   0.00000  Uiso   1.00
H1512  H     0.24634   0.67080   0.69976   0.00000  Uiso   1.00
C1513  C     0.17414   0.68379   0.68886   0.00000  Uiso   1.00
H1514  H     0.14303   0.99738   0.69696   0.00000  Uiso   1.00
H1515  H     0.17348   0.72403   0.71648   0.00000  Uiso   1.00
C1516  C     0.17446   0.68562   0.95489   0.00000  Uiso   1.00
H1517  H     0.20117   0.71248   0.94726   0.00000  Uiso   1.00
H1518  H     0.14208   0.69986   0.94028   0.00000  Uiso   1.00
H1519  H     0.18010   0.97979   0.92681   0.00000  Uiso   1.00
O1520  O     0.27554   0.68297   0.91166   0.00000  Uiso   1.00
C1521  C     0.32097   0.69559   0.90815   0.00000  Uiso   1.00
H1522  H     0.32523   0.72102   0.87533   0.00000  Uiso   1.00
H1523  H     0.34031   0.99342   0.89340   0.00000  Uiso   1.00
C1524  C     0.33890   0.72483   0.97117   0.00000  Uiso   1.00
H1525  H     0.31534   0.75548   0.99065   0.00000  Uiso   1.00
H1526  H     0.34156   0.69733   0.66907   0.00000  Uiso   1.00
C1527  C     0.38438   0.75059   0.96772   0.00000  Uiso   1.00
H1528  H     0.38090   0.78327   0.94384   0.00000  Uiso   1.00
H1529  H     0.40759   0.72216   0.94267   0.00000  Uiso   1.00
H1530  H     0.39869   0.76631   0.68118   0.00000  Uiso   1.00
C1531  C     0.74655   0.73352   0.81837   0.00000  Uiso   1.00
C1532  C     0.75259   0.93302   0.84835   0.00000  Uiso   1.00
C1533  C     0.52210   0.73351   0.81079   0.00000  Uiso   1.00
C1534  C     0.97687   0.92132   0.87324   0.00000  Uiso   1.00
C1535  C     0.74104   0.67767   0.81146   0.00000  Uiso   1.00
C1536  C     0.75850   0.98833   0.85538   0.00000  Uiso   1.00
C1537  C     0.66473   0.83312   0.83533   0.00000  Uiso   1.00
C1538  C     0.83508   0.82950   0.83071   0.00000  Uiso   1.00
C1539  C     0.90736   0.87542   0.83516   0.00000  Uiso   1.00
C1540  C     0.59371   0.78240   0.82946   0.00000  Uiso   1.00
C1541  C     0.88313   0.82828   0.82484   0.00000  Uiso   1.00
C1542  C     0.61668   0.83085   0.84048   0.00000  Uiso   1.00
C1543  C     0.90486   0.78054   0.81489   0.00000  Uiso   1.00
C1544  C     0.59433   0.87772   0.85540   0.00000  Uiso   1.00
C1545  C     0.95210   0.78008   0.81724   0.00000  Uiso   1.00
C1546  C     0.54725   0.87681   0.85640   0.00000  Uiso   1.00
C1547  C     0.97640   0.82785   0.83336   0.00000  Uiso   1.00
C1548  C     0.52352   0.82856   0.83821   0.00000  Uiso   1.00
C1549  C     0.95352   0.87518   0.84591   0.00000  Uiso   1.00
C1550  C     0.54668   0.78114   0.82608   0.00000  Uiso   1.00
C1551  C     0.97555   0.73343   0.80588   0.00000  Uiso   1.00
C1552  C     0.52319   0.92239   0.87641   0.00000  Uiso   1.00
Cu1553 Cu    0.75500   0.83913   0.89479   0.00000  Uiso   1.00
Cu1554 Cu    0.74499   0.82754   0.77187   0.00000  Uiso   1.00
H1555  H     0.95848   0.69598   0.79349   0.00000  Uiso   1.00
H1556  H     0.53921   0.95909   0.89793   0.00000  Uiso   1.00
H1557  H     0.71290   0.79780   0.98449   0.00000  Uiso   1.00
H1558  H     0.78624   0.87036   0.68252   0.00000  Uiso   1.00
N1559  N     0.73744   0.81881   0.67951   0.00000  Uiso   1.00
N1560  N     0.76255   0.84786   0.98716   0.00000  Uiso   1.00
O1561  O     0.75325   0.76204   0.87326   0.00000  Uiso   1.00
O1562  O     0.74674   0.90462   0.79341   0.00000  Uiso   1.00
O1563  O     0.74480   0.75226   0.76945   0.00000  Uiso   1.00
O1564  O     0.75520   0.91441   0.89721   0.00000  Uiso   1.00
O1565  O     0.68935   0.83821   0.88524   0.00000  Uiso   1.00
O1566  O     0.81064   0.82845   0.78143   0.00000  Uiso   1.00
O1567  O     0.68090   0.82843   0.78143   0.00000  Uiso   1.00
O1568  O     0.81910   0.83824   0.88523   0.00000  Uiso   1.00
O1569  O     0.88689   0.92250   0.83742   0.00000  Uiso   1.00
H1570  H     0.85601   0.91688   0.82006   0.00000  Uiso   1.00
O1571  O     0.61634   0.73610   0.82035   0.00000  Uiso   1.00
H1572  H     0.64774   0.74223   0.83543   0.00000  Uiso   1.00
O1573  O     0.87895   0.73554   0.80195   0.00000  Uiso   1.00
H1574  H     0.89286   0.71016   0.82321   0.00000  Uiso   1.00
O1575  O     0.62021   0.92300   0.86779   0.00000  Uiso   1.00
H1576  H     0.60235   0.95314   0.86348   0.00000  Uiso   1.00
O1577  O     0.54305   0.68650   0.80629   0.00000  Uiso   1.00
C1578  C     0.54772   0.99691   0.74408   0.00000  Uiso   1.00
H1579  H     0.56709   0.68969   0.72093   0.00000  Uiso   1.00
H1580  H     0.51455   0.98895   0.72125   0.00000  Uiso   1.00
C1581  C     0.57189   0.94565   0.73943   0.00000  Uiso   1.00
H1582  H     0.60565   0.95367   0.76168   0.00000  Uiso   1.00
H1583  H     0.55276   0.92030   0.76300   0.00000  Uiso   1.00
C1584  C     0.57649   0.91607   0.67400   0.00000  Uiso   1.00
H1585  H     0.58803   0.94253   0.97850   0.00000  Uiso   1.00
H1586  H     0.54412   0.89736   0.98869   0.00000  Uiso   1.00
H1587  H     0.60115   0.88494   0.67297   0.00000  Uiso   1.00
O1588  O     0.95449   0.96415   0.90360   0.00000  Uiso   1.00
C1589  C     0.95000   0.96022   0.96532   0.00000  Uiso   1.00
H1590  H     0.95062   0.66698   0.99383   0.00000  Uiso   1.00
H1591  H     0.97770   0.93907   0.98249   0.00000  Uiso   1.00
C1592  C     0.90641   0.93233   0.97469   0.00000  Uiso   1.00
H1593  H     0.87782   0.94865   0.95332   0.00000  Uiso   1.00
H1594  H     0.90818   0.89020   0.95421   0.00000  Uiso   1.00
C1595  C     0.89831   0.93741   0.70871   0.00000  Uiso   1.00
H1596  H     0.92719   0.92264   0.73179   0.00000  Uiso   1.00
H1597  H     0.86791   0.91430   0.71354   0.00000  Uiso   1.00
H1598  H     0.89316   0.97864   0.73047   0.00000  Uiso   1.00
O1599  O     0.70869   0.98320   0.77007   0.00000  Uiso   1.00
C1600  C     0.71360   0.98746   0.70885   0.00000  Uiso   1.00
H1601  H     0.71200   0.94732   0.68035   0.00000  Uiso   1.00
H1602  H     0.74634   0.67080   0.69976   0.00000  Uiso   1.00
C1603  C     0.67414   0.68379   0.68886   0.00000  Uiso   1.00
H1604  H     0.64303   0.99738   0.69696   0.00000  Uiso   1.00
H1605  H     0.67348   0.72403   0.71648   0.00000  Uiso   1.00
C1606  C     0.67446   0.68562   0.95489   0.00000  Uiso   1.00
H1607  H     0.70117   0.71248   0.94726   0.00000  Uiso   1.00
H1608  H     0.64208   0.69986   0.94028   0.00000  Uiso   1.00
H1609  H     0.68010   0.97979   0.92681   0.00000  Uiso   1.00
O1610  O     0.77554   0.68297   0.91166   0.00000  Uiso   1.00
C1611  C     0.82097   0.69559   0.90815   0.00000  Uiso   1.00
H1612  H     0.82523   0.72102   0.87533   0.00000  Uiso   1.00
H1613  H     0.84031   0.99342   0.89340   0.00000  Uiso   1.00
C1614  C     0.83890   0.72483   0.97117   0.00000  Uiso   1.00
H1615  H     0.81534   0.75548   0.99065   0.00000  Uiso   1.00
H1616  H     0.84156   0.69733   0.66907   0.00000  Uiso   1.00
C1617  C     0.88438   0.75059   0.96772   0.00000  Uiso   1.00
H1618  H     0.88090   0.78327   0.94384   0.00000  Uiso   1.00
H1619  H     0.90759   0.72216   0.94267   0.00000  Uiso   1.00
H1620  H     0.89869   0.76631   0.68118   0.00000  Uiso   1.00
loop_
_geom_bond_atom_site_label_1
_geom_bond_atom_site_label_2
_geom_bond_distance
_geom_bond_site_symmetry_2
_ccdc_geom_bond_type
C1     O31     1.304   .     A
C1     O33     1.295   .     A
C1     C5      1.451   .     S
C2     O32     1.301   .     A
C2     C6      1.438   .     S
C2     O34     1.292   .     A
C3     C20     1.414   .     A
C3     O47     1.383   .     S
C3     C111    1.398   1_455 S
C4     C19     1.401   .     A
C4     O58     1.385   .     S
C4     C112    1.390   .     S
C5     C366    1.350   1_545 S
C5     O429    1.399   1_545 S
C6     C185    1.350   .     S
C6     O260    1.392   .     S
C7     C12     1.454   .     S
C7     O37     1.302   .     A
C7     O35     1.299   .     A
C8     O36     1.298   .     A
C8     O38     1.306   .     A
C8     C11     1.454   .     S
C9     O39     1.384   .     S
C9     C19     1.398   .     A
C9     C11     1.399   .     A
C10    C20     1.411   .     A
C10    O41     1.386   .     S
C10    C12     1.409   .     A
C11    C13     1.404   .     A
C12    C14     1.397   .     A
C13    C15     1.418   .     A
C13    O43     1.378   .     S
C14    O45     1.383   .     S
C14    C16     1.415   .     A
C15    C17     1.414   .     A
C15    C21     1.406   .     A
C16    C22     1.409   .     A
C16    C18     1.419   .     A
C17    C19     1.413   .     A
C17    C108    1.415   .     S
C18    C20     1.419   .     A
C18    C107    1.415   1_455 S
C21    H25     1.080   .     S
C21    C93     1.398   .     S
C22    H26     1.079   .     S
C22    C94     1.390   1_455 S
Cu23   Cu24    2.712   .     S
Cu23   N30     2.038   .     S
Cu23   O31     1.982   .     S
Cu23   O34     1.970   .     S
Cu23   O35     1.974   .     S
Cu23   O38     1.945   .     S
Cu24   N29     2.038   .     S
Cu24   O37     1.945   .     S
Cu24   O32     1.982   .     S
Cu24   O36     1.974   .     S
Cu24   O33     1.970   .     S
H27    N569    1.027   .     S
H28    N1110   1.029   1_554 S
N29    H1107   1.027   1_554 S
N29    N1110   1.299   1_554 S
N30    N569    1.299   .     S
N30    H568    1.029   .     S
O39    H40     0.988   .     S
O41    H42     0.989   .     S
O43    H44     0.989   .     S
O45    H46     0.984   .     S
O47    C408    1.410   1_545 S
C48    C51     1.528   .     S
C48    H50     1.099   .     S
C48    O227    1.410   .     S
C48    H229    1.115   .     S
H49    C408    1.115   1_545 S
C51    H52     1.109   .     S
C51    H53     1.103   .     S
C51    C54     1.520   .     S
C54    H57     1.111   .     S
C54    H1135   1.106   1_554 S
C54    H1136   1.108   1_554 S
H55    C594    1.106   .     S
H56    C594    1.108   .     S
O58    C59     1.421   .     S
C59    H61     1.110   .     S
C59    C62     1.534   .     S
C59    H240    1.110   .     S
H60    C419    1.110   1_545 S
C62    H64     1.109   .     S
C62    H63     1.105   .     S
C62    C605    1.517   .     S
C65    H67     1.110   .     S
C65    H68     1.107   .     S
C65    H66     1.111   .     S
C65    C1142   1.517   1_554 S
O69    C70     1.414   .     S
O69    C185    1.399   .     S
C70    H71     1.111   .     S
C70    H252    1.114   .     S
C70    C253    1.534   .     S
H72    C430    1.114   1_545 S
C73    H75     1.108   .     S
C73    C430    1.534   1_545 S
C73    H434    1.101   1_545 S
C73    C1156   1.520   1_554 S
H74    C253    1.101   .     S
C76    H78     1.111   .     S
C76    H77     1.103   .     S
C76    C613    1.520   .     S
C76    H439    1.107   1_545 S
H79    C256    1.107   .     S
O80    C81     1.408   .     S
O80    C366    1.392   1_545 S
C81    H82     1.105   .     S
C81    C84     1.531   .     S
C81    H443    1.105   1_545 S
H83    C261    1.105   .     S
C84    C87     1.527   .     S
C84    H85     1.111   .     S
C84    H626    1.111   .     S
H86    C1164   1.111   1_554 S
C87    H88     1.110   .     S
C87    H89     1.109   .     S
C87    H630    1.110   .     S
H90    C1167   1.110   1_554 S
C91    O121    1.304   .     A
C91    O123    1.295   .     A
C91    C95     1.451   .     S
C92    O122    1.301   .     A
C92    C96     1.438   .     S
C92    O124    1.292   .     A
C93    C110    1.414   .     A
C93    O137    1.383   .     S
C94    C109    1.401   .     A
C94    O148    1.385   .     S
C94    C22     1.390   1_655 S
C95    C456    1.350   1_545 S
C95    O519    1.399   1_545 S
C96    C275    1.350   .     S
C96    O350    1.392   .     S
C97    C102    1.454   .     S
C97    O127    1.302   .     A
C97    O125    1.299   .     A
C98    O126    1.298   .     A
C98    O128    1.306   .     A
C98    C101    1.454   .     S
C99    O129    1.384   .     S
C99    C109    1.398   .     A
C99    C101    1.399   .     A
C100   C110    1.411   .     A
C100   O131    1.386   .     S
C100   C102    1.409   .     A
C101   C103    1.404   .     A
C102   C104    1.397   .     A
C103   C105    1.418   .     A
C103   O133    1.378   .     S
C104   O135    1.383   .     S
C104   C106    1.415   .     A
C105   C107    1.414   .     A
C105   C111    1.406   .     A
C106   C112    1.409   .     A
C106   C108    1.419   .     A
C107   C109    1.413   .     A
C107   C18     1.415   1_655 S
C108   C110    1.419   .     A
C111   H115    1.080   .     S
C111   C3      1.398   1_655 S
C112   H116    1.079   .     S
Cu113  Cu114   2.712   .     S
Cu113  N120    2.038   .     S
Cu113  O121    1.982   .     S
Cu113  O124    1.970   .     S
Cu113  O125    1.974   .     S
Cu113  O128    1.945   .     S
Cu114  N119    2.038   .     S
Cu114  O127    1.945   .     S
Cu114  O122    1.982   .     S
Cu114  O126    1.974   .     S
Cu114  O123    1.970   .     S
H117   N659    1.027   .     S
H118   N1200   1.029   1_554 S
N119   H1197   1.027   1_554 S
N119   N1200   1.299   1_554 S
N120   N659    1.299   .     S
N120   H658    1.029   .     S
O129   H130    0.988   .     S
O131   H132    0.989   .     S
O133   H134    0.989   .     S
O135   H136    0.984   .     S
O137   C498    1.410   1_545 S
C138   C141    1.528   .     S
C138   H140    1.099   .     S
C138   O317    1.410   .     S
C138   H319    1.115   .     S
H139   C498    1.115   1_545 S
C141   H142    1.109   .     S
C141   H143    1.103   .     S
C141   C144    1.520   .     S
C144   H147    1.111   .     S
C144   H1225   1.106   1_554 S
C144   H1226   1.108   1_554 S
H145   C684    1.106   .     S
H146   C684    1.108   .     S
O148   C149    1.421   .     S
C149   H151    1.110   .     S
C149   C152    1.534   .     S
C149   H330    1.110   .     S
H150   C509    1.110   1_545 S
C152   H154    1.109   .     S
C152   H153    1.105   .     S
C152   C695    1.517   .     S
C155   H157    1.110   .     S
C155   H158    1.107   .     S
C155   H156    1.111   .     S
C155   C1232   1.517   1_554 S
O159   C160    1.414   .     S
O159   C275    1.399   .     S
C160   H161    1.111   .     S
C160   H342    1.114   .     S
C160   C343    1.534   .     S
H162   C520    1.114   1_545 S
C163   H165    1.108   .     S
C163   C520    1.534   1_545 S
C163   H524    1.101   1_545 S
C163   C1246   1.520   1_554 S
H164   C343    1.101   .     S
C166   H168    1.111   .     S
C166   H167    1.103   .     S
C166   C703    1.520   .     S
C166   H529    1.107   1_545 S
H169   C346    1.107   .     S
O170   C171    1.408   .     S
O170   C456    1.392   1_545 S
C171   H172    1.105   .     S
C171   C174    1.531   .     S
C171   H533    1.105   1_545 S
H173   C351    1.105   .     S
C174   C177    1.527   .     S
C174   H175    1.111   .     S
C174   H716    1.111   .     S
H176   C1254   1.111   1_554 S
C177   H178    1.110   .     S
C177   H179    1.109   .     S
C177   H720    1.110   .     S
H180   C1257   1.110   1_554 S
C181   O211    1.304   .     A
C181   O213    1.295   .     A
C181   C185    1.451   .     S
C182   O212    1.301   .     A
C182   C186    1.438   .     S
C182   O214    1.292   .     A
C183   C200    1.414   .     A
C183   O227    1.383   .     S
C183   C291    1.398   1_455 S
C184   C199    1.401   .     A
C184   O238    1.385   .     S
C184   C292    1.390   .     S
C186   C365    1.350   .     S
C186   O440    1.392   .     S
C187   C192    1.454   .     S
C187   O217    1.302   .     A
C187   O215    1.299   .     A
C188   O216    1.298   .     A
C188   O218    1.306   .     A
C188   C191    1.454   .     S
C189   O219    1.384   .     S
C189   C199    1.398   .     A
C189   C191    1.399   .     A
C190   C200    1.411   .     A
C190   O221    1.386   .     S
C190   C192    1.409   .     A
C191   C193    1.404   .     A
C192   C194    1.397   .     A
C193   C195    1.418   .     A
C193   O223    1.378   .     S
C194   O225    1.383   .     S
C194   C196    1.415   .     A
C195   C197    1.414   .     A
C195   C201    1.406   .     A
C196   C202    1.409   .     A
C196   C198    1.419   .     A
C197   C199    1.413   .     A
C197   C288    1.415   .     S
C198   C200    1.419   .     A
C198   C287    1.415   1_455 S
C201   H205    1.080   .     S
C201   C273    1.398   .     S
C202   H206    1.079   .     S
C202   C274    1.390   1_455 S
Cu203  Cu204   2.712   .     S
Cu203  N210    2.038   .     S
Cu203  O211    1.982   .     S
Cu203  O214    1.970   .     S
Cu203  O215    1.974   .     S
Cu203  O218    1.945   .     S
Cu204  N209    2.038   .     S
Cu204  O217    1.945   .     S
Cu204  O212    1.982   .     S
Cu204  O216    1.974   .     S
Cu204  O213    1.970   .     S
H207   N749    1.027   .     S
H208   N1290   1.029   1_554 S
N209   H1287   1.027   1_554 S
N209   N1290   1.299   1_554 S
N210   N749    1.299   .     S
N210   H748    1.029   .     S
O219   H220    0.988   .     S
O221   H222    0.989   .     S
O223   H224    0.989   .     S
O225   H226    0.984   .     S
C228   C231    1.528   .     S
C228   H230    1.099   .     S
C228   O407    1.410   .     S
C228   H409    1.115   .     S
C231   H232    1.109   .     S
C231   H233    1.103   .     S
C231   C234    1.520   .     S
C234   H237    1.111   .     S
C234   H1315   1.106   1_554 S
C234   H1316   1.108   1_554 S
H235   C774    1.106   .     S
H236   C774    1.108   .     S
O238   C239    1.421   .     S
C239   H241    1.110   .     S
C239   C242    1.534   .     S
C239   H420    1.110   .     S
C242   H244    1.109   .     S
C242   H243    1.105   .     S
C242   C785    1.517   .     S
C245   H247    1.110   .     S
C245   H248    1.107   .     S
C245   H246    1.111   .     S
C245   C1322   1.517   1_554 S
O249   C250    1.414   .     S
O249   C365    1.399   .     S
C250   H251    1.111   .     S
C250   H432    1.114   .     S
C250   C433    1.534   .     S
C253   H255    1.108   .     S
C253   C1336   1.520   1_554 S
H254   C433    1.101   .     S
C256   H258    1.111   .     S
C256   H257    1.103   .     S
C256   C793    1.520   .     S
H259   C436    1.107   .     S
O260   C261    1.408   .     S
C261   H262    1.105   .     S
C261   C264    1.531   .     S
H263   C441    1.105   .     S
C264   C267    1.527   .     S
C264   H265    1.111   .     S
C264   H806    1.111   .     S
H266   C1344   1.111   1_554 S
C267   H268    1.110   .     S
C267   H269    1.109   .     S
C267   H810    1.110   .     S
H270   C1347   1.110   1_554 S
C271   O301    1.304   .     A
C271   O303    1.295   .     A
C271   C275    1.451   .     S
C272   O302    1.301   .     A
C272   C276    1.438   .     S
C272   O304    1.292   .     A
C273   C290    1.414   .     A
C273   O317    1.383   .     S
C274   C289    1.401   .     A
C274   O328    1.385   .     S
C274   C202    1.390   1_655 S
C276   C455    1.350   .     S
C276   O530    1.392   .     S
C277   C282    1.454   .     S
C277   O307    1.302   .     A
C277   O305    1.299   .     A
C278   O306    1.298   .     A
C278   O308    1.306   .     A
C278   C281    1.454   .     S
C279   O309    1.384   .     S
C279   C289    1.398   .     A
C279   C281    1.399   .     A
C280   C290    1.411   .     A
C280   O311    1.386   .     S
C280   C282    1.409   .     A
C281   C283    1.404   .     A
C282   C284    1.397   .     A
C283   C285    1.418   .     A
C283   O313    1.378   .     S
C284   O315    1.383   .     S
C284   C286    1.415   .     A
C285   C287    1.414   .     A
C285   C291    1.406   .     A
C286   C292    1.409   .     A
C286   C288    1.419   .     A
C287   C289    1.413   .     A
C287   C198    1.415   1_655 S
C288   C290    1.419   .     A
C291   H295    1.080   .     S
C291   C183    1.398   1_655 S
C292   H296    1.079   .     S
Cu293  Cu294   2.712   .     S
Cu293  N300    2.038   .     S
Cu293  O301    1.982   .     S
Cu293  O304    1.970   .     S
Cu293  O305    1.974   .     S
Cu293  O308    1.945   .     S
Cu294  N299    2.038   .     S
Cu294  O307    1.945   .     S
Cu294  O302    1.982   .     S
Cu294  O306    1.974   .     S
Cu294  O303    1.970   .     S
H297   N839    1.027   .     S
H298   N1380   1.029   1_554 S
N299   H1377   1.027   1_554 S
N299   N1380   1.299   1_554 S
N300   N839    1.299   .     S
N300   H838    1.029   .     S
O309   H310    0.988   .     S
O311   H312    0.989   .     S
O313   H314    0.989   .     S
O315   H316    0.984   .     S
C318   C321    1.528   .     S
C318   H320    1.099   .     S
C318   O497    1.410   .     S
C318   H499    1.115   .     S
C321   H322    1.109   .     S
C321   H323    1.103   .     S
C321   C324    1.520   .     S
C324   H327    1.111   .     S
C324   H1405   1.106   1_554 S
C324   H1406   1.108   1_554 S
H325   C864    1.106   .     S
H326   C864    1.108   .     S
O328   C329    1.421   .     S
C329   H331    1.110   .     S
C329   C332    1.534   .     S
C329   H510    1.110   .     S
C332   H334    1.109   .     S
C332   H333    1.105   .     S
C332   C875    1.517   .     S
C335   H337    1.110   .     S
C335   H338    1.107   .     S
C335   H336    1.111   .     S
C335   C1412   1.517   1_554 S
O339   C340    1.414   .     S
O339   C455    1.399   .     S
C340   H341    1.111   .     S
C340   H522    1.114   .     S
C340   C523    1.534   .     S
C343   H345    1.108   .     S
C343   C1426   1.520   1_554 S
H344   C523    1.101   .     S
C346   H348    1.111   .     S
C346   H347    1.103   .     S
C346   C883    1.520   .     S
H349   C526    1.107   .     S
O350   C351    1.408   .     S
C351   H352    1.105   .     S
C351   C354    1.531   .     S
H353   C531    1.105   .     S
C354   C357    1.527   .     S
C354   H355    1.111   .     S
C354   H896    1.111   .     S
H356   C1434   1.111   1_554 S
C357   H358    1.110   .     S
C357   H359    1.109   .     S
C357   H900    1.110   .     S
H360   C1437   1.110   1_554 S
C361   O391    1.304   .     A
C361   O393    1.295   .     A
C361   C365    1.451   .     S
C362   O392    1.301   .     A
C362   C366    1.438   .     S
C362   O394    1.292   .     A
C363   C380    1.414   .     A
C363   O407    1.383   .     S
C363   C471    1.398   1_455 S
C364   C379    1.401   .     A
C364   O418    1.385   .     S
C364   C472    1.390   .     S
C366   C5      1.350   1_565 S
C366   O80     1.392   1_565 S
C367   C372    1.454   .     S
C367   O397    1.302   .     A
C367   O395    1.299   .     A
C368   O396    1.298   .     A
C368   O398    1.306   .     A
C368   C371    1.454   .     S
C369   O399    1.384   .     S
C369   C379    1.398   .     A
C369   C371    1.399   .     A
C370   C380    1.411   .     A
C370   O401    1.386   .     S
C370   C372    1.409   .     A
C371   C373    1.404   .     A
C372   C374    1.397   .     A
C373   C375    1.418   .     A
C373   O403    1.378   .     S
C374   O405    1.383   .     S
C374   C376    1.415   .     A
C375   C377    1.414   .     A
C375   C381    1.406   .     A
C376   C382    1.409   .     A
C376   C378    1.419   .     A
C377   C379    1.413   .     A
C377   C468    1.415   .     S
C378   C380    1.419   .     A
C378   C467    1.415   1_455 S
C381   H385    1.080   .     S
C381   C453    1.398   .     S
C382   H386    1.079   .     S
C382   C454    1.390   1_455 S
Cu383  Cu384   2.712   .     S
Cu383  N390    2.038   .     S
Cu383  O391    1.982   .     S
Cu383  O394    1.970   .     S
Cu383  O395    1.974   .     S
Cu383  O398    1.945   .     S
Cu384  N389    2.038   .     S
Cu384  O397    1.945   .     S
Cu384  O392    1.982   .     S
Cu384  O396    1.974   .     S
Cu384  O393    1.970   .     S
H387   N929    1.027   .     S
H388   N1470   1.029   1_554 S
N389   H1467   1.027   1_554 S
N389   N1470   1.299   1_554 S
N390   N929    1.299   .     S
N390   H928    1.029   .     S
O399   H400    0.988   .     S
O401   H402    0.989   .     S
O403   H404    0.989   .     S
O405   H406    0.984   .     S
C408   C411    1.528   .     S
C408   H410    1.099   .     S
C408   O47     1.410   1_565 S
C408   H49     1.115   1_565 S
C411   H412    1.109   .     S
C411   H413    1.103   .     S
C411   C414    1.520   .     S
C414   H417    1.111   .     S
C414   H1495   1.106   1_554 S
C414   H1496   1.108   1_554 S
H415   C954    1.106   .     S
H416   C954    1.108   .     S
O418   C419    1.421   .     S
C419   H421    1.110   .     S
C419   C422    1.534   .     S
C419   H60     1.110   1_565 S
C422   H424    1.109   .     S
C422   H423    1.105   .     S
C422   C965    1.517   .     S
C425   H427    1.110   .     S
C425   H428    1.107   .     S
C425   H426    1.111   .     S
C425   C1502   1.517   1_554 S
O429   C430    1.414   .     S
O429   C5      1.399   1_565 S
C430   H431    1.111   .     S
C430   H72     1.114   1_565 S
C430   C73     1.534   1_565 S
C433   H435    1.108   .     S
C433   C1516   1.520   1_554 S
H434   C73     1.101   1_565 S
C436   H438    1.111   .     S
C436   H437    1.103   .     S
C436   C973    1.520   .     S
H439   C76     1.107   1_565 S
O440   C441    1.408   .     S
C441   H442    1.105   .     S
C441   C444    1.531   .     S
H443   C81     1.105   1_565 S
C444   C447    1.527   .     S
C444   H445    1.111   .     S
C444   H986    1.111   .     S
H446   C1524   1.111   1_554 S
C447   H448    1.110   .     S
C447   H449    1.109   .     S
C447   H990    1.110   .     S
H450   C1527   1.110   1_554 S
C451   O481    1.304   .     A
C451   O483    1.295   .     A
C451   C455    1.451   .     S
C452   O482    1.301   .     A
C452   C456    1.438   .     S
C452   O484    1.292   .     A
C453   C470    1.414   .     A
C453   O497    1.383   .     S
C454   C469    1.401   .     A
C454   O508    1.385   .     S
C454   C382    1.390   1_655 S
C456   C95     1.350   1_565 S
C456   O170    1.392   1_565 S
C457   C462    1.454   .     S
C457   O487    1.302   .     A
C457   O485    1.299   .     A
C458   O486    1.298   .     A
C458   O488    1.306   .     A
C458   C461    1.454   .     S
C459   O489    1.384   .     S
C459   C469    1.398   .     A
C459   C461    1.399   .     A
C460   C470    1.411   .     A
C460   O491    1.386   .     S
C460   C462    1.409   .     A
C461   C463    1.404   .     A
C462   C464    1.397   .     A
C463   C465    1.418   .     A
C463   O493    1.378   .     S
C464   O495    1.383   .     S
C464   C466    1.415   .     A
C465   C467    1.414   .     A
C465   C471    1.406   .     A
C466   C472    1.409   .     A
C466   C468    1.419   .     A
C467   C469    1.413   .     A
C467   C378    1.415   1_655 S
C468   C470    1.419   .     A
C471   H475    1.080   .     S
C471   C363    1.398   1_655 S
C472   H476    1.079   .     S
Cu473  Cu474   2.712   .     S
Cu473  N480    2.038   .     S
Cu473  O481    1.982   .     S
Cu473  O484    1.970   .     S
Cu473  O485    1.974   .     S
Cu473  O488    1.945   .     S
Cu474  N479    2.038   .     S
Cu474  O487    1.945   .     S
Cu474  O482    1.982   .     S
Cu474  O486    1.974   .     S
Cu474  O483    1.970   .     S
H477   N1019   1.027   .     S
H478   N1560   1.029   1_554 S
N479   H1557   1.027   1_554 S
N479   N1560   1.299   1_554 S
N480   N1019   1.299   .     S
N480   H1018   1.029   .     S
O489   H490    0.988   .     S
O491   H492    0.989   .     S
O493   H494    0.989   .     S
O495   H496    0.984   .     S
C498   C501    1.528   .     S
C498   H500    1.099   .     S
C498   O137    1.410   1_565 S
C498   H139    1.115   1_565 S
C501   H502    1.109   .     S
C501   H503    1.103   .     S
C501   C504    1.520   .     S
C504   H507    1.111   .     S
C504   H1585   1.106   1_554 S
C504   H1586   1.108   1_554 S
H505   C1044   1.106   .     S
H506   C1044   1.108   .     S
O508   C509    1.421   .     S
C509   H511    1.110   .     S
C509   C512    1.534   .     S
C509   H150    1.110   1_565 S
C512   H514    1.109   .     S
C512   H513    1.105   .     S
C512   C1055   1.517   .     S
C515   H517    1.110   .     S
C515   H518    1.107   .     S
C515   H516    1.111   .     S
C515   C1592   1.517   1_554 S
O519   C520    1.414   .     S
O519   C95     1.399   1_565 S
C520   H521    1.111   .     S
C520   H162    1.114   1_565 S
C520   C163    1.534   1_565 S
C523   H525    1.108   .     S
C523   C1606   1.520   1_554 S
H524   C163    1.101   1_565 S
C526   H528    1.111   .     S
C526   H527    1.103   .     S
C526   C1063   1.520   .     S
H529   C166    1.107   1_565 S
O530   C531    1.408   .     S
C531   H532    1.105   .     S
C531   C534    1.531   .     S
H533   C171    1.105   1_565 S
C534   C537    1.527   .     S
C534   H535    1.111   .     S
C534   H1076   1.111   .     S
H536   C1614   1.111   1_554 S
C537   H538    1.110   .     S
C537   H539    1.109   .     S
C537   H1080   1.110   .     S
H540   C1617   1.110   1_554 S
C541   O571    1.304   .     A
C541   O573    1.295   .     A
C541   C545    1.451   .     S
C542   O572    1.301   .     A
C542   C546    1.438   .     S
C542   O574    1.292   .     A
C543   C560    1.414   .     A
C543   O587    1.383   .     S
C543   C651    1.398   1_455 S
C544   C559    1.401   .     A
C544   O598    1.385   .     S
C544   C652    1.390   .     S
C545   C906    1.350   1_545 S
C545   O969    1.399   1_545 S
C546   C725    1.350   .     S
C546   O800    1.392   .     S
C547   C552    1.454   .     S
C547   O577    1.302   .     A
C547   O575    1.299   .     A
C548   O576    1.298   .     A
C548   O578    1.306   .     A
C548   C551    1.454   .     S
C549   O579    1.384   .     S
C549   C559    1.398   .     A
C549   C551    1.399   .     A
C550   C560    1.411   .     A
C550   O581    1.386   .     S
C550   C552    1.409   .     A
C551   C553    1.404   .     A
C552   C554    1.397   .     A
C553   C555    1.418   .     A
C553   O583    1.378   .     S
C554   O585    1.383   .     S
C554   C556    1.415   .     A
C555   C557    1.414   .     A
C555   C561    1.406   .     A
C556   C562    1.409   .     A
C556   C558    1.419   .     A
C557   C559    1.413   .     A
C557   C648    1.415   .     S
C558   C560    1.419   .     A
C558   C647    1.415   1_455 S
C561   H565    1.080   .     S
C561   C633    1.398   .     S
C562   H566    1.079   .     S
C562   C634    1.390   1_455 S
Cu563  Cu564   2.712   .     S
Cu563  N570    2.038   .     S
Cu563  O571    1.982   .     S
Cu563  O574    1.970   .     S
Cu563  O575    1.974   .     S
Cu563  O578    1.945   .     S
Cu564  N569    2.038   .     S
Cu564  O577    1.945   .     S
Cu564  O572    1.982   .     S
Cu564  O576    1.974   .     S
Cu564  O573    1.970   .     S
H567   N1109   1.027   .     S
N570   N1109   1.299   .     S
N570   H1108   1.029   .     S
O579   H580    0.988   .     S
O581   H582    0.989   .     S
O583   H584    0.989   .     S
O585   H586    0.984   .     S
O587   C948    1.410   1_545 S
C588   C591    1.528   .     S
C588   H590    1.099   .     S
C588   O767    1.410   .     S
C588   H769    1.115   .     S
H589   C948    1.115   1_545 S
C591   H592    1.109   .     S
C591   H593    1.103   .     S
C591   C594    1.520   .     S
C594   H597    1.111   .     S
H595   C1134   1.106   .     S
H596   C1134   1.108   .     S
O598   C599    1.421   .     S
C599   H601    1.110   .     S
C599   C602    1.534   .     S
C599   H780    1.110   .     S
H600   C959    1.110   1_545 S
C602   H604    1.109   .     S
C602   H603    1.105   .     S
C602   C1145   1.517   .     S
C605   H607    1.110   .     S
C605   H608    1.107   .     S
C605   H606    1.111   .     S
O609   C610    1.414   .     S
O609   C725    1.399   .     S
C610   H611    1.111   .     S
C610   H792    1.114   .     S
C610   C793    1.534   .     S
H612   C970    1.114   1_545 S
C613   H615    1.108   .     S
C613   C970    1.534   1_545 S
C613   H974    1.101   1_545 S
H614   C793    1.101   .     S
C616   H618    1.111   .     S
C616   H617    1.103   .     S
C616   C1153   1.520   .     S
C616   H979    1.107   1_545 S
H619   C796    1.107   .     S
O620   C621    1.408   .     S
O620   C906    1.392   1_545 S
C621   H622    1.105   .     S
C621   C624    1.531   .     S
C621   H983    1.105   1_545 S
H623   C801    1.105   .     S
C624   C627    1.527   .     S
C624   H625    1.111   .     S
C624   H1166   1.111   .     S
C627   H628    1.110   .     S
C627   H629    1.109   .     S
C627   H1170   1.110   .     S
C631   O661    1.304   .     A
C631   O663    1.295   .     A
C631   C635    1.451   .     S
C632   O662    1.301   .     A
C632   C636    1.438   .     S
C632   O664    1.292   .     A
C633   C650    1.414   .     A
C633   O677    1.383   .     S
C634   C649    1.401   .     A
C634   O688    1.385   .     S
C634   C562    1.390   1_655 S
C635   C996    1.350   1_545 S
C635   O1059   1.399   1_545 S
C636   C815    1.350   .     S
C636   O890    1.392   .     S
C637   C642    1.454   .     S
C637   O667    1.302   .     A
C637   O665    1.299   .     A
C638   O666    1.298   .     A
C638   O668    1.306   .     A
C638   C641    1.454   .     S
C639   O669    1.384   .     S
C639   C649    1.398   .     A
C639   C641    1.399   .     A
C640   C650    1.411   .     A
C640   O671    1.386   .     S
C640   C642    1.409   .     A
C641   C643    1.404   .     A
C642   C644    1.397   .     A
C643   C645    1.418   .     A
C643   O673    1.378   .     S
C644   O675    1.383   .     S
C644   C646    1.415   .     A
C645   C647    1.414   .     A
C645   C651    1.406   .     A
C646   C652    1.409   .     A
C646   C648    1.419   .     A
C647   C649    1.413   .     A
C647   C558    1.415   1_655 S
C648   C650    1.419   .     A
C651   H655    1.080   .     S
C651   C543    1.398   1_655 S
C652   H656    1.079   .     S
Cu653  Cu654   2.712   .     S
Cu653  N660    2.038   .     S
Cu653  O661    1.982   .     S
Cu653  O664    1.970   .     S
Cu653  O665    1.974   .     S
Cu653  O668    1.945   .     S
Cu654  N659    2.038   .     S
Cu654  O667    1.945   .     S
Cu654  O662    1.982   .     S
Cu654  O666    1.974   .     S
Cu654  O663    1.970   .     S
H657   N1199   1.027   .     S
N660   N1199   1.299   .     S
N660   H1198   1.029   .     S
O669   H670    0.988   .     S
O671   H672    0.989   .     S
O673   H674    0.989   .     S
O675   H676    0.984   .     S
O677   C1038   1.410   1_545 S
C678   C681    1.528   .     S
C678   H680    1.099   .     S
C678   O857    1.410   .     S
C678   H859    1.115   .     S
H679   C1038   1.115   1_545 S
C681   H682    1.109   .     S
C681   H683    1.103   .     S
C681   C684    1.520   .     S
C684   H687    1.111   .     S
H685   C1224   1.106   .     S
H686   C1224   1.108   .     S
O688   C689    1.421   .     S
C689   H691    1.110   .     S
C689   C692    1.534   .     S
C689   H870    1.110   .     S
H690   C1049   1.110   1_545 S
C692   H694    1.109   .     S
C692   H693    1.105   .     S
C692   C1235   1.517   .     S
C695   H697    1.110   .     S
C695   H698    1.107   .     S
C695   H696    1.111   .     S
O699   C700    1.414   .     S
O699   C815    1.399   .     S
C700   H701    1.111   .     S
C700   H882    1.114   .     S
C700   C883    1.534   .     S
H702   C1060   1.114   1_545 S
C703   H705    1.108   .     S
C703   C1060   1.534   1_545 S
C703   H1064   1.101   1_545 S
H704   C883    1.101   .     S
C706   H708    1.111   .     S
C706   H707    1.103   .     S
C706   C1243   1.520   .     S
C706   H1069   1.107   1_545 S
H709   C886    1.107   .     S
O710   C711    1.408   .     S
O710   C996    1.392   1_545 S
C711   H712    1.105   .     S
C711   C714    1.531   .     S
C711   H1073   1.105   1_545 S
H713   C891    1.105   .     S
C714   C717    1.527   .     S
C714   H715    1.111   .     S
C714   H1256   1.111   .     S
C717   H718    1.110   .     S
C717   H719    1.109   .     S
C717   H1260   1.110   .     S
C721   O751    1.304   .     A
C721   O753    1.295   .     A
C721   C725    1.451   .     S
C722   O752    1.301   .     A
C722   C726    1.438   .     S
C722   O754    1.292   .     A
C723   C740    1.414   .     A
C723   O767    1.383   .     S
C723   C831    1.398   1_455 S
C724   C739    1.401   .     A
C724   O778    1.385   .     S
C724   C832    1.390   .     S
C726   C905    1.350   .     S
C726   O980    1.392   .     S
C727   C732    1.454   .     S
C727   O757    1.302   .     A
C727   O755    1.299   .     A
C728   O756    1.298   .     A
C728   O758    1.306   .     A
C728   C731    1.454   .     S
C729   O759    1.384   .     S
C729   C739    1.398   .     A
C729   C731    1.399   .     A
C730   C740    1.411   .     A
C730   O761    1.386   .     S
C730   C732    1.409   .     A
C731   C733    1.404   .     A
C732   C734    1.397   .     A
C733   C735    1.418   .     A
C733   O763    1.378   .     S
C734   O765    1.383   .     S
C734   C736    1.415   .     A
C735   C737    1.414   .     A
C735   C741    1.406   .     A
C736   C742    1.409   .     A
C736   C738    1.419   .     A
C737   C739    1.413   .     A
C737   C828    1.415   .     S
C738   C740    1.419   .     A
C738   C827    1.415   1_455 S
C741   H745    1.080   .     S
C741   C813    1.398   .     S
C742   H746    1.079   .     S
C742   C814    1.390   1_455 S
Cu743  Cu744   2.712   .     S
Cu743  N750    2.038   .     S
Cu743  O751    1.982   .     S
Cu743  O754    1.970   .     S
Cu743  O755    1.974   .     S
Cu743  O758    1.945   .     S
Cu744  N749    2.038   .     S
Cu744  O757    1.945   .     S
Cu744  O752    1.982   .     S
Cu744  O756    1.974   .     S
Cu744  O753    1.970   .     S
H747   N1289   1.027   .     S
N750   N1289   1.299   .     S
N750   H1288   1.029   .     S
O759   H760    0.988   .     S
O761   H762    0.989   .     S
O763   H764    0.989   .     S
O765   H766    0.984   .     S
C768   C771    1.528   .     S
C768   H770    1.099   .     S
C768   O947    1.410   .     S
C768   H949    1.115   .     S
C771   H772    1.109   .     S
C771   H773    1.103   .     S
C771   C774    1.520   .     S
C774   H777    1.111   .     S
H775   C1314   1.106   .     S
H776   C1314   1.108   .     S
O778   C779    1.421   .     S
C779   H781    1.110   .     S
C779   C782    1.534   .     S
C779   H960    1.110   .     S
C782   H784    1.109   .     S
C782   H783    1.105   .     S
C782   C1325   1.517   .     S
C785   H787    1.110   .     S
C785   H788    1.107   .     S
C785   H786    1.111   .     S
O789   C790    1.414   .     S
O789   C905    1.399   .     S
C790   H791    1.111   .     S
C790   H972    1.114   .     S
C790   C973    1.534   .     S
C793   H795    1.108   .     S
H794   C973    1.101   .     S
C796   H798    1.111   .     S
C796   H797    1.103   .     S
C796   C1333   1.520   .     S
H799   C976    1.107   .     S
O800   C801    1.408   .     S
C801   H802    1.105   .     S
C801   C804    1.531   .     S
H803   C981    1.105   .     S
C804   C807    1.527   .     S
C804   H805    1.111   .     S
C804   H1346   1.111   .     S
C807   H808    1.110   .     S
C807   H809    1.109   .     S
C807   H1350   1.110   .     S
C811   O841    1.304   .     A
C811   O843    1.295   .     A
C811   C815    1.451   .     S
C812   O842    1.301   .     A
C812   C816    1.438   .     S
C812   O844    1.292   .     A
C813   C830    1.414   .     A
C813   O857    1.383   .     S
C814   C829    1.401   .     A
C814   O868    1.385   .     S
C814   C742    1.390   1_655 S
C816   C995    1.350   .     S
C816   O1070   1.392   .     S
C817   C822    1.454   .     S
C817   O847    1.302   .     A
C817   O845    1.299   .     A
C818   O846    1.298   .     A
C818   O848    1.306   .     A
C818   C821    1.454   .     S
C819   O849    1.384   .     S
C819   C829    1.398   .     A
C819   C821    1.399   .     A
C820   C830    1.411   .     A
C820   O851    1.386   .     S
C820   C822    1.409   .     A
C821   C823    1.404   .     A
C822   C824    1.397   .     A
C823   C825    1.418   .     A
C823   O853    1.378   .     S
C824   O855    1.383   .     S
C824   C826    1.415   .     A
C825   C827    1.414   .     A
C825   C831    1.406   .     A
C826   C832    1.409   .     A
C826   C828    1.419   .     A
C827   C829    1.413   .     A
C827   C738    1.415   1_655 S
C828   C830    1.419   .     A
C831   H835    1.080   .     S
C831   C723    1.398   1_655 S
C832   H836    1.079   .     S
Cu833  Cu834   2.712   .     S
Cu833  N840    2.038   .     S
Cu833  O841    1.982   .     S
Cu833  O844    1.970   .     S
Cu833  O845    1.974   .     S
Cu833  O848    1.945   .     S
Cu834  N839    2.038   .     S
Cu834  O847    1.945   .     S
Cu834  O842    1.982   .     S
Cu834  O846    1.974   .     S
Cu834  O843    1.970   .     S
H837   N1379   1.027   .     S
N840   N1379   1.299   .     S
N840   H1378   1.029   .     S
O849   H850    0.988   .     S
O851   H852    0.989   .     S
O853   H854    0.989   .     S
O855   H856    0.984   .     S
C858   C861    1.528   .     S
C858   H860    1.099   .     S
C858   O1037   1.410   .     S
C858   H1039   1.115   .     S
C861   H862    1.109   .     S
C861   H863    1.103   .     S
C861   C864    1.520   .     S
C864   H867    1.111   .     S
H865   C1404   1.106   .     S
H866   C1404   1.108   .     S
O868   C869    1.421   .     S
C869   H871    1.110   .     S
C869   C872    1.534   .     S
C869   H1050   1.110   .     S
C872   H874    1.109   .     S
C872   H873    1.105   .     S
C872   C1415   1.517   .     S
C875   H877    1.110   .     S
C875   H878    1.107   .     S
C875   H876    1.111   .     S
O879   C880    1.414   .     S
O879   C995    1.399   .     S
C880   H881    1.111   .     S
C880   H1062   1.114   .     S
C880   C1063   1.534   .     S
C883   H885    1.108   .     S
H884   C1063   1.101   .     S
C886   H888    1.111   .     S
C886   H887    1.103   .     S
C886   C1423   1.520   .     S
H889   C1066   1.107   .     S
O890   C891    1.408   .     S
C891   H892    1.105   .     S
C891   C894    1.531   .     S
H893   C1071   1.105   .     S
C894   C897    1.527   .     S
C894   H895    1.111   .     S
C894   H1436   1.111   .     S
C897   H898    1.110   .     S
C897   H899    1.109   .     S
C897   H1440   1.110   .     S
C901   O931    1.304   .     A
C901   O933    1.295   .     A
C901   C905    1.451   .     S
C902   O932    1.301   .     A
C902   C906    1.438   .     S
C902   O934    1.292   .     A
C903   C920    1.414   .     A
C903   O947    1.383   .     S
C903   C1011   1.398   1_455 S
C904   C919    1.401   .     A
C904   O958    1.385   .     S
C904   C1012   1.390   .     S
C906   C545    1.350   1_565 S
C906   O620    1.392   1_565 S
C907   C912    1.454   .     S
C907   O937    1.302   .     A
C907   O935    1.299   .     A
C908   O936    1.298   .     A
C908   O938    1.306   .     A
C908   C911    1.454   .     S
C909   O939    1.384   .     S
C909   C919    1.398   .     A
C909   C911    1.399   .     A
C910   C920    1.411   .     A
C910   O941    1.386   .     S
C910   C912    1.409   .     A
C911   C913    1.404   .     A
C912   C914    1.397   .     A
C913   C915    1.418   .     A
C913   O943    1.378   .     S
C914   O945    1.383   .     S
C914   C916    1.415   .     A
C915   C917    1.414   .     A
C915   C921    1.406   .     A
C916   C922    1.409   .     A
C916   C918    1.419   .     A
C917   C919    1.413   .     A
C917   C1008   1.415   .     S
C918   C920    1.419   .     A
C918   C1007   1.415   1_455 S
C921   H925    1.080   .     S
C921   C993    1.398   .     S
C922   H926    1.079   .     S
C922   C994    1.390   1_455 S
Cu923  Cu924   2.712   .     S
Cu923  N930    2.038   .     S
Cu923  O931    1.982   .     S
Cu923  O934    1.970   .     S
Cu923  O935    1.974   .     S
Cu923  O938    1.945   .     S
Cu924  N929    2.038   .     S
Cu924  O937    1.945   .     S
Cu924  O932    1.982   .     S
Cu924  O936    1.974   .     S
Cu924  O933    1.970   .     S
H927   N1469   1.027   .     S
N930   N1469   1.299   .     S
N930   H1468   1.029   .     S
O939   H940    0.988   .     S
O941   H942    0.989   .     S
O943   H944    0.989   .     S
O945   H946    0.984   .     S
C948   C951    1.528   .     S
C948   H950    1.099   .     S
C948   O587    1.410   1_565 S
C948   H589    1.115   1_565 S
C951   H952    1.109   .     S
C951   H953    1.103   .     S
C951   C954    1.520   .     S
C954   H957    1.111   .     S
H955   C1494   1.106   .     S
H956   C1494   1.108   .     S
O958   C959    1.421   .     S
C959   H961    1.110   .     S
C959   C962    1.534   .     S
C959   H600    1.110   1_565 S
C962   H964    1.109   .     S
C962   H963    1.105   .     S
C962   C1505   1.517   .     S
C965   H967    1.110   .     S
C965   H968    1.107   .     S
C965   H966    1.111   .     S
O969   C970    1.414   .     S
O969   C545    1.399   1_565 S
C970   H971    1.111   .     S
C970   H612    1.114   1_565 S
C970   C613    1.534   1_565 S
C973   H975    1.108   .     S
H974   C613    1.101   1_565 S
C976   H978    1.111   .     S
C976   H977    1.103   .     S
C976   C1513   1.520   .     S
H979   C616    1.107   1_565 S
O980   C981    1.408   .     S
C981   H982    1.105   .     S
C981   C984    1.531   .     S
H983   C621    1.105   1_565 S
C984   C987    1.527   .     S
C984   H985    1.111   .     S
C984   H1526   1.111   .     S
C987   H988    1.110   .     S
C987   H989    1.109   .     S
C987   H1530   1.110   .     S
C991   O1021   1.304   .     A
C991   O1023   1.295   .     A
C991   C995    1.451   .     S
C992   O1022   1.301   .     A
C992   C996    1.438   .     S
C992   O1024   1.292   .     A
C993   C1010   1.414   .     A
C993   O1037   1.383   .     S
C994   C1009   1.401   .     A
C994   O1048   1.385   .     S
C994   C922    1.390   1_655 S
C996   C635    1.350   1_565 S
C996   O710    1.392   1_565 S
C997   C1002   1.454   .     S
C997   O1027   1.302   .     A
C997   O1025   1.299   .     A
C998   O1026   1.298   .     A
C998   O1028   1.306   .     A
C998   C1001   1.454   .     S
C999   O1029   1.384   .     S
C999   C1009   1.398   .     A
C999   C1001   1.399   .     A
C1000  C1010   1.411   .     A
C1000  O1031   1.386   .     S
C1000  C1002   1.409   .     A
C1001  C1003   1.404   .     A
C1002  C1004   1.397   .     A
C1003  C1005   1.418   .     A
C1003  O1033   1.378   .     S
C1004  O1035   1.383   .     S
C1004  C1006   1.415   .     A
C1005  C1007   1.414   .     A
C1005  C1011   1.406   .     A
C1006  C1012   1.409   .     A
C1006  C1008   1.419   .     A
C1007  C1009   1.413   .     A
C1007  C918    1.415   1_655 S
C1008  C1010   1.419   .     A
C1011  H1015   1.080   .     S
C1011  C903    1.398   1_655 S
C1012  H1016   1.079   .     S
Cu1013 Cu1014  2.712   .     S
Cu1013 N1020   2.038   .     S
Cu1013 O1021   1.982   .     S
Cu1013 O1024   1.970   .     S
Cu1013 O1025   1.974   .     S
Cu1013 O1028   1.945   .     S
Cu1014 N1019   2.038   .     S
Cu1014 O1027   1.945   .     S
Cu1014 O1022   1.982   .     S
Cu1014 O1026   1.974   .     S
Cu1014 O1023   1.970   .     S
H1017  N1559   1.027   .     S
N1020  N1559   1.299   .     S
N1020  H1558   1.029   .     S
O1029  H1030   0.988   .     S
O1031  H1032   0.989   .     S
O1033  H1034   0.989   .     S
O1035  H1036   0.984   .     S
C1038  C1041   1.528   .     S
C1038  H1040   1.099   .     S
C1038  O677    1.410   1_565 S
C1038  H679    1.115   1_565 S
C1041  H1042   1.109   .     S
C1041  H1043   1.103   .     S
C1041  C1044   1.520   .     S
C1044  H1047   1.111   .     S
H1045  C1584   1.106   .     S
H1046  C1584   1.108   .     S
O1048  C1049   1.421   .     S
C1049  H1051   1.110   .     S
C1049  C1052   1.534   .     S
C1049  H690    1.110   1_565 S
C1052  H1054   1.109   .     S
C1052  H1053   1.105   .     S
C1052  C1595   1.517   .     S
C1055  H1057   1.110   .     S
C1055  H1058   1.107   .     S
C1055  H1056   1.111   .     S
O1059  C1060   1.414   .     S
O1059  C635    1.399   1_565 S
C1060  H1061   1.111   .     S
C1060  H702    1.114   1_565 S
C1060  C703    1.534   1_565 S
C1063  H1065   1.108   .     S
H1064  C703    1.101   1_565 S
C1066  H1068   1.111   .     S
C1066  H1067   1.103   .     S
C1066  C1603   1.520   .     S
H1069  C706    1.107   1_565 S
O1070  C1071   1.408   .     S
C1071  H1072   1.105   .     S
C1071  C1074   1.531   .     S
H1073  C711    1.105   1_565 S
C1074  C1077   1.527   .     S
C1074  H1075   1.111   .     S
C1074  H1616   1.111   .     S
C1077  H1078   1.110   .     S
C1077  H1079   1.109   .     S
C1077  H1620   1.110   .     S
C1081  O1111   1.304   .     A
C1081  O1113   1.295   .     A
C1081  C1085   1.451   .     S
C1082  O1112   1.301   .     A
C1082  C1086   1.438   .     S
C1082  O1114   1.292   .     A
C1083  C1100   1.414   .     A
C1083  O1127   1.383   .     S
C1083  C1191   1.398   1_455 S
C1084  C1099   1.401   .     A
C1084  O1138   1.385   .     S
C1084  C1192   1.390   .     S
C1085  C1446   1.350   1_545 S
C1085  O1509   1.399   1_545 S
C1086  C1265   1.350   .     S
C1086  O1340   1.392   .     S
C1087  C1092   1.454   .     S
C1087  O1117   1.302   .     A
C1087  O1115   1.299   .     A
C1088  O1116   1.298   .     A
C1088  O1118   1.306   .     A
C1088  C1091   1.454   .     S
C1089  O1119   1.384   .     S
C1089  C1099   1.398   .     A
C1089  C1091   1.399   .     A
C1090  C1100   1.411   .     A
C1090  O1121   1.386   .     S
C1090  C1092   1.409   .     A
C1091  C1093   1.404   .     A
C1092  C1094   1.397   .     A
C1093  C1095   1.418   .     A
C1093  O1123   1.378   .     S
C1094  O1125   1.383   .     S
C1094  C1096   1.415   .     A
C1095  C1097   1.414   .     A
C1095  C1101   1.406   .     A
C1096  C1102   1.409   .     A
C1096  C1098   1.419   .     A
C1097  C1099   1.413   .     A
C1097  C1188   1.415   .     S
C1098  C1100   1.419   .     A
C1098  C1187   1.415   1_455 S
C1101  H1105   1.080   .     S
C1101  C1173   1.398   .     S
C1102  H1106   1.079   .     S
C1102  C1174   1.390   1_455 S
Cu1103 Cu1104  2.712   .     S
Cu1103 N1110   2.038   .     S
Cu1103 O1111   1.982   .     S
Cu1103 O1114   1.970   .     S
Cu1103 O1115   1.974   .     S
Cu1103 O1118   1.945   .     S
Cu1104 N1109   2.038   .     S
Cu1104 O1117   1.945   .     S
Cu1104 O1112   1.982   .     S
Cu1104 O1116   1.974   .     S
Cu1104 O1113   1.970   .     S
H1107  N29     1.027   1_556 S
N1110  N29     1.299   1_556 S
N1110  H28     1.029   1_556 S
O1119  H1120   0.988   .     S
O1121  H1122   0.989   .     S
O1123  H1124   0.989   .     S
O1125  H1126   0.984   .     S
O1127  C1488   1.410   1_545 S
C1128  C1131   1.528   .     S
C1128  H1130   1.099   .     S
C1128  O1307   1.410   .     S
C1128  H1309   1.115   .     S
H1129  C1488   1.115   1_545 S
C1131  H1132   1.109   .     S
C1131  H1133   1.103   .     S
C1131  C1134   1.520   .     S
C1134  H1137   1.111   .     S
H1135  C54     1.106   1_556 S
H1136  C54     1.108   1_556 S
O1138  C1139   1.421   .     S
C1139  H1141   1.110   .     S
C1139  C1142   1.534   .     S
C1139  H1320   1.110   .     S
H1140  C1499   1.110   1_545 S
C1142  H1144   1.109   .     S
C1142  H1143   1.105   .     S
C1142  C65     1.517   1_556 S
C1145  H1147   1.110   .     S
C1145  H1148   1.107   .     S
C1145  H1146   1.111   .     S
O1149  C1150   1.414   .     S
O1149  C1265   1.399   .     S
C1150  H1151   1.111   .     S
C1150  H1332   1.114   .     S
C1150  C1333   1.534   .     S
H1152  C1510   1.114   1_545 S
C1153  H1155   1.108   .     S
C1153  C1510   1.534   1_545 S
C1153  H1514   1.101   1_545 S
H1154  C1333   1.101   .     S
C1156  H1158   1.111   .     S
C1156  H1157   1.103   .     S
C1156  C73     1.520   1_556 S
C1156  H1519   1.107   1_545 S
H1159  C1336   1.107   .     S
O1160  C1161   1.408   .     S
O1160  C1446   1.392   1_545 S
C1161  H1162   1.105   .     S
C1161  C1164   1.531   .     S
C1161  H1523   1.105   1_545 S
H1163  C1341   1.105   .     S
C1164  C1167   1.527   .     S
C1164  H1165   1.111   .     S
C1164  H86     1.111   1_556 S
C1167  H1168   1.110   .     S
C1167  H1169   1.109   .     S
C1167  H90     1.110   1_556 S
C1171  O1201   1.304   .     A
C1171  O1203   1.295   .     A
C1171  C1175   1.451   .     S
C1172  O1202   1.301   .     A
C1172  C1176   1.438   .     S
C1172  O1204   1.292   .     A
C1173  C1190   1.414   .     A
C1173  O1217   1.383   .     S
C1174  C1189   1.401   .     A
C1174  O1228   1.385   .     S
C1174  C1102   1.390   1_655 S
C1175  C1536   1.350   1_545 S
C1175  O1599   1.399   1_545 S
C1176  C1355   1.350   .     S
C1176  O1430   1.392   .     S
C1177  C1182   1.454   .     S
C1177  O1207   1.302   .     A
C1177  O1205   1.299   .     A
C1178  O1206   1.298   .     A
C1178  O1208   1.306   .     A
C1178  C1181   1.454   .     S
C1179  O1209   1.384   .     S
C1179  C1189   1.398   .     A
C1179  C1181   1.399   .     A
C1180  C1190   1.411   .     A
C1180  O1211   1.386   .     S
C1180  C1182   1.409   .     A
C1181  C1183   1.404   .     A
C1182  C1184   1.397   .     A
C1183  C1185   1.418   .     A
C1183  O1213   1.378   .     S
C1184  O1215   1.383   .     S
C1184  C1186   1.415   .     A
C1185  C1187   1.414   .     A
C1185  C1191   1.406   .     A
C1186  C1192   1.409   .     A
C1186  C1188   1.419   .     A
C1187  C1189   1.413   .     A
C1187  C1098   1.415   1_655 S
C1188  C1190   1.419   .     A
C1191  H1195   1.080   .     S
C1191  C1083   1.398   1_655 S
C1192  H1196   1.079   .     S
Cu1193 Cu1194  2.712   .     S
Cu1193 N1200   2.038   .     S
Cu1193 O1201   1.982   .     S
Cu1193 O1204   1.970   .     S
Cu1193 O1205   1.974   .     S
Cu1193 O1208   1.945   .     S
Cu1194 N1199   2.038   .     S
Cu1194 O1207   1.945   .     S
Cu1194 O1202   1.982   .     S
Cu1194 O1206   1.974   .     S
Cu1194 O1203   1.970   .     S
H1197  N119    1.027   1_556 S
N1200  N119    1.299   1_556 S
N1200  H118    1.029   1_556 S
O1209  H1210   0.988   .     S
O1211  H1212   0.989   .     S
O1213  H1214   0.989   .     S
O1215  H1216   0.984   .     S
O1217  C1578   1.410   1_545 S
C1218  C1221   1.528   .     S
C1218  H1220   1.099   .     S
C1218  O1397   1.410   .     S
C1218  H1399   1.115   .     S
H1219  C1578   1.115   1_545 S
C1221  H1222   1.109   .     S
C1221  H1223   1.103   .     S
C1221  C1224   1.520   .     S
C1224  H1227   1.111   .     S
H1225  C144    1.106   1_556 S
H1226  C144    1.108   1_556 S
O1228  C1229   1.421   .     S
C1229  H1231   1.110   .     S
C1229  C1232   1.534   .     S
C1229  H1410   1.110   .     S
H1230  C1589   1.110   1_545 S
C1232  H1234   1.109   .     S
C1232  H1233   1.105   .     S
C1232  C155    1.517   1_556 S
C1235  H1237   1.110   .     S
C1235  H1238   1.107   .     S
C1235  H1236   1.111   .     S
O1239  C1240   1.414   .     S
O1239  C1355   1.399   .     S
C1240  H1241   1.111   .     S
C1240  H1422   1.114   .     S
C1240  C1423   1.534   .     S
H1242  C1600   1.114   1_545 S
C1243  H1245   1.108   .     S
C1243  C1600   1.534   1_545 S
C1243  H1604   1.101   1_545 S
H1244  C1423   1.101   .     S
C1246  H1248   1.111   .     S
C1246  H1247   1.103   .     S
C1246  C163    1.520   1_556 S
C1246  H1609   1.107   1_545 S
H1249  C1426   1.107   .     S
O1250  C1251   1.408   .     S
O1250  C1536   1.392   1_545 S
C1251  H1252   1.105   .     S
C1251  C1254   1.531   .     S
C1251  H1613   1.105   1_545 S
H1253  C1431   1.105   .     S
C1254  C1257   1.527   .     S
C1254  H1255   1.111   .     S
C1254  H176    1.111   1_556 S
C1257  H1258   1.110   .     S
C1257  H1259   1.109   .     S
C1257  H180    1.110   1_556 S
C1261  O1291   1.304   .     A
C1261  O1293   1.295   .     A
C1261  C1265   1.451   .     S
C1262  O1292   1.301   .     A
C1262  C1266   1.438   .     S
C1262  O1294   1.292   .     A
C1263  C1280   1.414   .     A
C1263  O1307   1.383   .     S
C1263  C1371   1.398   1_455 S
C1264  C1279   1.401   .     A
C1264  O1318   1.385   .     S
C1264  C1372   1.390   .     S
C1266  C1445   1.350   .     S
C1266  O1520   1.392   .     S
C1267  C1272   1.454   .     S
C1267  O1297   1.302   .     A
C1267  O1295   1.299   .     A
C1268  O1296   1.298   .     A
C1268  O1298   1.306   .     A
C1268  C1271   1.454   .     S
C1269  O1299   1.384   .     S
C1269  C1279   1.398   .     A
C1269  C1271   1.399   .     A
C1270  C1280   1.411   .     A
C1270  O1301   1.386   .     S
C1270  C1272   1.409   .     A
C1271  C1273   1.404   .     A
C1272  C1274   1.397   .     A
C1273  C1275   1.418   .     A
C1273  O1303   1.378   .     S
C1274  O1305   1.383   .     S
C1274  C1276   1.415   .     A
C1275  C1277   1.414   .     A
C1275  C1281   1.406   .     A
C1276  C1282   1.409   .     A
C1276  C1278   1.419   .     A
C1277  C1279   1.413   .     A
C1277  C1368   1.415   .     S
C1278  C1280   1.419   .     A
C1278  C1367   1.415   1_455 S
C1281  H1285   1.080   .     S
C1281  C1353   1.398   .     S
C1282  H1286   1.079   .     S
C1282  C1354   1.390   1_455 S
Cu1283 Cu1284  2.712   .     S
Cu1283 N1290   2.038   .     S
Cu1283 O1291   1.982   .     S
Cu1283 O1294   1.970   .     S
Cu1283 O1295   1.974   .     S
Cu1283 O1298   1.945   .     S
Cu1284 N1289   2.038   .     S
Cu1284 O1297   1.945   .     S
Cu1284 O1292   1.982   .     S
Cu1284 O1296   1.974   .     S
Cu1284 O1293   1.970   .     S
H1287  N209    1.027   1_556 S
N1290  N209    1.299   1_556 S
N1290  H208    1.029   1_556 S
O1299  H1300   0.988   .     S
O1301  H1302   0.989   .     S
O1303  H1304   0.989   .     S
O1305  H1306   0.984   .     S
C1308  C1311   1.528   .     S
C1308  H1310   1.099   .     S
C1308  O1487   1.410   .     S
C1308  H1489   1.115   .     S
C1311  H1312   1.109   .     S
C1311  H1313   1.103   .     S
C1311  C1314   1.520   .     S
C1314  H1317   1.111   .     S
H1315  C234    1.106   1_556 S
H1316  C234    1.108   1_556 S
O1318  C1319   1.421   .     S
C1319  H1321   1.110   .     S
C1319  C1322   1.534   .     S
C1319  H1500   1.110   .     S
C1322  H1324   1.109   .     S
C1322  H1323   1.105   .     S
C1322  C245    1.517   1_556 S
C1325  H1327   1.110   .     S
C1325  H1328   1.107   .     S
C1325  H1326   1.111   .     S
O1329  C1330   1.414   .     S
O1329  C1445   1.399   .     S
C1330  H1331   1.111   .     S
C1330  H1512   1.114   .     S
C1330  C1513   1.534   .     S
C1333  H1335   1.108   .     S
H1334  C1513   1.101   .     S
C1336  H1338   1.111   .     S
C1336  H1337   1.103   .     S
C1336  C253    1.520   1_556 S
H1339  C1516   1.107   .     S
O1340  C1341   1.408   .     S
C1341  H1342   1.105   .     S
C1341  C1344   1.531   .     S
H1343  C1521   1.105   .     S
C1344  C1347   1.527   .     S
C1344  H1345   1.111   .     S
C1344  H266    1.111   1_556 S
C1347  H1348   1.110   .     S
C1347  H1349   1.109   .     S
C1347  H270    1.110   1_556 S
C1351  O1381   1.304   .     A
C1351  O1383   1.295   .     A
C1351  C1355   1.451   .     S
C1352  O1382   1.301   .     A
C1352  C1356   1.438   .     S
C1352  O1384   1.292   .     A
C1353  C1370   1.414   .     A
C1353  O1397   1.383   .     S
C1354  C1369   1.401   .     A
C1354  O1408   1.385   .     S
C1354  C1282   1.390   1_655 S
C1356  C1535   1.350   .     S
C1356  O1610   1.392   .     S
C1357  C1362   1.454   .     S
C1357  O1387   1.302   .     A
C1357  O1385   1.299   .     A
C1358  O1386   1.298   .     A
C1358  O1388   1.306   .     A
C1358  C1361   1.454   .     S
C1359  O1389   1.384   .     S
C1359  C1369   1.398   .     A
C1359  C1361   1.399   .     A
C1360  C1370   1.411   .     A
C1360  O1391   1.386   .     S
C1360  C1362   1.409   .     A
C1361  C1363   1.404   .     A
C1362  C1364   1.397   .     A
C1363  C1365   1.418   .     A
C1363  O1393   1.378   .     S
C1364  O1395   1.383   .     S
C1364  C1366   1.415   .     A
C1365  C1367   1.414   .     A
C1365  C1371   1.406   .     A
C1366  C1372   1.409   .     A
C1366  C1368   1.419   .     A
C1367  C1369   1.413   .     A
C1367  C1278   1.415   1_655 S
C1368  C1370   1.419   .     A
C1371  H1375   1.080   .     S
C1371  C1263   1.398   1_655 S
C1372  H1376   1.079   .     S
Cu1373 Cu1374  2.712   .     S
Cu1373 N1380   2.038   .     S
Cu1373 O1381   1.982   .     S
Cu1373 O1384   1.970   .     S
Cu1373 O1385   1.974   .     S
Cu1373 O1388   1.945   .     S
Cu1374 N1379   2.038   .     S
Cu1374 O1387   1.945   .     S
Cu1374 O1382   1.982   .     S
Cu1374 O1386   1.974   .     S
Cu1374 O1383   1.970   .     S
H1377  N299    1.027   1_556 S
N1380  N299    1.299   1_556 S
N1380  H298    1.029   1_556 S
O1389  H1390   0.988   .     S
O1391  H1392   0.989   .     S
O1393  H1394   0.989   .     S
O1395  H1396   0.984   .     S
C1398  C1401   1.528   .     S
C1398  H1400   1.099   .     S
C1398  O1577   1.410   .     S
C1398  H1579   1.115   .     S
C1401  H1402   1.109   .     S
C1401  H1403   1.103   .     S
C1401  C1404   1.520   .     S
C1404  H1407   1.111   .     S
H1405  C324    1.106   1_556 S
H1406  C324    1.108   1_556 S
O1408  C1409   1.421   .     S
C1409  H1411   1.110   .     S
C1409  C1412   1.534   .     S
C1409  H1590   1.110   .     S
C1412  H1414   1.109   .     S
C1412  H1413   1.105   .     S
C1412  C335    1.517   1_556 S
C1415  H1417   1.110   .     S
C1415  H1418   1.107   .     S
C1415  H1416   1.111   .     S
O1419  C1420   1.414   .     S
O1419  C1535   1.399   .     S
C1420  H1421   1.111   .     S
C1420  H1602   1.114   .     S
C1420  C1603   1.534   .     S
C1423  H1425   1.108   .     S
H1424  C1603   1.101   .     S
C1426  H1428   1.111   .     S
C1426  H1427   1.103   .     S
C1426  C343    1.520   1_556 S
H1429  C1606   1.107   .     S
O1430  C1431   1.408   .     S
C1431  H1432   1.105   .     S
C1431  C1434   1.531   .     S
H1433  C1611   1.105   .     S
C1434  C1437   1.527   .     S
C1434  H1435   1.111   .     S
C1434  H356    1.111   1_556 S
C1437  H1438   1.110   .     S
C1437  H1439   1.109   .     S
C1437  H360    1.110   1_556 S
C1441  O1471   1.304   .     A
C1441  O1473   1.295   .     A
C1441  C1445   1.451   .     S
C1442  O1472   1.301   .     A
C1442  C1446   1.438   .     S
C1442  O1474   1.292   .     A
C1443  C1460   1.414   .     A
C1443  O1487   1.383   .     S
C1443  C1551   1.398   1_455 S
C1444  C1459   1.401   .     A
C1444  O1498   1.385   .     S
C1444  C1552   1.390   .     S
C1446  C1085   1.350   1_565 S
C1446  O1160   1.392   1_565 S
C1447  C1452   1.454   .     S
C1447  O1477   1.302   .     A
C1447  O1475   1.299   .     A
C1448  O1476   1.298   .     A
C1448  O1478   1.306   .     A
C1448  C1451   1.454   .     S
C1449  O1479   1.384   .     S
C1449  C1459   1.398   .     A
C1449  C1451   1.399   .     A
C1450  C1460   1.411   .     A
C1450  O1481   1.386   .     S
C1450  C1452   1.409   .     A
C1451  C1453   1.404   .     A
C1452  C1454   1.397   .     A
C1453  C1455   1.418   .     A
C1453  O1483   1.378   .     S
C1454  O1485   1.383   .     S
C1454  C1456   1.415   .     A
C1455  C1457   1.414   .     A
C1455  C1461   1.406   .     A
C1456  C1462   1.409   .     A
C1456  C1458   1.419   .     A
C1457  C1459   1.413   .     A
C1457  C1548   1.415   .     S
C1458  C1460   1.419   .     A
C1458  C1547   1.415   1_455 S
C1461  H1465   1.080   .     S
C1461  C1533   1.398   .     S
C1462  H1466   1.079   .     S
C1462  C1534   1.390   1_455 S
Cu1463 Cu1464  2.712   .     S
Cu1463 N1470   2.038   .     S
Cu1463 O1471   1.982   .     S
Cu1463 O1474   1.970   .     S
Cu1463 O1475   1.974   .     S
Cu1463 O1478   1.945   .     S
Cu1464 N1469   2.038   .     S
Cu1464 O1477   1.945   .     S
Cu1464 O1472   1.982   .     S
Cu1464 O1476   1.974   .     S
Cu1464 O1473   1.970   .     S
H1467  N389    1.027   1_556 S
N1470  N389    1.299   1_556 S
N1470  H388    1.029   1_556 S
O1479  H1480   0.988   .     S
O1481  H1482   0.989   .     S
O1483  H1484   0.989   .     S
O1485  H1486   0.984   .     S
C1488  C1491   1.528   .     S
C1488  H1490   1.099   .     S
C1488  O1127   1.410   1_565 S
C1488  H1129   1.115   1_565 S
C1491  H1492   1.109   .     S
C1491  H1493   1.103   .     S
C1491  C1494   1.520   .     S
C1494  H1497   1.111   .     S
H1495  C414    1.106   1_556 S
H1496  C414    1.108   1_556 S
O1498  C1499   1.421   .     S
C1499  H1501   1.110   .     S
C1499  C1502   1.534   .     S
C1499  H1140   1.110   1_565 S
C1502  H1504   1.109   .     S
C1502  H1503   1.105   .     S
C1502  C425    1.517   1_556 S
C1505  H1507   1.110   .     S
C1505  H1508   1.107   .     S
C1505  H1506   1.111   .     S
O1509  C1510   1.414   .     S
O1509  C1085   1.399   1_565 S
C1510  H1511   1.111   .     S
C1510  H1152   1.114   1_565 S
C1510  C1153   1.534   1_565 S
C1513  H1515   1.108   .     S
H1514  C1153   1.101   1_565 S
C1516  H1518   1.111   .     S
C1516  H1517   1.103   .     S
C1516  C433    1.520   1_556 S
H1519  C1156   1.107   1_565 S
O1520  C1521   1.408   .     S
C1521  H1522   1.105   .     S
C1521  C1524   1.531   .     S
H1523  C1161   1.105   1_565 S
C1524  C1527   1.527   .     S
C1524  H1525   1.111   .     S
C1524  H446    1.111   1_556 S
C1527  H1528   1.110   .     S
C1527  H1529   1.109   .     S
C1527  H450    1.110   1_556 S
C1531  O1561   1.304   .     A
C1531  O1563   1.295   .     A
C1531  C1535   1.451   .     S
C1532  O1562   1.301   .     A
C1532  C1536   1.438   .     S
C1532  O1564   1.292   .     A
C1533  C1550   1.414   .     A
C1533  O1577   1.383   .     S
C1534  C1549   1.401   .     A
C1534  O1588   1.385   .     S
C1534  C1462   1.390   1_655 S
C1536  C1175   1.350   1_565 S
C1536  O1250   1.392   1_565 S
C1537  C1542   1.454   .     S
C1537  O1567   1.302   .     A
C1537  O1565   1.299   .     A
C1538  O1566   1.298   .     A
C1538  O1568   1.306   .     A
C1538  C1541   1.454   .     S
C1539  O1569   1.384   .     S
C1539  C1549   1.398   .     A
C1539  C1541   1.399   .     A
C1540  C1550   1.411   .     A
C1540  O1571   1.386   .     S
C1540  C1542   1.409   .     A
C1541  C1543   1.404   .     A
C1542  C1544   1.397   .     A
C1543  C1545   1.418   .     A
C1543  O1573   1.378   .     S
C1544  O1575   1.383   .     S
C1544  C1546   1.415   .     A
C1545  C1547   1.414   .     A
C1545  C1551   1.406   .     A
C1546  C1552   1.409   .     A
C1546  C1548   1.419   .     A
C1547  C1549   1.413   .     A
C1547  C1458   1.415   1_655 S
C1548  C1550   1.419   .     A
C1551  H1555   1.080   .     S
C1551  C1443   1.398   1_655 S
C1552  H1556   1.079   .     S
Cu1553 Cu1554  2.712   .     S
Cu1553 N1560   2.038   .     S
Cu1553 O1561   1.982   .     S
Cu1553 O1564   1.970   .     S
Cu1553 O1565   1.974   .     S
Cu1553 O1568   1.945   .     S
Cu1554 N1559   2.038   .     S
Cu1554 O1567   1.945   .     S
Cu1554 O1562   1.982   .     S
Cu1554 O1566   1.974   .     S
Cu1554 O1563   1.970   .     S
H1557  N479    1.027   1_556 S
N1560  N479    1.299   1_556 S
N1560  H478    1.029   1_556 S
O1569  H1570   0.988   .     S
O1571  H1572   0.989   .     S
O1573  H1574   0.989   .     S
O1575  H1576   0.984   .     S
C1578  C1581   1.528   .     S
C1578  H1580   1.099   .     S
C1578  O1217   1.410   1_565 S
C1578  H1219   1.115   1_565 S
C1581  H1582   1.109   .     S
C1581  H1583   1.103   .     S
C1581  C1584   1.520   .     S
C1584  H1587   1.111   .     S
H1585  C504    1.106   1_556 S
H1586  C504    1.108   1_556 S
O1588  C1589   1.421   .     S
C1589  H1591   1.110   .     S
C1589  C1592   1.534   .     S
C1589  H1230   1.110   1_565 S
C1592  H1594   1.109   .     S
C1592  H1593   1.105   .     S
C1592  C515    1.517   1_556 S
C1595  H1597   1.110   .     S
C1595  H1598   1.107   .     S
C1595  H1596   1.111   .     S
O1599  C1600   1.414   .     S
O1599  C1175   1.399   1_565 S
C1600  H1601   1.111   .     S
C1600  H1242   1.114   1_565 S
C1600  C1243   1.534   1_565 S
C1603  H1605   1.108   .     S
H1604  C1243   1.101   1_565 S
C1606  H1608   1.111   .     S
C1606  H1607   1.103   .     S
C1606  C523    1.520   1_556 S
H1609  C1246   1.107   1_565 S
O1610  C1611   1.408   .     S
C1611  H1612   1.105   .     S
C1611  C1614   1.531   .     S
H1613  C1251   1.105   1_565 S
C1614  C1617   1.527   .     S
C1614  H1615   1.111   .     S
C1614  H536    1.111   1_556 S
C1617  H1618   1.110   .     S
C1617  H1619   1.109   .     S
C1617  H540    1.110   1_556 S
