data_str_m2_o1_o5_pcu_sym.82
_audit_creation_date              2020-01-03
_audit_creation_method            'Materials Studio'
_symmetry_space_group_name_H-M    'P1'
_symmetry_Int_Tables_number       1
_symmetry_cell_setting            triclinic
loop_
_symmetry_equiv_pos_as_xyz
  x,y,z
_cell_length_a                    32.9450
_cell_length_b                    28.9970
_cell_length_c                    27.1299
_cell_angle_alpha                 89.9996
_cell_angle_beta                  96.9669
_cell_angle_gamma                 90.0004
loop_
_atom_site_label
_atom_site_type_symbol
_atom_site_fract_x
_atom_site_fract_y
_atom_site_fract_z
_atom_site_U_iso_or_equiv
_atom_site_adp_type
_atom_site_occupancy
C1     C     0.08738   0.16691   0.16567   0.00000  Uiso   1.00
C2     C     0.02144   0.21017   0.16930   0.00000  Uiso   1.00
C3     C     0.29071   0.16808   0.16812   0.00000  Uiso   1.00
C4     C     0.04262   0.16808   0.16521   0.00000  Uiso   1.00
C5     C     0.14058   0.02470   0.13290   0.00000  Uiso   1.00
C6     C     0.19555   0.30870   0.19727   0.00000  Uiso   1.00
C7     C     0.19276   0.02470   0.20043   0.00000  Uiso   1.00
C8     C     0.13778   0.30870   0.13606   0.00000  Uiso   1.00
C9     C     0.01974   0.07410   0.09978   0.00000  Uiso   1.00
C10    C     0.01023   0.02317   0.09823   0.00000  Uiso   1.00
C11    C     0.28118   0.25883   0.10557   0.00000  Uiso   1.00
C12    C     0.24595   0.16691   0.16766   0.00000  Uiso   1.00
C13    C     0.24873   0.29642   0.09644   0.00000  Uiso   1.00
C14    C     0.31360   0.07406   0.23353   0.00000  Uiso   1.00
C15    C     0.32311   0.02313   0.23504   0.00000  Uiso   1.00
C16    C     0.05217   0.25882   0.22778   0.00000  Uiso   1.00
C17    C     0.08462   0.29642   0.23691   0.00000  Uiso   1.00
C18    C     0.12790   0.04540   0.05120   0.00000  Uiso   1.00
C19    C     0.10093   0.07476   0.01374   0.00000  Uiso   1.00
C20    C     0.23210   0.26506   0.26062   0.00000  Uiso   1.00
C21    C     0.27012   0.27652   0.29608   0.00000  Uiso   1.00
C22    C     0.20544   0.04541   0.28213   0.00000  Uiso   1.00
C23    C     0.16675   0.16671   0.07371   0.00000  Uiso   1.00
C24    C     0.23240   0.07477   0.31958   0.00000  Uiso   1.00
C25    C     0.10124   0.26505   0.07271   0.00000  Uiso   1.00
C26    C     0.06322   0.27651   0.03725   0.00000  Uiso   1.00
C27    C     0.16658   0.16671   0.25962   0.00000  Uiso   1.00
C28    C     0.16675   0.16692   0.02191   0.00000  Uiso   1.00
C29    C     0.16659   0.16692   0.31142   0.00000  Uiso   1.00
C30    C     0.02019   0.12701   0.16138   0.00000  Uiso   1.00
C31    C     0.31189   0.21017   0.16405   0.00000  Uiso   1.00
C32    C     0.31314   0.12701   0.17195   0.00000  Uiso   1.00
Cu33   Cu    0.16667   0.21355   0.16667   0.00000  Uiso   1.00
Cu34   Cu    0.16667   0.11978   0.16667   0.00000  Uiso   1.00
H35    H     0.04184   0.08207   0.07362   0.00000  Uiso   1.00
H36    H     0.21805   0.28155   0.09869   0.00000  Uiso   1.00
H37    H     0.29151   0.08201   0.25970   0.00000  Uiso   1.00
H38    H     0.00916   0.09257   0.24761   0.00000  Uiso   1.00
H39    H     0.01317   0.01596   0.21012   0.00000  Uiso   1.00
H40    H     0.00158   0.01266   0.27349   0.00000  Uiso   1.00
H41    H     0.29535   0.00325   0.22172   0.00000  Uiso   1.00
H42    H     0.06459   0.22715   0.24763   0.00000  Uiso   1.00
H43    H     0.02450   0.26967   0.24416   0.00000  Uiso   1.00
H44    H     0.07910   0.32450   0.20914   0.00000  Uiso   1.00
H45    H     0.08444   0.31140   0.27449   0.00000  Uiso   1.00
H46    H     0.32418   0.09261   0.08570   0.00000  Uiso   1.00
H47    H     0.11529   0.28155   0.23466   0.00000  Uiso   1.00
H48    H     0.12706   0.00998   0.03675   0.00000  Uiso   1.00
H49    H     0.16007   0.05683   0.05243   0.00000  Uiso   1.00
H50    H     0.09693   0.10980   0.02884   0.00000  Uiso   1.00
H51    H     0.11489   0.07792   0.31210   0.00000  Uiso   1.00
H52    H     0.07048   0.05847   0.00462   0.00000  Uiso   1.00
H53    H     0.23492   0.22767   0.25403   0.00000  Uiso   1.00
H54    H     0.20420   0.27124   0.27904   0.00000  Uiso   1.00
H55    H     0.27183   0.31377   0.30472   0.00000  Uiso   1.00
H56    H     0.26964   0.25681   0.33100   0.00000  Uiso   1.00
H57    H     0.32016   0.01599   0.12312   0.00000  Uiso   1.00
H58    H     0.29781   0.26616   0.27942   0.00000  Uiso   1.00
H59    H     0.20628   0.00999   0.29659   0.00000  Uiso   1.00
H60    H     0.17327   0.05683   0.28090   0.00000  Uiso   1.00
H61    H     0.23641   0.10981   0.30447   0.00000  Uiso   1.00
H62    H     0.21845   0.07795   0.02122   0.00000  Uiso   1.00
H63    H     0.26285   0.05848   0.32871   0.00000  Uiso   1.00
H64    H     0.09841   0.22767   0.07931   0.00000  Uiso   1.00
H65    H     0.12913   0.27123   0.05429   0.00000  Uiso   1.00
H66    H     0.06151   0.31375   0.02859   0.00000  Uiso   1.00
H67    H     0.06370   0.25678   0.00234   0.00000  Uiso   1.00
H68    H     0.33178   0.01272   0.05976   0.00000  Uiso   1.00
H69    H     0.03553   0.26617   0.05392   0.00000  Uiso   1.00
H70    H     0.03799   0.00329   0.11155   0.00000  Uiso   1.00
H71    H     0.26876   0.22717   0.08571   0.00000  Uiso   1.00
H72    H     0.30885   0.26969   0.08920   0.00000  Uiso   1.00
H73    H     0.25424   0.32451   0.12421   0.00000  Uiso   1.00
H74    H     0.24891   0.31141   0.05886   0.00000  Uiso   1.00
N75    N     0.16667   0.28402   0.16667   0.00000  Uiso   1.00
N76    N     0.16667   0.04931   0.16667   0.00000  Uiso   1.00
O77    O     0.10655   0.20625   0.16666   0.00000  Uiso   1.00
O78    O     0.29126   0.25164   0.15721   0.00000  Uiso   1.00
O79    O     0.29601   0.08611   0.18494   0.00000  Uiso   1.00
O80    O     0.04208   0.25164   0.17614   0.00000  Uiso   1.00
O81    O     0.11385   0.04829   0.09852   0.00000  Uiso   1.00
O82    O     0.23277   0.28856   0.21504   0.00000  Uiso   1.00
O83    O     0.21949   0.04829   0.23481   0.00000  Uiso   1.00
O84    O     0.10056   0.28856   0.11829   0.00000  Uiso   1.00
O85    O     0.22679   0.12709   0.16667   0.00000  Uiso   1.00
O86    O     0.22679   0.20625   0.16667   0.00000  Uiso   1.00
O87    O     0.10655   0.12709   0.16666   0.00000  Uiso   1.00
O88    O     0.16667   0.20625   0.09613   0.00000  Uiso   1.00
O89    O     0.16667   0.12708   0.23720   0.00000  Uiso   1.00
O90    O     0.16667   0.20625   0.23720   0.00000  Uiso   1.00
O91    O     0.16667   0.12708   0.09613   0.00000  Uiso   1.00
O92    O     0.03732   0.08612   0.14837   0.00000  Uiso   1.00
C93    C     0.42072   0.16691   0.16567   0.00000  Uiso   1.00
C94    C     0.35478   0.21017   0.16930   0.00000  Uiso   1.00
C95    C     0.62404   0.16808   0.16812   0.00000  Uiso   1.00
C96    C     0.37596   0.16808   0.16521   0.00000  Uiso   1.00
C97    C     0.47391   0.02470   0.13290   0.00000  Uiso   1.00
C98    C     0.52888   0.30870   0.19727   0.00000  Uiso   1.00
C99    C     0.52609   0.02470   0.20043   0.00000  Uiso   1.00
C100   C     0.47112   0.30870   0.13606   0.00000  Uiso   1.00
C101   C     0.35307   0.07410   0.09978   0.00000  Uiso   1.00
C102   C     0.34356   0.02317   0.09823   0.00000  Uiso   1.00
C103   C     0.61451   0.25883   0.10557   0.00000  Uiso   1.00
C104   C     0.57928   0.16691   0.16766   0.00000  Uiso   1.00
C105   C     0.58206   0.29642   0.09644   0.00000  Uiso   1.00
C106   C     0.64693   0.07406   0.23353   0.00000  Uiso   1.00
C107   C     0.65644   0.02313   0.23504   0.00000  Uiso   1.00
C108   C     0.38550   0.25882   0.22778   0.00000  Uiso   1.00
C109   C     0.41795   0.29642   0.23691   0.00000  Uiso   1.00
C110   C     0.46123   0.04540   0.05120   0.00000  Uiso   1.00
C111   C     0.43427   0.07476   0.01374   0.00000  Uiso   1.00
C112   C     0.56543   0.26506   0.26062   0.00000  Uiso   1.00
C113   C     0.60345   0.27652   0.29608   0.00000  Uiso   1.00
C114   C     0.53878   0.04541   0.28213   0.00000  Uiso   1.00
C115   C     0.50009   0.16671   0.07371   0.00000  Uiso   1.00
C116   C     0.56574   0.07477   0.31958   0.00000  Uiso   1.00
C117   C     0.43457   0.26505   0.07271   0.00000  Uiso   1.00
C118   C     0.39655   0.27651   0.03725   0.00000  Uiso   1.00
C119   C     0.49991   0.16671   0.25962   0.00000  Uiso   1.00
C120   C     0.50008   0.16692   0.02191   0.00000  Uiso   1.00
C121   C     0.49992   0.16692   0.31142   0.00000  Uiso   1.00
C122   C     0.35352   0.12701   0.16138   0.00000  Uiso   1.00
C123   C     0.64523   0.21017   0.16405   0.00000  Uiso   1.00
C124   C     0.64648   0.12701   0.17195   0.00000  Uiso   1.00
Cu125  Cu    0.50000   0.21355   0.16667   0.00000  Uiso   1.00
Cu126  Cu    0.50000   0.11978   0.16667   0.00000  Uiso   1.00
H127   H     0.37517   0.08207   0.07362   0.00000  Uiso   1.00
H128   H     0.55138   0.28155   0.09869   0.00000  Uiso   1.00
H129   H     0.62484   0.08201   0.25970   0.00000  Uiso   1.00
H130   H     0.34249   0.09257   0.24761   0.00000  Uiso   1.00
H131   H     0.34650   0.01596   0.21012   0.00000  Uiso   1.00
H132   H     0.33491   0.01266   0.27349   0.00000  Uiso   1.00
H133   H     0.62868   0.00325   0.22172   0.00000  Uiso   1.00
H134   H     0.39793   0.22715   0.24763   0.00000  Uiso   1.00
H135   H     0.35784   0.26967   0.24416   0.00000  Uiso   1.00
H136   H     0.41243   0.32450   0.20914   0.00000  Uiso   1.00
H137   H     0.41777   0.31140   0.27449   0.00000  Uiso   1.00
H138   H     0.65752   0.09261   0.08570   0.00000  Uiso   1.00
H139   H     0.44863   0.28155   0.23466   0.00000  Uiso   1.00
H140   H     0.46039   0.00998   0.03675   0.00000  Uiso   1.00
H141   H     0.49340   0.05683   0.05243   0.00000  Uiso   1.00
H142   H     0.43026   0.10980   0.02884   0.00000  Uiso   1.00
H143   H     0.44822   0.07792   0.31210   0.00000  Uiso   1.00
H144   H     0.40382   0.05847   0.00462   0.00000  Uiso   1.00
H145   H     0.56825   0.22767   0.25403   0.00000  Uiso   1.00
H146   H     0.53754   0.27124   0.27904   0.00000  Uiso   1.00
H147   H     0.60517   0.31377   0.30472   0.00000  Uiso   1.00
H148   H     0.60297   0.25681   0.33100   0.00000  Uiso   1.00
H149   H     0.65349   0.01599   0.12312   0.00000  Uiso   1.00
H150   H     0.63114   0.26616   0.27942   0.00000  Uiso   1.00
H151   H     0.53962   0.00999   0.29659   0.00000  Uiso   1.00
H152   H     0.50660   0.05683   0.28090   0.00000  Uiso   1.00
H153   H     0.56975   0.10981   0.30447   0.00000  Uiso   1.00
H154   H     0.55178   0.07795   0.02122   0.00000  Uiso   1.00
H155   H     0.59618   0.05848   0.32871   0.00000  Uiso   1.00
H156   H     0.43175   0.22767   0.07931   0.00000  Uiso   1.00
H157   H     0.46247   0.27123   0.05429   0.00000  Uiso   1.00
H158   H     0.39484   0.31375   0.02859   0.00000  Uiso   1.00
H159   H     0.39703   0.25678   0.00234   0.00000  Uiso   1.00
H160   H     0.66511   0.01272   0.05976   0.00000  Uiso   1.00
H161   H     0.36886   0.26617   0.05392   0.00000  Uiso   1.00
H162   H     0.37132   0.00329   0.11155   0.00000  Uiso   1.00
H163   H     0.60210   0.22717   0.08571   0.00000  Uiso   1.00
H164   H     0.64218   0.26969   0.08920   0.00000  Uiso   1.00
H165   H     0.58758   0.32451   0.12421   0.00000  Uiso   1.00
H166   H     0.58224   0.31141   0.05886   0.00000  Uiso   1.00
N167   N     0.50000   0.28402   0.16667   0.00000  Uiso   1.00
N168   N     0.50000   0.04931   0.16667   0.00000  Uiso   1.00
O169   O     0.43988   0.20625   0.16666   0.00000  Uiso   1.00
O170   O     0.62459   0.25164   0.15721   0.00000  Uiso   1.00
O171   O     0.62934   0.08611   0.18494   0.00000  Uiso   1.00
O172   O     0.37541   0.25164   0.17614   0.00000  Uiso   1.00
O173   O     0.44718   0.04829   0.09852   0.00000  Uiso   1.00
O174   O     0.56610   0.28856   0.21504   0.00000  Uiso   1.00
O175   O     0.55282   0.04829   0.23481   0.00000  Uiso   1.00
O176   O     0.43389   0.28856   0.11829   0.00000  Uiso   1.00
O177   O     0.56012   0.12709   0.16667   0.00000  Uiso   1.00
O178   O     0.56012   0.20625   0.16667   0.00000  Uiso   1.00
O179   O     0.43988   0.12709   0.16666   0.00000  Uiso   1.00
O180   O     0.50000   0.20625   0.09613   0.00000  Uiso   1.00
O181   O     0.50000   0.12708   0.23720   0.00000  Uiso   1.00
O182   O     0.50000   0.20625   0.23720   0.00000  Uiso   1.00
O183   O     0.50000   0.12708   0.09613   0.00000  Uiso   1.00
O184   O     0.37066   0.08612   0.14837   0.00000  Uiso   1.00
C185   C     0.75405   0.16691   0.16567   0.00000  Uiso   1.00
C186   C     0.68811   0.21017   0.16930   0.00000  Uiso   1.00
C187   C     0.95738   0.16808   0.16812   0.00000  Uiso   1.00
C188   C     0.70929   0.16808   0.16521   0.00000  Uiso   1.00
C189   C     0.80724   0.02470   0.13290   0.00000  Uiso   1.00
C190   C     0.86222   0.30870   0.19727   0.00000  Uiso   1.00
C191   C     0.85943   0.02470   0.20043   0.00000  Uiso   1.00
C192   C     0.80445   0.30870   0.13606   0.00000  Uiso   1.00
C193   C     0.68641   0.07410   0.09978   0.00000  Uiso   1.00
C194   C     0.67690   0.02317   0.09823   0.00000  Uiso   1.00
C195   C     0.94784   0.25883   0.10557   0.00000  Uiso   1.00
C196   C     0.91262   0.16691   0.16766   0.00000  Uiso   1.00
C197   C     0.91539   0.29642   0.09644   0.00000  Uiso   1.00
C198   C     0.98027   0.07406   0.23353   0.00000  Uiso   1.00
C199   C     0.98978   0.02313   0.23504   0.00000  Uiso   1.00
C200   C     0.71884   0.25882   0.22778   0.00000  Uiso   1.00
C201   C     0.75129   0.29642   0.23691   0.00000  Uiso   1.00
C202   C     0.79456   0.04540   0.05120   0.00000  Uiso   1.00
C203   C     0.76760   0.07476   0.01374   0.00000  Uiso   1.00
C204   C     0.89876   0.26506   0.26062   0.00000  Uiso   1.00
C205   C     0.93679   0.27652   0.29608   0.00000  Uiso   1.00
C206   C     0.87211   0.04541   0.28213   0.00000  Uiso   1.00
C207   C     0.83342   0.16671   0.07371   0.00000  Uiso   1.00
C208   C     0.89907   0.07477   0.31958   0.00000  Uiso   1.00
C209   C     0.76790   0.26505   0.07271   0.00000  Uiso   1.00
C210   C     0.72988   0.27651   0.03725   0.00000  Uiso   1.00
C211   C     0.83325   0.16671   0.25962   0.00000  Uiso   1.00
C212   C     0.83341   0.16692   0.02191   0.00000  Uiso   1.00
C213   C     0.83325   0.16692   0.31142   0.00000  Uiso   1.00
C214   C     0.68686   0.12701   0.16138   0.00000  Uiso   1.00
C215   C     0.97856   0.21017   0.16405   0.00000  Uiso   1.00
C216   C     0.97981   0.12701   0.17195   0.00000  Uiso   1.00
Cu217  Cu    0.83333   0.21355   0.16667   0.00000  Uiso   1.00
Cu218  Cu    0.83333   0.11978   0.16667   0.00000  Uiso   1.00
H219   H     0.70850   0.08207   0.07362   0.00000  Uiso   1.00
H220   H     0.88472   0.28155   0.09869   0.00000  Uiso   1.00
H221   H     0.95818   0.08201   0.25970   0.00000  Uiso   1.00
H222   H     0.67583   0.09257   0.24761   0.00000  Uiso   1.00
H223   H     0.67983   0.01596   0.21012   0.00000  Uiso   1.00
H224   H     0.66824   0.01266   0.27349   0.00000  Uiso   1.00
H225   H     0.96202   0.00325   0.22172   0.00000  Uiso   1.00
H226   H     0.73126   0.22715   0.24763   0.00000  Uiso   1.00
H227   H     0.69117   0.26967   0.24416   0.00000  Uiso   1.00
H228   H     0.74576   0.32450   0.20914   0.00000  Uiso   1.00
H229   H     0.75111   0.31140   0.27449   0.00000  Uiso   1.00
H230   H     0.99085   0.09261   0.08570   0.00000  Uiso   1.00
H231   H     0.78196   0.28155   0.23466   0.00000  Uiso   1.00
H232   H     0.79373   0.00998   0.03675   0.00000  Uiso   1.00
H233   H     0.82674   0.05683   0.05243   0.00000  Uiso   1.00
H234   H     0.76360   0.10980   0.02884   0.00000  Uiso   1.00
H235   H     0.78155   0.07792   0.31210   0.00000  Uiso   1.00
H236   H     0.73715   0.05847   0.00462   0.00000  Uiso   1.00
H237   H     0.90159   0.22767   0.25403   0.00000  Uiso   1.00
H238   H     0.87087   0.27124   0.27904   0.00000  Uiso   1.00
H239   H     0.93850   0.31377   0.30472   0.00000  Uiso   1.00
H240   H     0.93630   0.25681   0.33100   0.00000  Uiso   1.00
H241   H     0.98683   0.01599   0.12312   0.00000  Uiso   1.00
H242   H     0.96447   0.26616   0.27942   0.00000  Uiso   1.00
H243   H     0.87295   0.00999   0.29659   0.00000  Uiso   1.00
H244   H     0.83994   0.05683   0.28090   0.00000  Uiso   1.00
H245   H     0.90308   0.10981   0.30447   0.00000  Uiso   1.00
H246   H     0.88511   0.07795   0.02122   0.00000  Uiso   1.00
H247   H     0.92952   0.05848   0.32871   0.00000  Uiso   1.00
H248   H     0.76508   0.22767   0.07931   0.00000  Uiso   1.00
H249   H     0.79580   0.27123   0.05429   0.00000  Uiso   1.00
H250   H     0.72818   0.31375   0.02859   0.00000  Uiso   1.00
H251   H     0.73036   0.25678   0.00234   0.00000  Uiso   1.00
H252   H     0.99844   0.01272   0.05976   0.00000  Uiso   1.00
H253   H     0.70220   0.26617   0.05392   0.00000  Uiso   1.00
H254   H     0.70465   0.00329   0.11155   0.00000  Uiso   1.00
H255   H     0.93543   0.22717   0.08571   0.00000  Uiso   1.00
H256   H     0.97552   0.26969   0.08920   0.00000  Uiso   1.00
H257   H     0.92091   0.32451   0.12421   0.00000  Uiso   1.00
H258   H     0.91557   0.31141   0.05886   0.00000  Uiso   1.00
N259   N     0.83333   0.28402   0.16667   0.00000  Uiso   1.00
N260   N     0.83333   0.04931   0.16667   0.00000  Uiso   1.00
O261   O     0.77321   0.20625   0.16666   0.00000  Uiso   1.00
O262   O     0.95793   0.25164   0.15721   0.00000  Uiso   1.00
O263   O     0.96267   0.08611   0.18494   0.00000  Uiso   1.00
O264   O     0.70874   0.25164   0.17614   0.00000  Uiso   1.00
O265   O     0.78051   0.04829   0.09852   0.00000  Uiso   1.00
O266   O     0.89944   0.28856   0.21504   0.00000  Uiso   1.00
O267   O     0.88616   0.04829   0.23481   0.00000  Uiso   1.00
O268   O     0.76723   0.28856   0.11829   0.00000  Uiso   1.00
O269   O     0.89345   0.12709   0.16667   0.00000  Uiso   1.00
O270   O     0.89345   0.20625   0.16667   0.00000  Uiso   1.00
O271   O     0.77321   0.12709   0.16666   0.00000  Uiso   1.00
O272   O     0.83333   0.20625   0.09613   0.00000  Uiso   1.00
O273   O     0.83333   0.12708   0.23720   0.00000  Uiso   1.00
O274   O     0.83333   0.20625   0.23720   0.00000  Uiso   1.00
O275   O     0.83333   0.12708   0.09613   0.00000  Uiso   1.00
O276   O     0.70399   0.08612   0.14837   0.00000  Uiso   1.00
C277   C     0.08738   0.50025   0.16567   0.00000  Uiso   1.00
C278   C     0.02144   0.54350   0.16930   0.00000  Uiso   1.00
C279   C     0.29071   0.50142   0.16812   0.00000  Uiso   1.00
C280   C     0.04262   0.50142   0.16521   0.00000  Uiso   1.00
C281   C     0.14058   0.35804   0.13290   0.00000  Uiso   1.00
C282   C     0.19555   0.64203   0.19727   0.00000  Uiso   1.00
C283   C     0.19276   0.35804   0.20043   0.00000  Uiso   1.00
C284   C     0.13778   0.64204   0.13606   0.00000  Uiso   1.00
C285   C     0.01974   0.40743   0.09978   0.00000  Uiso   1.00
C286   C     0.01023   0.35650   0.09823   0.00000  Uiso   1.00
C287   C     0.28118   0.59216   0.10557   0.00000  Uiso   1.00
C288   C     0.24595   0.50025   0.16766   0.00000  Uiso   1.00
C289   C     0.24873   0.62976   0.09644   0.00000  Uiso   1.00
C290   C     0.31360   0.40740   0.23353   0.00000  Uiso   1.00
C291   C     0.32311   0.35646   0.23504   0.00000  Uiso   1.00
C292   C     0.05217   0.59215   0.22778   0.00000  Uiso   1.00
C293   C     0.08462   0.62975   0.23691   0.00000  Uiso   1.00
C294   C     0.12790   0.37874   0.05120   0.00000  Uiso   1.00
C295   C     0.10093   0.40809   0.01374   0.00000  Uiso   1.00
C296   C     0.23210   0.59839   0.26062   0.00000  Uiso   1.00
C297   C     0.27012   0.60985   0.29608   0.00000  Uiso   1.00
C298   C     0.20544   0.37874   0.28213   0.00000  Uiso   1.00
C299   C     0.16675   0.50004   0.07371   0.00000  Uiso   1.00
C300   C     0.23240   0.40811   0.31958   0.00000  Uiso   1.00
C301   C     0.10124   0.59839   0.07271   0.00000  Uiso   1.00
C302   C     0.06322   0.60984   0.03725   0.00000  Uiso   1.00
C303   C     0.16658   0.50004   0.25962   0.00000  Uiso   1.00
C304   C     0.16675   0.50026   0.02191   0.00000  Uiso   1.00
C305   C     0.16659   0.50026   0.31142   0.00000  Uiso   1.00
C306   C     0.02019   0.46035   0.16138   0.00000  Uiso   1.00
C307   C     0.31189   0.54350   0.16405   0.00000  Uiso   1.00
C308   C     0.31314   0.46035   0.17195   0.00000  Uiso   1.00
Cu309  Cu    0.16667   0.54689   0.16667   0.00000  Uiso   1.00
Cu310  Cu    0.16667   0.45311   0.16667   0.00000  Uiso   1.00
H311   H     0.04184   0.41540   0.07362   0.00000  Uiso   1.00
H312   H     0.21805   0.61489   0.09869   0.00000  Uiso   1.00
H313   H     0.29151   0.41534   0.25970   0.00000  Uiso   1.00
H314   H     0.00916   0.42590   0.24761   0.00000  Uiso   1.00
H315   H     0.01317   0.34930   0.21012   0.00000  Uiso   1.00
H316   H     0.00158   0.34600   0.27349   0.00000  Uiso   1.00
H317   H     0.29535   0.33659   0.22172   0.00000  Uiso   1.00
H318   H     0.06459   0.56049   0.24763   0.00000  Uiso   1.00
H319   H     0.02450   0.60300   0.24416   0.00000  Uiso   1.00
H320   H     0.07910   0.65784   0.20914   0.00000  Uiso   1.00
H321   H     0.08444   0.64474   0.27449   0.00000  Uiso   1.00
H322   H     0.32418   0.42594   0.08570   0.00000  Uiso   1.00
H323   H     0.11529   0.61489   0.23466   0.00000  Uiso   1.00
H324   H     0.12706   0.34331   0.03675   0.00000  Uiso   1.00
H325   H     0.16007   0.39016   0.05243   0.00000  Uiso   1.00
H326   H     0.09693   0.44313   0.02884   0.00000  Uiso   1.00
H327   H     0.11489   0.41125   0.31210   0.00000  Uiso   1.00
H328   H     0.07048   0.39180   0.00462   0.00000  Uiso   1.00
H329   H     0.23492   0.56100   0.25403   0.00000  Uiso   1.00
H330   H     0.20420   0.60457   0.27904   0.00000  Uiso   1.00
H331   H     0.27183   0.64710   0.30472   0.00000  Uiso   1.00
H332   H     0.26964   0.59014   0.33100   0.00000  Uiso   1.00
H333   H     0.32016   0.34932   0.12312   0.00000  Uiso   1.00
H334   H     0.29781   0.59950   0.27942   0.00000  Uiso   1.00
H335   H     0.20628   0.34332   0.29659   0.00000  Uiso   1.00
H336   H     0.17327   0.39016   0.28090   0.00000  Uiso   1.00
H337   H     0.23641   0.44314   0.30447   0.00000  Uiso   1.00
H338   H     0.21845   0.41128   0.02122   0.00000  Uiso   1.00
H339   H     0.26285   0.39181   0.32871   0.00000  Uiso   1.00
H340   H     0.09841   0.56100   0.07931   0.00000  Uiso   1.00
H341   H     0.12913   0.60457   0.05429   0.00000  Uiso   1.00
H342   H     0.06151   0.64709   0.02859   0.00000  Uiso   1.00
H343   H     0.06370   0.59012   0.00234   0.00000  Uiso   1.00
H344   H     0.33178   0.34605   0.05976   0.00000  Uiso   1.00
H345   H     0.03553   0.59950   0.05392   0.00000  Uiso   1.00
H346   H     0.03799   0.33662   0.11155   0.00000  Uiso   1.00
H347   H     0.26876   0.56050   0.08571   0.00000  Uiso   1.00
H348   H     0.30885   0.60303   0.08920   0.00000  Uiso   1.00
H349   H     0.25424   0.65784   0.12421   0.00000  Uiso   1.00
H350   H     0.24891   0.64475   0.05886   0.00000  Uiso   1.00
N351   N     0.16667   0.61736   0.16667   0.00000  Uiso   1.00
N352   N     0.16667   0.38264   0.16667   0.00000  Uiso   1.00
O353   O     0.10655   0.53958   0.16666   0.00000  Uiso   1.00
O354   O     0.29126   0.58497   0.15721   0.00000  Uiso   1.00
O355   O     0.29601   0.41945   0.18494   0.00000  Uiso   1.00
O356   O     0.04208   0.58497   0.17614   0.00000  Uiso   1.00
O357   O     0.11385   0.38163   0.09852   0.00000  Uiso   1.00
O358   O     0.23277   0.62189   0.21504   0.00000  Uiso   1.00
O359   O     0.21949   0.38163   0.23481   0.00000  Uiso   1.00
O360   O     0.10056   0.62189   0.11829   0.00000  Uiso   1.00
O361   O     0.22679   0.46042   0.16667   0.00000  Uiso   1.00
O362   O     0.22679   0.53958   0.16667   0.00000  Uiso   1.00
O363   O     0.10655   0.46042   0.16666   0.00000  Uiso   1.00
O364   O     0.16667   0.53959   0.09613   0.00000  Uiso   1.00
O365   O     0.16667   0.46041   0.23720   0.00000  Uiso   1.00
O366   O     0.16667   0.53959   0.23720   0.00000  Uiso   1.00
O367   O     0.16667   0.46041   0.09613   0.00000  Uiso   1.00
O368   O     0.03732   0.41945   0.14837   0.00000  Uiso   1.00
C369   C     0.42072   0.50025   0.16567   0.00000  Uiso   1.00
C370   C     0.35478   0.54350   0.16930   0.00000  Uiso   1.00
C371   C     0.62404   0.50142   0.16812   0.00000  Uiso   1.00
C372   C     0.37596   0.50142   0.16521   0.00000  Uiso   1.00
C373   C     0.47391   0.35804   0.13290   0.00000  Uiso   1.00
C374   C     0.52888   0.64203   0.19727   0.00000  Uiso   1.00
C375   C     0.52609   0.35804   0.20043   0.00000  Uiso   1.00
C376   C     0.47112   0.64204   0.13606   0.00000  Uiso   1.00
C377   C     0.35307   0.40743   0.09978   0.00000  Uiso   1.00
C378   C     0.34356   0.35650   0.09823   0.00000  Uiso   1.00
C379   C     0.61451   0.59216   0.10557   0.00000  Uiso   1.00
C380   C     0.57928   0.50025   0.16766   0.00000  Uiso   1.00
C381   C     0.58206   0.62976   0.09644   0.00000  Uiso   1.00
C382   C     0.64693   0.40740   0.23353   0.00000  Uiso   1.00
C383   C     0.65644   0.35646   0.23504   0.00000  Uiso   1.00
C384   C     0.38550   0.59215   0.22778   0.00000  Uiso   1.00
C385   C     0.41795   0.62975   0.23691   0.00000  Uiso   1.00
C386   C     0.46123   0.37874   0.05120   0.00000  Uiso   1.00
C387   C     0.43427   0.40809   0.01374   0.00000  Uiso   1.00
C388   C     0.56543   0.59839   0.26062   0.00000  Uiso   1.00
C389   C     0.60345   0.60985   0.29608   0.00000  Uiso   1.00
C390   C     0.53878   0.37874   0.28213   0.00000  Uiso   1.00
C391   C     0.50009   0.50004   0.07371   0.00000  Uiso   1.00
C392   C     0.56574   0.40811   0.31958   0.00000  Uiso   1.00
C393   C     0.43457   0.59839   0.07271   0.00000  Uiso   1.00
C394   C     0.39655   0.60984   0.03725   0.00000  Uiso   1.00
C395   C     0.49991   0.50004   0.25962   0.00000  Uiso   1.00
C396   C     0.50008   0.50026   0.02191   0.00000  Uiso   1.00
C397   C     0.49992   0.50026   0.31142   0.00000  Uiso   1.00
C398   C     0.35352   0.46035   0.16138   0.00000  Uiso   1.00
C399   C     0.64523   0.54350   0.16405   0.00000  Uiso   1.00
C400   C     0.64648   0.46035   0.17195   0.00000  Uiso   1.00
Cu401  Cu    0.50000   0.54689   0.16667   0.00000  Uiso   1.00
Cu402  Cu    0.50000   0.45311   0.16667   0.00000  Uiso   1.00
H403   H     0.37517   0.41540   0.07362   0.00000  Uiso   1.00
H404   H     0.55138   0.61489   0.09869   0.00000  Uiso   1.00
H405   H     0.62484   0.41534   0.25970   0.00000  Uiso   1.00
H406   H     0.34249   0.42590   0.24761   0.00000  Uiso   1.00
H407   H     0.34650   0.34930   0.21012   0.00000  Uiso   1.00
H408   H     0.33491   0.34600   0.27349   0.00000  Uiso   1.00
H409   H     0.62868   0.33659   0.22172   0.00000  Uiso   1.00
H410   H     0.39793   0.56049   0.24763   0.00000  Uiso   1.00
H411   H     0.35784   0.60300   0.24416   0.00000  Uiso   1.00
H412   H     0.41243   0.65784   0.20914   0.00000  Uiso   1.00
H413   H     0.41777   0.64474   0.27449   0.00000  Uiso   1.00
H414   H     0.65752   0.42594   0.08570   0.00000  Uiso   1.00
H415   H     0.44863   0.61489   0.23466   0.00000  Uiso   1.00
H416   H     0.46039   0.34331   0.03675   0.00000  Uiso   1.00
H417   H     0.49340   0.39016   0.05243   0.00000  Uiso   1.00
H418   H     0.43026   0.44313   0.02884   0.00000  Uiso   1.00
H419   H     0.44822   0.41125   0.31210   0.00000  Uiso   1.00
H420   H     0.40382   0.39180   0.00462   0.00000  Uiso   1.00
H421   H     0.56825   0.56100   0.25403   0.00000  Uiso   1.00
H422   H     0.53754   0.60457   0.27904   0.00000  Uiso   1.00
H423   H     0.60517   0.64710   0.30472   0.00000  Uiso   1.00
H424   H     0.60297   0.59014   0.33100   0.00000  Uiso   1.00
H425   H     0.65349   0.34932   0.12312   0.00000  Uiso   1.00
H426   H     0.63114   0.59950   0.27942   0.00000  Uiso   1.00
H427   H     0.53962   0.34332   0.29659   0.00000  Uiso   1.00
H428   H     0.50660   0.39016   0.28090   0.00000  Uiso   1.00
H429   H     0.56975   0.44314   0.30447   0.00000  Uiso   1.00
H430   H     0.55178   0.41128   0.02122   0.00000  Uiso   1.00
H431   H     0.59618   0.39181   0.32871   0.00000  Uiso   1.00
H432   H     0.43175   0.56100   0.07931   0.00000  Uiso   1.00
H433   H     0.46247   0.60457   0.05429   0.00000  Uiso   1.00
H434   H     0.39484   0.64709   0.02859   0.00000  Uiso   1.00
H435   H     0.39703   0.59012   0.00234   0.00000  Uiso   1.00
H436   H     0.66511   0.34605   0.05976   0.00000  Uiso   1.00
H437   H     0.36886   0.59950   0.05392   0.00000  Uiso   1.00
H438   H     0.37132   0.33662   0.11155   0.00000  Uiso   1.00
H439   H     0.60210   0.56050   0.08571   0.00000  Uiso   1.00
H440   H     0.64218   0.60303   0.08920   0.00000  Uiso   1.00
H441   H     0.58758   0.65784   0.12421   0.00000  Uiso   1.00
H442   H     0.58224   0.64475   0.05886   0.00000  Uiso   1.00
N443   N     0.50000   0.61736   0.16667   0.00000  Uiso   1.00
N444   N     0.50000   0.38264   0.16667   0.00000  Uiso   1.00
O445   O     0.43988   0.53958   0.16666   0.00000  Uiso   1.00
O446   O     0.62459   0.58497   0.15721   0.00000  Uiso   1.00
O447   O     0.62934   0.41945   0.18494   0.00000  Uiso   1.00
O448   O     0.37541   0.58497   0.17614   0.00000  Uiso   1.00
O449   O     0.44718   0.38163   0.09852   0.00000  Uiso   1.00
O450   O     0.56610   0.62189   0.21504   0.00000  Uiso   1.00
O451   O     0.55282   0.38163   0.23481   0.00000  Uiso   1.00
O452   O     0.43389   0.62189   0.11829   0.00000  Uiso   1.00
O453   O     0.56012   0.46042   0.16667   0.00000  Uiso   1.00
O454   O     0.56012   0.53958   0.16667   0.00000  Uiso   1.00
O455   O     0.43988   0.46042   0.16666   0.00000  Uiso   1.00
O456   O     0.50000   0.53959   0.09613   0.00000  Uiso   1.00
O457   O     0.50000   0.46041   0.23720   0.00000  Uiso   1.00
O458   O     0.50000   0.53959   0.23720   0.00000  Uiso   1.00
O459   O     0.50000   0.46041   0.09613   0.00000  Uiso   1.00
O460   O     0.37066   0.41945   0.14837   0.00000  Uiso   1.00
C461   C     0.75405   0.50025   0.16567   0.00000  Uiso   1.00
C462   C     0.68811   0.54350   0.16930   0.00000  Uiso   1.00
C463   C     0.95738   0.50142   0.16812   0.00000  Uiso   1.00
C464   C     0.70929   0.50142   0.16521   0.00000  Uiso   1.00
C465   C     0.80724   0.35804   0.13290   0.00000  Uiso   1.00
C466   C     0.86222   0.64203   0.19727   0.00000  Uiso   1.00
C467   C     0.85943   0.35804   0.20043   0.00000  Uiso   1.00
C468   C     0.80445   0.64204   0.13606   0.00000  Uiso   1.00
C469   C     0.68641   0.40743   0.09978   0.00000  Uiso   1.00
C470   C     0.67690   0.35650   0.09823   0.00000  Uiso   1.00
C471   C     0.94784   0.59216   0.10557   0.00000  Uiso   1.00
C472   C     0.91262   0.50025   0.16766   0.00000  Uiso   1.00
C473   C     0.91539   0.62976   0.09644   0.00000  Uiso   1.00
C474   C     0.98027   0.40740   0.23353   0.00000  Uiso   1.00
C475   C     0.98978   0.35646   0.23504   0.00000  Uiso   1.00
C476   C     0.71884   0.59215   0.22778   0.00000  Uiso   1.00
C477   C     0.75129   0.62975   0.23691   0.00000  Uiso   1.00
C478   C     0.79456   0.37874   0.05120   0.00000  Uiso   1.00
C479   C     0.76760   0.40809   0.01374   0.00000  Uiso   1.00
C480   C     0.89876   0.59839   0.26062   0.00000  Uiso   1.00
C481   C     0.93679   0.60985   0.29608   0.00000  Uiso   1.00
C482   C     0.87211   0.37874   0.28213   0.00000  Uiso   1.00
C483   C     0.83342   0.50004   0.07371   0.00000  Uiso   1.00
C484   C     0.89907   0.40811   0.31958   0.00000  Uiso   1.00
C485   C     0.76790   0.59839   0.07271   0.00000  Uiso   1.00
C486   C     0.72988   0.60984   0.03725   0.00000  Uiso   1.00
C487   C     0.83325   0.50004   0.25962   0.00000  Uiso   1.00
C488   C     0.83341   0.50026   0.02191   0.00000  Uiso   1.00
C489   C     0.83325   0.50026   0.31142   0.00000  Uiso   1.00
C490   C     0.68686   0.46035   0.16138   0.00000  Uiso   1.00
C491   C     0.97856   0.54350   0.16405   0.00000  Uiso   1.00
C492   C     0.97981   0.46035   0.17195   0.00000  Uiso   1.00
Cu493  Cu    0.83333   0.54689   0.16667   0.00000  Uiso   1.00
Cu494  Cu    0.83333   0.45311   0.16667   0.00000  Uiso   1.00
H495   H     0.70850   0.41540   0.07362   0.00000  Uiso   1.00
H496   H     0.88472   0.61489   0.09869   0.00000  Uiso   1.00
H497   H     0.95818   0.41534   0.25970   0.00000  Uiso   1.00
H498   H     0.67583   0.42590   0.24761   0.00000  Uiso   1.00
H499   H     0.67983   0.34930   0.21012   0.00000  Uiso   1.00
H500   H     0.66824   0.34600   0.27349   0.00000  Uiso   1.00
H501   H     0.96202   0.33659   0.22172   0.00000  Uiso   1.00
H502   H     0.73126   0.56049   0.24763   0.00000  Uiso   1.00
H503   H     0.69117   0.60300   0.24416   0.00000  Uiso   1.00
H504   H     0.74576   0.65784   0.20914   0.00000  Uiso   1.00
H505   H     0.75111   0.64474   0.27449   0.00000  Uiso   1.00
H506   H     0.99085   0.42594   0.08570   0.00000  Uiso   1.00
H507   H     0.78196   0.61489   0.23466   0.00000  Uiso   1.00
H508   H     0.79373   0.34331   0.03675   0.00000  Uiso   1.00
H509   H     0.82674   0.39016   0.05243   0.00000  Uiso   1.00
H510   H     0.76360   0.44313   0.02884   0.00000  Uiso   1.00
H511   H     0.78155   0.41125   0.31210   0.00000  Uiso   1.00
H512   H     0.73715   0.39180   0.00462   0.00000  Uiso   1.00
H513   H     0.90159   0.56100   0.25403   0.00000  Uiso   1.00
H514   H     0.87087   0.60457   0.27904   0.00000  Uiso   1.00
H515   H     0.93850   0.64710   0.30472   0.00000  Uiso   1.00
H516   H     0.93630   0.59014   0.33100   0.00000  Uiso   1.00
H517   H     0.98683   0.34932   0.12312   0.00000  Uiso   1.00
H518   H     0.96447   0.59950   0.27942   0.00000  Uiso   1.00
H519   H     0.87295   0.34332   0.29659   0.00000  Uiso   1.00
H520   H     0.83994   0.39016   0.28090   0.00000  Uiso   1.00
H521   H     0.90308   0.44314   0.30447   0.00000  Uiso   1.00
H522   H     0.88511   0.41128   0.02122   0.00000  Uiso   1.00
H523   H     0.92952   0.39181   0.32871   0.00000  Uiso   1.00
H524   H     0.76508   0.56100   0.07931   0.00000  Uiso   1.00
H525   H     0.79580   0.60457   0.05429   0.00000  Uiso   1.00
H526   H     0.72818   0.64709   0.02859   0.00000  Uiso   1.00
H527   H     0.73036   0.59012   0.00234   0.00000  Uiso   1.00
H528   H     0.99844   0.34605   0.05976   0.00000  Uiso   1.00
H529   H     0.70220   0.59950   0.05392   0.00000  Uiso   1.00
H530   H     0.70465   0.33662   0.11155   0.00000  Uiso   1.00
H531   H     0.93543   0.56050   0.08571   0.00000  Uiso   1.00
H532   H     0.97552   0.60303   0.08920   0.00000  Uiso   1.00
H533   H     0.92091   0.65784   0.12421   0.00000  Uiso   1.00
H534   H     0.91557   0.64475   0.05886   0.00000  Uiso   1.00
N535   N     0.83333   0.61736   0.16667   0.00000  Uiso   1.00
N536   N     0.83333   0.38264   0.16667   0.00000  Uiso   1.00
O537   O     0.77321   0.53958   0.16666   0.00000  Uiso   1.00
O538   O     0.95793   0.58497   0.15721   0.00000  Uiso   1.00
O539   O     0.96267   0.41945   0.18494   0.00000  Uiso   1.00
O540   O     0.70874   0.58497   0.17614   0.00000  Uiso   1.00
O541   O     0.78051   0.38163   0.09852   0.00000  Uiso   1.00
O542   O     0.89944   0.62189   0.21504   0.00000  Uiso   1.00
O543   O     0.88616   0.38163   0.23481   0.00000  Uiso   1.00
O544   O     0.76723   0.62189   0.11829   0.00000  Uiso   1.00
O545   O     0.89345   0.46042   0.16667   0.00000  Uiso   1.00
O546   O     0.89345   0.53958   0.16667   0.00000  Uiso   1.00
O547   O     0.77321   0.46042   0.16666   0.00000  Uiso   1.00
O548   O     0.83333   0.53959   0.09613   0.00000  Uiso   1.00
O549   O     0.83333   0.46041   0.23720   0.00000  Uiso   1.00
O550   O     0.83333   0.53959   0.23720   0.00000  Uiso   1.00
O551   O     0.83333   0.46041   0.09613   0.00000  Uiso   1.00
O552   O     0.70399   0.41945   0.14837   0.00000  Uiso   1.00
C553   C     0.08738   0.83358   0.16567   0.00000  Uiso   1.00
C554   C     0.02144   0.87684   0.16930   0.00000  Uiso   1.00
C555   C     0.29071   0.83475   0.16812   0.00000  Uiso   1.00
C556   C     0.04262   0.83475   0.16521   0.00000  Uiso   1.00
C557   C     0.14058   0.69137   0.13290   0.00000  Uiso   1.00
C558   C     0.19555   0.97537   0.19727   0.00000  Uiso   1.00
C559   C     0.19276   0.69137   0.20043   0.00000  Uiso   1.00
C560   C     0.13778   0.97537   0.13606   0.00000  Uiso   1.00
C561   C     0.01974   0.74077   0.09978   0.00000  Uiso   1.00
C562   C     0.01023   0.68984   0.09823   0.00000  Uiso   1.00
C563   C     0.28118   0.92550   0.10557   0.00000  Uiso   1.00
C564   C     0.24595   0.83358   0.16766   0.00000  Uiso   1.00
C565   C     0.24873   0.96309   0.09644   0.00000  Uiso   1.00
C566   C     0.31360   0.74073   0.23353   0.00000  Uiso   1.00
C567   C     0.32311   0.68980   0.23504   0.00000  Uiso   1.00
C568   C     0.05217   0.92548   0.22778   0.00000  Uiso   1.00
C569   C     0.08462   0.96308   0.23691   0.00000  Uiso   1.00
C570   C     0.12790   0.71207   0.05120   0.00000  Uiso   1.00
C571   C     0.10093   0.74143   0.01374   0.00000  Uiso   1.00
C572   C     0.23210   0.93172   0.26062   0.00000  Uiso   1.00
C573   C     0.27012   0.94319   0.29608   0.00000  Uiso   1.00
C574   C     0.20544   0.71207   0.28213   0.00000  Uiso   1.00
C575   C     0.16675   0.83337   0.07371   0.00000  Uiso   1.00
C576   C     0.23240   0.74144   0.31958   0.00000  Uiso   1.00
C577   C     0.10124   0.93172   0.07271   0.00000  Uiso   1.00
C578   C     0.06322   0.94318   0.03725   0.00000  Uiso   1.00
C579   C     0.16658   0.83337   0.25962   0.00000  Uiso   1.00
C580   C     0.16675   0.83359   0.02191   0.00000  Uiso   1.00
C581   C     0.16659   0.83359   0.31142   0.00000  Uiso   1.00
C582   C     0.02019   0.79368   0.16138   0.00000  Uiso   1.00
C583   C     0.31189   0.87684   0.16405   0.00000  Uiso   1.00
C584   C     0.31314   0.79368   0.17195   0.00000  Uiso   1.00
Cu585  Cu    0.16667   0.88022   0.16667   0.00000  Uiso   1.00
Cu586  Cu    0.16667   0.78645   0.16667   0.00000  Uiso   1.00
H587   H     0.04184   0.74874   0.07362   0.00000  Uiso   1.00
H588   H     0.21805   0.94822   0.09869   0.00000  Uiso   1.00
H589   H     0.29151   0.74868   0.25970   0.00000  Uiso   1.00
H590   H     0.00916   0.75923   0.24761   0.00000  Uiso   1.00
H591   H     0.01317   0.68263   0.21012   0.00000  Uiso   1.00
H592   H     0.00158   0.67933   0.27349   0.00000  Uiso   1.00
H593   H     0.29535   0.66992   0.22172   0.00000  Uiso   1.00
H594   H     0.06459   0.89382   0.24763   0.00000  Uiso   1.00
H595   H     0.02450   0.93634   0.24416   0.00000  Uiso   1.00
H596   H     0.07910   0.99117   0.20914   0.00000  Uiso   1.00
H597   H     0.08444   0.97807   0.27449   0.00000  Uiso   1.00
H598   H     0.32418   0.75928   0.08570   0.00000  Uiso   1.00
H599   H     0.11529   0.94822   0.23466   0.00000  Uiso   1.00
H600   H     0.12706   0.67665   0.03675   0.00000  Uiso   1.00
H601   H     0.16007   0.72349   0.05243   0.00000  Uiso   1.00
H602   H     0.09693   0.77647   0.02884   0.00000  Uiso   1.00
H603   H     0.11489   0.74459   0.31210   0.00000  Uiso   1.00
H604   H     0.07048   0.72513   0.00462   0.00000  Uiso   1.00
H605   H     0.23492   0.89434   0.25403   0.00000  Uiso   1.00
H606   H     0.20420   0.93791   0.27904   0.00000  Uiso   1.00
H607   H     0.27183   0.98043   0.30472   0.00000  Uiso   1.00
H608   H     0.26964   0.92347   0.33100   0.00000  Uiso   1.00
H609   H     0.32016   0.68265   0.12312   0.00000  Uiso   1.00
H610   H     0.29781   0.93283   0.27942   0.00000  Uiso   1.00
H611   H     0.20628   0.67665   0.29659   0.00000  Uiso   1.00
H612   H     0.17327   0.72349   0.28090   0.00000  Uiso   1.00
H613   H     0.23641   0.77647   0.30447   0.00000  Uiso   1.00
H614   H     0.21845   0.74461   0.02122   0.00000  Uiso   1.00
H615   H     0.26285   0.72514   0.32871   0.00000  Uiso   1.00
H616   H     0.09841   0.89433   0.07931   0.00000  Uiso   1.00
H617   H     0.12913   0.93790   0.05429   0.00000  Uiso   1.00
H618   H     0.06151   0.98042   0.02859   0.00000  Uiso   1.00
H619   H     0.06370   0.92345   0.00234   0.00000  Uiso   1.00
H620   H     0.33178   0.67939   0.05976   0.00000  Uiso   1.00
H621   H     0.03553   0.93284   0.05392   0.00000  Uiso   1.00
H622   H     0.03799   0.66995   0.11155   0.00000  Uiso   1.00
H623   H     0.26876   0.89383   0.08571   0.00000  Uiso   1.00
H624   H     0.30885   0.93636   0.08920   0.00000  Uiso   1.00
H625   H     0.25424   0.99118   0.12421   0.00000  Uiso   1.00
H626   H     0.24891   0.97808   0.05886   0.00000  Uiso   1.00
N627   N     0.16667   0.95069   0.16667   0.00000  Uiso   1.00
N628   N     0.16667   0.71598   0.16667   0.00000  Uiso   1.00
O629   O     0.10655   0.87291   0.16666   0.00000  Uiso   1.00
O630   O     0.29126   0.91831   0.15721   0.00000  Uiso   1.00
O631   O     0.29601   0.75278   0.18494   0.00000  Uiso   1.00
O632   O     0.04208   0.91831   0.17614   0.00000  Uiso   1.00
O633   O     0.11385   0.71496   0.09852   0.00000  Uiso   1.00
O634   O     0.23277   0.95522   0.21504   0.00000  Uiso   1.00
O635   O     0.21949   0.71496   0.23481   0.00000  Uiso   1.00
O636   O     0.10056   0.95523   0.11829   0.00000  Uiso   1.00
O637   O     0.22679   0.79375   0.16667   0.00000  Uiso   1.00
O638   O     0.22679   0.87291   0.16667   0.00000  Uiso   1.00
O639   O     0.10655   0.79375   0.16666   0.00000  Uiso   1.00
O640   O     0.16667   0.87292   0.09613   0.00000  Uiso   1.00
O641   O     0.16667   0.79375   0.23720   0.00000  Uiso   1.00
O642   O     0.16667   0.87292   0.23720   0.00000  Uiso   1.00
O643   O     0.16667   0.79375   0.09613   0.00000  Uiso   1.00
O644   O     0.03732   0.75279   0.14837   0.00000  Uiso   1.00
C645   C     0.42072   0.83358   0.16567   0.00000  Uiso   1.00
C646   C     0.35478   0.87684   0.16930   0.00000  Uiso   1.00
C647   C     0.62404   0.83475   0.16812   0.00000  Uiso   1.00
C648   C     0.37596   0.83475   0.16521   0.00000  Uiso   1.00
C649   C     0.47391   0.69137   0.13290   0.00000  Uiso   1.00
C650   C     0.52888   0.97537   0.19727   0.00000  Uiso   1.00
C651   C     0.52609   0.69137   0.20043   0.00000  Uiso   1.00
C652   C     0.47112   0.97537   0.13606   0.00000  Uiso   1.00
C653   C     0.35307   0.74077   0.09978   0.00000  Uiso   1.00
C654   C     0.34356   0.68984   0.09823   0.00000  Uiso   1.00
C655   C     0.61451   0.92550   0.10557   0.00000  Uiso   1.00
C656   C     0.57928   0.83358   0.16766   0.00000  Uiso   1.00
C657   C     0.58206   0.96309   0.09644   0.00000  Uiso   1.00
C658   C     0.64693   0.74073   0.23353   0.00000  Uiso   1.00
C659   C     0.65644   0.68980   0.23504   0.00000  Uiso   1.00
C660   C     0.38550   0.92548   0.22778   0.00000  Uiso   1.00
C661   C     0.41795   0.96308   0.23691   0.00000  Uiso   1.00
C662   C     0.46123   0.71207   0.05120   0.00000  Uiso   1.00
C663   C     0.43427   0.74143   0.01374   0.00000  Uiso   1.00
C664   C     0.56543   0.93172   0.26062   0.00000  Uiso   1.00
C665   C     0.60345   0.94319   0.29608   0.00000  Uiso   1.00
C666   C     0.53878   0.71207   0.28213   0.00000  Uiso   1.00
C667   C     0.50009   0.83337   0.07371   0.00000  Uiso   1.00
C668   C     0.56574   0.74144   0.31958   0.00000  Uiso   1.00
C669   C     0.43457   0.93172   0.07271   0.00000  Uiso   1.00
C670   C     0.39655   0.94318   0.03725   0.00000  Uiso   1.00
C671   C     0.49991   0.83337   0.25962   0.00000  Uiso   1.00
C672   C     0.50008   0.83359   0.02191   0.00000  Uiso   1.00
C673   C     0.49992   0.83359   0.31142   0.00000  Uiso   1.00
C674   C     0.35352   0.79368   0.16138   0.00000  Uiso   1.00
C675   C     0.64523   0.87684   0.16405   0.00000  Uiso   1.00
C676   C     0.64648   0.79368   0.17195   0.00000  Uiso   1.00
Cu677  Cu    0.50000   0.88022   0.16667   0.00000  Uiso   1.00
Cu678  Cu    0.50000   0.78645   0.16667   0.00000  Uiso   1.00
H679   H     0.37517   0.74874   0.07362   0.00000  Uiso   1.00
H680   H     0.55138   0.94822   0.09869   0.00000  Uiso   1.00
H681   H     0.62484   0.74868   0.25970   0.00000  Uiso   1.00
H682   H     0.34249   0.75923   0.24761   0.00000  Uiso   1.00
H683   H     0.34650   0.68263   0.21012   0.00000  Uiso   1.00
H684   H     0.33491   0.67933   0.27349   0.00000  Uiso   1.00
H685   H     0.62868   0.66992   0.22172   0.00000  Uiso   1.00
H686   H     0.39793   0.89382   0.24763   0.00000  Uiso   1.00
H687   H     0.35784   0.93634   0.24416   0.00000  Uiso   1.00
H688   H     0.41243   0.99117   0.20914   0.00000  Uiso   1.00
H689   H     0.41777   0.97807   0.27449   0.00000  Uiso   1.00
H690   H     0.65752   0.75928   0.08570   0.00000  Uiso   1.00
H691   H     0.44863   0.94822   0.23466   0.00000  Uiso   1.00
H692   H     0.46039   0.67665   0.03675   0.00000  Uiso   1.00
H693   H     0.49340   0.72349   0.05243   0.00000  Uiso   1.00
H694   H     0.43026   0.77647   0.02884   0.00000  Uiso   1.00
H695   H     0.44822   0.74459   0.31210   0.00000  Uiso   1.00
H696   H     0.40382   0.72513   0.00462   0.00000  Uiso   1.00
H697   H     0.56825   0.89434   0.25403   0.00000  Uiso   1.00
H698   H     0.53754   0.93791   0.27904   0.00000  Uiso   1.00
H699   H     0.60517   0.98043   0.30472   0.00000  Uiso   1.00
H700   H     0.60297   0.92347   0.33100   0.00000  Uiso   1.00
H701   H     0.65349   0.68265   0.12312   0.00000  Uiso   1.00
H702   H     0.63114   0.93283   0.27942   0.00000  Uiso   1.00
H703   H     0.53962   0.67665   0.29659   0.00000  Uiso   1.00
H704   H     0.50660   0.72349   0.28090   0.00000  Uiso   1.00
H705   H     0.56975   0.77647   0.30447   0.00000  Uiso   1.00
H706   H     0.55178   0.74461   0.02122   0.00000  Uiso   1.00
H707   H     0.59618   0.72514   0.32871   0.00000  Uiso   1.00
H708   H     0.43175   0.89433   0.07931   0.00000  Uiso   1.00
H709   H     0.46247   0.93790   0.05429   0.00000  Uiso   1.00
H710   H     0.39484   0.98042   0.02859   0.00000  Uiso   1.00
H711   H     0.39703   0.92345   0.00234   0.00000  Uiso   1.00
H712   H     0.66511   0.67939   0.05976   0.00000  Uiso   1.00
H713   H     0.36886   0.93284   0.05392   0.00000  Uiso   1.00
H714   H     0.37132   0.66995   0.11155   0.00000  Uiso   1.00
H715   H     0.60210   0.89383   0.08571   0.00000  Uiso   1.00
H716   H     0.64218   0.93636   0.08920   0.00000  Uiso   1.00
H717   H     0.58758   0.99118   0.12421   0.00000  Uiso   1.00
H718   H     0.58224   0.97808   0.05886   0.00000  Uiso   1.00
N719   N     0.50000   0.95069   0.16667   0.00000  Uiso   1.00
N720   N     0.50000   0.71598   0.16667   0.00000  Uiso   1.00
O721   O     0.43988   0.87291   0.16666   0.00000  Uiso   1.00
O722   O     0.62459   0.91831   0.15721   0.00000  Uiso   1.00
O723   O     0.62934   0.75278   0.18494   0.00000  Uiso   1.00
O724   O     0.37541   0.91831   0.17614   0.00000  Uiso   1.00
O725   O     0.44718   0.71496   0.09852   0.00000  Uiso   1.00
O726   O     0.56610   0.95522   0.21504   0.00000  Uiso   1.00
O727   O     0.55282   0.71496   0.23481   0.00000  Uiso   1.00
O728   O     0.43389   0.95523   0.11829   0.00000  Uiso   1.00
O729   O     0.56012   0.79375   0.16667   0.00000  Uiso   1.00
O730   O     0.56012   0.87291   0.16667   0.00000  Uiso   1.00
O731   O     0.43988   0.79375   0.16666   0.00000  Uiso   1.00
O732   O     0.50000   0.87292   0.09613   0.00000  Uiso   1.00
O733   O     0.50000   0.79375   0.23720   0.00000  Uiso   1.00
O734   O     0.50000   0.87292   0.23720   0.00000  Uiso   1.00
O735   O     0.50000   0.79375   0.09613   0.00000  Uiso   1.00
O736   O     0.37066   0.75279   0.14837   0.00000  Uiso   1.00
C737   C     0.75405   0.83358   0.16567   0.00000  Uiso   1.00
C738   C     0.68811   0.87684   0.16930   0.00000  Uiso   1.00
C739   C     0.95738   0.83475   0.16812   0.00000  Uiso   1.00
C740   C     0.70929   0.83475   0.16521   0.00000  Uiso   1.00
C741   C     0.80724   0.69137   0.13290   0.00000  Uiso   1.00
C742   C     0.86222   0.97537   0.19727   0.00000  Uiso   1.00
C743   C     0.85943   0.69137   0.20043   0.00000  Uiso   1.00
C744   C     0.80445   0.97537   0.13606   0.00000  Uiso   1.00
C745   C     0.68641   0.74077   0.09978   0.00000  Uiso   1.00
C746   C     0.67690   0.68984   0.09823   0.00000  Uiso   1.00
C747   C     0.94784   0.92550   0.10557   0.00000  Uiso   1.00
C748   C     0.91262   0.83358   0.16766   0.00000  Uiso   1.00
C749   C     0.91539   0.96309   0.09644   0.00000  Uiso   1.00
C750   C     0.98027   0.74073   0.23353   0.00000  Uiso   1.00
C751   C     0.98978   0.68980   0.23504   0.00000  Uiso   1.00
C752   C     0.71884   0.92548   0.22778   0.00000  Uiso   1.00
C753   C     0.75129   0.96308   0.23691   0.00000  Uiso   1.00
C754   C     0.79456   0.71207   0.05120   0.00000  Uiso   1.00
C755   C     0.76760   0.74143   0.01374   0.00000  Uiso   1.00
C756   C     0.89876   0.93172   0.26062   0.00000  Uiso   1.00
C757   C     0.93679   0.94319   0.29608   0.00000  Uiso   1.00
C758   C     0.87211   0.71207   0.28213   0.00000  Uiso   1.00
C759   C     0.83342   0.83337   0.07371   0.00000  Uiso   1.00
C760   C     0.89907   0.74144   0.31958   0.00000  Uiso   1.00
C761   C     0.76790   0.93172   0.07271   0.00000  Uiso   1.00
C762   C     0.72988   0.94318   0.03725   0.00000  Uiso   1.00
C763   C     0.83325   0.83337   0.25962   0.00000  Uiso   1.00
C764   C     0.83341   0.83359   0.02191   0.00000  Uiso   1.00
C765   C     0.83325   0.83359   0.31142   0.00000  Uiso   1.00
C766   C     0.68686   0.79368   0.16138   0.00000  Uiso   1.00
C767   C     0.97856   0.87684   0.16405   0.00000  Uiso   1.00
C768   C     0.97981   0.79368   0.17195   0.00000  Uiso   1.00
Cu769  Cu    0.83333   0.88022   0.16667   0.00000  Uiso   1.00
Cu770  Cu    0.83333   0.78645   0.16667   0.00000  Uiso   1.00
H771   H     0.70850   0.74874   0.07362   0.00000  Uiso   1.00
H772   H     0.88472   0.94822   0.09869   0.00000  Uiso   1.00
H773   H     0.95818   0.74868   0.25970   0.00000  Uiso   1.00
H774   H     0.67583   0.75923   0.24761   0.00000  Uiso   1.00
H775   H     0.67983   0.68263   0.21012   0.00000  Uiso   1.00
H776   H     0.66824   0.67933   0.27349   0.00000  Uiso   1.00
H777   H     0.96202   0.66992   0.22172   0.00000  Uiso   1.00
H778   H     0.73126   0.89382   0.24763   0.00000  Uiso   1.00
H779   H     0.69117   0.93634   0.24416   0.00000  Uiso   1.00
H780   H     0.74576   0.99117   0.20914   0.00000  Uiso   1.00
H781   H     0.75111   0.97807   0.27449   0.00000  Uiso   1.00
H782   H     0.99085   0.75928   0.08570   0.00000  Uiso   1.00
H783   H     0.78196   0.94822   0.23466   0.00000  Uiso   1.00
H784   H     0.79373   0.67665   0.03675   0.00000  Uiso   1.00
H785   H     0.82674   0.72349   0.05243   0.00000  Uiso   1.00
H786   H     0.76360   0.77647   0.02884   0.00000  Uiso   1.00
H787   H     0.78155   0.74459   0.31210   0.00000  Uiso   1.00
H788   H     0.73715   0.72513   0.00462   0.00000  Uiso   1.00
H789   H     0.90159   0.89434   0.25403   0.00000  Uiso   1.00
H790   H     0.87087   0.93791   0.27904   0.00000  Uiso   1.00
H791   H     0.93850   0.98043   0.30472   0.00000  Uiso   1.00
H792   H     0.93630   0.92347   0.33100   0.00000  Uiso   1.00
H793   H     0.98683   0.68265   0.12312   0.00000  Uiso   1.00
H794   H     0.96447   0.93283   0.27942   0.00000  Uiso   1.00
H795   H     0.87295   0.67665   0.29659   0.00000  Uiso   1.00
H796   H     0.83994   0.72349   0.28090   0.00000  Uiso   1.00
H797   H     0.90308   0.77647   0.30447   0.00000  Uiso   1.00
H798   H     0.88511   0.74461   0.02122   0.00000  Uiso   1.00
H799   H     0.92952   0.72514   0.32871   0.00000  Uiso   1.00
H800   H     0.76508   0.89433   0.07931   0.00000  Uiso   1.00
H801   H     0.79580   0.93790   0.05429   0.00000  Uiso   1.00
H802   H     0.72818   0.98042   0.02859   0.00000  Uiso   1.00
H803   H     0.73036   0.92345   0.00234   0.00000  Uiso   1.00
H804   H     0.99844   0.67939   0.05976   0.00000  Uiso   1.00
H805   H     0.70220   0.93284   0.05392   0.00000  Uiso   1.00
H806   H     0.70465   0.66995   0.11155   0.00000  Uiso   1.00
H807   H     0.93543   0.89383   0.08571   0.00000  Uiso   1.00
H808   H     0.97552   0.93636   0.08920   0.00000  Uiso   1.00
H809   H     0.92091   0.99118   0.12421   0.00000  Uiso   1.00
H810   H     0.91557   0.97808   0.05886   0.00000  Uiso   1.00
N811   N     0.83333   0.95069   0.16667   0.00000  Uiso   1.00
N812   N     0.83333   0.71598   0.16667   0.00000  Uiso   1.00
O813   O     0.77321   0.87291   0.16666   0.00000  Uiso   1.00
O814   O     0.95793   0.91831   0.15721   0.00000  Uiso   1.00
O815   O     0.96267   0.75278   0.18494   0.00000  Uiso   1.00
O816   O     0.70874   0.91831   0.17614   0.00000  Uiso   1.00
O817   O     0.78051   0.71496   0.09852   0.00000  Uiso   1.00
O818   O     0.89944   0.95522   0.21504   0.00000  Uiso   1.00
O819   O     0.88616   0.71496   0.23481   0.00000  Uiso   1.00
O820   O     0.76723   0.95523   0.11829   0.00000  Uiso   1.00
O821   O     0.89345   0.79375   0.16667   0.00000  Uiso   1.00
O822   O     0.89345   0.87291   0.16667   0.00000  Uiso   1.00
O823   O     0.77321   0.79375   0.16666   0.00000  Uiso   1.00
O824   O     0.83333   0.87292   0.09613   0.00000  Uiso   1.00
O825   O     0.83333   0.79375   0.23720   0.00000  Uiso   1.00
O826   O     0.83333   0.87292   0.23720   0.00000  Uiso   1.00
O827   O     0.83333   0.79375   0.09613   0.00000  Uiso   1.00
O828   O     0.70399   0.75279   0.14837   0.00000  Uiso   1.00
C829   C     0.08738   0.16691   0.49900   0.00000  Uiso   1.00
C830   C     0.02144   0.21017   0.50263   0.00000  Uiso   1.00
C831   C     0.29071   0.16808   0.50146   0.00000  Uiso   1.00
C832   C     0.04262   0.16808   0.49855   0.00000  Uiso   1.00
C833   C     0.14058   0.02470   0.46623   0.00000  Uiso   1.00
C834   C     0.19555   0.30870   0.53061   0.00000  Uiso   1.00
C835   C     0.19276   0.02470   0.53377   0.00000  Uiso   1.00
C836   C     0.13778   0.30870   0.46939   0.00000  Uiso   1.00
C837   C     0.01974   0.07410   0.43311   0.00000  Uiso   1.00
C838   C     0.01023   0.02317   0.43156   0.00000  Uiso   1.00
C839   C     0.28118   0.25883   0.43890   0.00000  Uiso   1.00
C840   C     0.24595   0.16691   0.50100   0.00000  Uiso   1.00
C841   C     0.24873   0.29642   0.42977   0.00000  Uiso   1.00
C842   C     0.31360   0.07406   0.56686   0.00000  Uiso   1.00
C843   C     0.32311   0.02313   0.56837   0.00000  Uiso   1.00
C844   C     0.05217   0.25882   0.56111   0.00000  Uiso   1.00
C845   C     0.08462   0.29642   0.57024   0.00000  Uiso   1.00
C846   C     0.12790   0.04540   0.38453   0.00000  Uiso   1.00
C847   C     0.10093   0.07476   0.34708   0.00000  Uiso   1.00
C848   C     0.23210   0.26506   0.59396   0.00000  Uiso   1.00
C849   C     0.27012   0.27652   0.62942   0.00000  Uiso   1.00
C850   C     0.20544   0.04541   0.61547   0.00000  Uiso   1.00
C851   C     0.16675   0.16671   0.40704   0.00000  Uiso   1.00
C852   C     0.23240   0.07477   0.65292   0.00000  Uiso   1.00
C853   C     0.10124   0.26505   0.40605   0.00000  Uiso   1.00
C854   C     0.06322   0.27651   0.37058   0.00000  Uiso   1.00
C855   C     0.16658   0.16671   0.59296   0.00000  Uiso   1.00
C856   C     0.16675   0.16692   0.35524   0.00000  Uiso   1.00
C857   C     0.16659   0.16692   0.64476   0.00000  Uiso   1.00
C858   C     0.02019   0.12701   0.49472   0.00000  Uiso   1.00
C859   C     0.31189   0.21017   0.49738   0.00000  Uiso   1.00
C860   C     0.31314   0.12701   0.50529   0.00000  Uiso   1.00
Cu861  Cu    0.16667   0.21355   0.50000   0.00000  Uiso   1.00
Cu862  Cu    0.16667   0.11978   0.50000   0.00000  Uiso   1.00
H863   H     0.04184   0.08207   0.40695   0.00000  Uiso   1.00
H864   H     0.21805   0.28155   0.43202   0.00000  Uiso   1.00
H865   H     0.29151   0.08201   0.59303   0.00000  Uiso   1.00
H866   H     0.00916   0.09257   0.58094   0.00000  Uiso   1.00
H867   H     0.01317   0.01596   0.54346   0.00000  Uiso   1.00
H868   H     0.00158   0.01266   0.60682   0.00000  Uiso   1.00
H869   H     0.29535   0.00325   0.55505   0.00000  Uiso   1.00
H870   H     0.06459   0.22715   0.58096   0.00000  Uiso   1.00
H871   H     0.02450   0.26967   0.57750   0.00000  Uiso   1.00
H872   H     0.07910   0.32450   0.54248   0.00000  Uiso   1.00
H873   H     0.08444   0.31140   0.60783   0.00000  Uiso   1.00
H874   H     0.32418   0.09261   0.41903   0.00000  Uiso   1.00
H875   H     0.11529   0.28155   0.56799   0.00000  Uiso   1.00
H876   H     0.12706   0.00998   0.37008   0.00000  Uiso   1.00
H877   H     0.16007   0.05683   0.38576   0.00000  Uiso   1.00
H878   H     0.09693   0.10980   0.36218   0.00000  Uiso   1.00
H879   H     0.11489   0.07792   0.64543   0.00000  Uiso   1.00
H880   H     0.07048   0.05847   0.33796   0.00000  Uiso   1.00
H881   H     0.23492   0.22767   0.58736   0.00000  Uiso   1.00
H882   H     0.20420   0.27124   0.61238   0.00000  Uiso   1.00
H883   H     0.27183   0.31377   0.63806   0.00000  Uiso   1.00
H884   H     0.26964   0.25681   0.66434   0.00000  Uiso   1.00
H885   H     0.32016   0.01599   0.45645   0.00000  Uiso   1.00
H886   H     0.29781   0.26616   0.61275   0.00000  Uiso   1.00
H887   H     0.20628   0.00999   0.62992   0.00000  Uiso   1.00
H888   H     0.17327   0.05683   0.61424   0.00000  Uiso   1.00
H889   H     0.23641   0.10981   0.63780   0.00000  Uiso   1.00
H890   H     0.21845   0.07795   0.35455   0.00000  Uiso   1.00
H891   H     0.26285   0.05848   0.66205   0.00000  Uiso   1.00
H892   H     0.09841   0.22767   0.41265   0.00000  Uiso   1.00
H893   H     0.12913   0.27123   0.38763   0.00000  Uiso   1.00
H894   H     0.06151   0.31375   0.36192   0.00000  Uiso   1.00
H895   H     0.06370   0.25678   0.33567   0.00000  Uiso   1.00
H896   H     0.33178   0.01272   0.39309   0.00000  Uiso   1.00
H897   H     0.03553   0.26617   0.38725   0.00000  Uiso   1.00
H898   H     0.03799   0.00329   0.44488   0.00000  Uiso   1.00
H899   H     0.26876   0.22717   0.41904   0.00000  Uiso   1.00
H900   H     0.30885   0.26969   0.42253   0.00000  Uiso   1.00
H901   H     0.25424   0.32451   0.45754   0.00000  Uiso   1.00
H902   H     0.24891   0.31141   0.39219   0.00000  Uiso   1.00
N903   N     0.16667   0.28402   0.50000   0.00000  Uiso   1.00
N904   N     0.16667   0.04931   0.50000   0.00000  Uiso   1.00
O905   O     0.10655   0.20625   0.50000   0.00000  Uiso   1.00
O906   O     0.29126   0.25164   0.49054   0.00000  Uiso   1.00
O907   O     0.29601   0.08611   0.51828   0.00000  Uiso   1.00
O908   O     0.04208   0.25164   0.50948   0.00000  Uiso   1.00
O909   O     0.11385   0.04829   0.43186   0.00000  Uiso   1.00
O910   O     0.23277   0.28856   0.54838   0.00000  Uiso   1.00
O911   O     0.21949   0.04829   0.56814   0.00000  Uiso   1.00
O912   O     0.10056   0.28856   0.45162   0.00000  Uiso   1.00
O913   O     0.22679   0.12709   0.50000   0.00000  Uiso   1.00
O914   O     0.22679   0.20625   0.50000   0.00000  Uiso   1.00
O915   O     0.10655   0.12709   0.50000   0.00000  Uiso   1.00
O916   O     0.16667   0.20625   0.42946   0.00000  Uiso   1.00
O917   O     0.16667   0.12708   0.57054   0.00000  Uiso   1.00
O918   O     0.16667   0.20625   0.57054   0.00000  Uiso   1.00
O919   O     0.16667   0.12708   0.42946   0.00000  Uiso   1.00
O920   O     0.03732   0.08612   0.48171   0.00000  Uiso   1.00
C921   C     0.42072   0.16691   0.49900   0.00000  Uiso   1.00
C922   C     0.35478   0.21017   0.50263   0.00000  Uiso   1.00
C923   C     0.62404   0.16808   0.50146   0.00000  Uiso   1.00
C924   C     0.37596   0.16808   0.49855   0.00000  Uiso   1.00
C925   C     0.47391   0.02470   0.46623   0.00000  Uiso   1.00
C926   C     0.52888   0.30870   0.53061   0.00000  Uiso   1.00
C927   C     0.52609   0.02470   0.53377   0.00000  Uiso   1.00
C928   C     0.47112   0.30870   0.46939   0.00000  Uiso   1.00
C929   C     0.35307   0.07410   0.43311   0.00000  Uiso   1.00
C930   C     0.34356   0.02317   0.43156   0.00000  Uiso   1.00
C931   C     0.61451   0.25883   0.43890   0.00000  Uiso   1.00
C932   C     0.57928   0.16691   0.50100   0.00000  Uiso   1.00
C933   C     0.58206   0.29642   0.42977   0.00000  Uiso   1.00
C934   C     0.64693   0.07406   0.56686   0.00000  Uiso   1.00
C935   C     0.65644   0.02313   0.56837   0.00000  Uiso   1.00
C936   C     0.38550   0.25882   0.56111   0.00000  Uiso   1.00
C937   C     0.41795   0.29642   0.57024   0.00000  Uiso   1.00
C938   C     0.46123   0.04540   0.38453   0.00000  Uiso   1.00
C939   C     0.43427   0.07476   0.34708   0.00000  Uiso   1.00
C940   C     0.56543   0.26506   0.59396   0.00000  Uiso   1.00
C941   C     0.60345   0.27652   0.62942   0.00000  Uiso   1.00
C942   C     0.53878   0.04541   0.61547   0.00000  Uiso   1.00
C943   C     0.50009   0.16671   0.40704   0.00000  Uiso   1.00
C944   C     0.56574   0.07477   0.65292   0.00000  Uiso   1.00
C945   C     0.43457   0.26505   0.40605   0.00000  Uiso   1.00
C946   C     0.39655   0.27651   0.37058   0.00000  Uiso   1.00
C947   C     0.49991   0.16671   0.59296   0.00000  Uiso   1.00
C948   C     0.50008   0.16692   0.35524   0.00000  Uiso   1.00
C949   C     0.49992   0.16692   0.64476   0.00000  Uiso   1.00
C950   C     0.35352   0.12701   0.49472   0.00000  Uiso   1.00
C951   C     0.64523   0.21017   0.49738   0.00000  Uiso   1.00
C952   C     0.64648   0.12701   0.50529   0.00000  Uiso   1.00
Cu953  Cu    0.50000   0.21355   0.50000   0.00000  Uiso   1.00
Cu954  Cu    0.50000   0.11978   0.50000   0.00000  Uiso   1.00
H955   H     0.37517   0.08207   0.40695   0.00000  Uiso   1.00
H956   H     0.55138   0.28155   0.43202   0.00000  Uiso   1.00
H957   H     0.62484   0.08201   0.59303   0.00000  Uiso   1.00
H958   H     0.34249   0.09257   0.58094   0.00000  Uiso   1.00
H959   H     0.34650   0.01596   0.54346   0.00000  Uiso   1.00
H960   H     0.33491   0.01266   0.60682   0.00000  Uiso   1.00
H961   H     0.62868   0.00325   0.55505   0.00000  Uiso   1.00
H962   H     0.39793   0.22715   0.58096   0.00000  Uiso   1.00
H963   H     0.35784   0.26967   0.57750   0.00000  Uiso   1.00
H964   H     0.41243   0.32450   0.54248   0.00000  Uiso   1.00
H965   H     0.41777   0.31140   0.60783   0.00000  Uiso   1.00
H966   H     0.65752   0.09261   0.41903   0.00000  Uiso   1.00
H967   H     0.44863   0.28155   0.56799   0.00000  Uiso   1.00
H968   H     0.46039   0.00998   0.37008   0.00000  Uiso   1.00
H969   H     0.49340   0.05683   0.38576   0.00000  Uiso   1.00
H970   H     0.43026   0.10980   0.36218   0.00000  Uiso   1.00
H971   H     0.44822   0.07792   0.64543   0.00000  Uiso   1.00
H972   H     0.40382   0.05847   0.33796   0.00000  Uiso   1.00
H973   H     0.56825   0.22767   0.58736   0.00000  Uiso   1.00
H974   H     0.53754   0.27124   0.61238   0.00000  Uiso   1.00
H975   H     0.60517   0.31377   0.63806   0.00000  Uiso   1.00
H976   H     0.60297   0.25681   0.66434   0.00000  Uiso   1.00
H977   H     0.65349   0.01599   0.45645   0.00000  Uiso   1.00
H978   H     0.63114   0.26616   0.61275   0.00000  Uiso   1.00
H979   H     0.53962   0.00999   0.62992   0.00000  Uiso   1.00
H980   H     0.50660   0.05683   0.61424   0.00000  Uiso   1.00
H981   H     0.56975   0.10981   0.63780   0.00000  Uiso   1.00
H982   H     0.55178   0.07795   0.35455   0.00000  Uiso   1.00
H983   H     0.59618   0.05848   0.66205   0.00000  Uiso   1.00
H984   H     0.43175   0.22767   0.41265   0.00000  Uiso   1.00
H985   H     0.46247   0.27123   0.38763   0.00000  Uiso   1.00
H986   H     0.39484   0.31375   0.36192   0.00000  Uiso   1.00
H987   H     0.39703   0.25678   0.33567   0.00000  Uiso   1.00
H988   H     0.66511   0.01272   0.39309   0.00000  Uiso   1.00
H989   H     0.36886   0.26617   0.38725   0.00000  Uiso   1.00
H990   H     0.37132   0.00329   0.44488   0.00000  Uiso   1.00
H991   H     0.60210   0.22717   0.41904   0.00000  Uiso   1.00
H992   H     0.64218   0.26969   0.42253   0.00000  Uiso   1.00
H993   H     0.58758   0.32451   0.45754   0.00000  Uiso   1.00
H994   H     0.58224   0.31141   0.39219   0.00000  Uiso   1.00
N995   N     0.50000   0.28402   0.50000   0.00000  Uiso   1.00
N996   N     0.50000   0.04931   0.50000   0.00000  Uiso   1.00
O997   O     0.43988   0.20625   0.50000   0.00000  Uiso   1.00
O998   O     0.62459   0.25164   0.49054   0.00000  Uiso   1.00
O999   O     0.62934   0.08611   0.51828   0.00000  Uiso   1.00
O1000  O     0.37541   0.25164   0.50948   0.00000  Uiso   1.00
O1001  O     0.44718   0.04829   0.43186   0.00000  Uiso   1.00
O1002  O     0.56610   0.28856   0.54838   0.00000  Uiso   1.00
O1003  O     0.55282   0.04829   0.56814   0.00000  Uiso   1.00
O1004  O     0.43389   0.28856   0.45162   0.00000  Uiso   1.00
O1005  O     0.56012   0.12709   0.50000   0.00000  Uiso   1.00
O1006  O     0.56012   0.20625   0.50000   0.00000  Uiso   1.00
O1007  O     0.43988   0.12709   0.50000   0.00000  Uiso   1.00
O1008  O     0.50000   0.20625   0.42946   0.00000  Uiso   1.00
O1009  O     0.50000   0.12708   0.57054   0.00000  Uiso   1.00
O1010  O     0.50000   0.20625   0.57054   0.00000  Uiso   1.00
O1011  O     0.50000   0.12708   0.42946   0.00000  Uiso   1.00
O1012  O     0.37066   0.08612   0.48171   0.00000  Uiso   1.00
C1013  C     0.75405   0.16691   0.49900   0.00000  Uiso   1.00
C1014  C     0.68811   0.21017   0.50263   0.00000  Uiso   1.00
C1015  C     0.95738   0.16808   0.50146   0.00000  Uiso   1.00
C1016  C     0.70929   0.16808   0.49855   0.00000  Uiso   1.00
C1017  C     0.80724   0.02470   0.46623   0.00000  Uiso   1.00
C1018  C     0.86222   0.30870   0.53061   0.00000  Uiso   1.00
C1019  C     0.85943   0.02470   0.53377   0.00000  Uiso   1.00
C1020  C     0.80445   0.30870   0.46939   0.00000  Uiso   1.00
C1021  C     0.68641   0.07410   0.43311   0.00000  Uiso   1.00
C1022  C     0.67690   0.02317   0.43156   0.00000  Uiso   1.00
C1023  C     0.94784   0.25883   0.43890   0.00000  Uiso   1.00
C1024  C     0.91262   0.16691   0.50100   0.00000  Uiso   1.00
C1025  C     0.91539   0.29642   0.42977   0.00000  Uiso   1.00
C1026  C     0.98027   0.07406   0.56686   0.00000  Uiso   1.00
C1027  C     0.98978   0.02313   0.56837   0.00000  Uiso   1.00
C1028  C     0.71884   0.25882   0.56111   0.00000  Uiso   1.00
C1029  C     0.75129   0.29642   0.57024   0.00000  Uiso   1.00
C1030  C     0.79456   0.04540   0.38453   0.00000  Uiso   1.00
C1031  C     0.76760   0.07476   0.34708   0.00000  Uiso   1.00
C1032  C     0.89876   0.26506   0.59396   0.00000  Uiso   1.00
C1033  C     0.93679   0.27652   0.62942   0.00000  Uiso   1.00
C1034  C     0.87211   0.04541   0.61547   0.00000  Uiso   1.00
C1035  C     0.83342   0.16671   0.40704   0.00000  Uiso   1.00
C1036  C     0.89907   0.07477   0.65292   0.00000  Uiso   1.00
C1037  C     0.76790   0.26505   0.40605   0.00000  Uiso   1.00
C1038  C     0.72988   0.27651   0.37058   0.00000  Uiso   1.00
C1039  C     0.83325   0.16671   0.59296   0.00000  Uiso   1.00
C1040  C     0.83341   0.16692   0.35524   0.00000  Uiso   1.00
C1041  C     0.83325   0.16692   0.64476   0.00000  Uiso   1.00
C1042  C     0.68686   0.12701   0.49472   0.00000  Uiso   1.00
C1043  C     0.97856   0.21017   0.49738   0.00000  Uiso   1.00
C1044  C     0.97981   0.12701   0.50529   0.00000  Uiso   1.00
Cu1045 Cu    0.83333   0.21355   0.50000   0.00000  Uiso   1.00
Cu1046 Cu    0.83333   0.11978   0.50000   0.00000  Uiso   1.00
H1047  H     0.70850   0.08207   0.40695   0.00000  Uiso   1.00
H1048  H     0.88472   0.28155   0.43202   0.00000  Uiso   1.00
H1049  H     0.95818   0.08201   0.59303   0.00000  Uiso   1.00
H1050  H     0.67583   0.09257   0.58094   0.00000  Uiso   1.00
H1051  H     0.67983   0.01596   0.54346   0.00000  Uiso   1.00
H1052  H     0.66824   0.01266   0.60682   0.00000  Uiso   1.00
H1053  H     0.96202   0.00325   0.55505   0.00000  Uiso   1.00
H1054  H     0.73126   0.22715   0.58096   0.00000  Uiso   1.00
H1055  H     0.69117   0.26967   0.57750   0.00000  Uiso   1.00
H1056  H     0.74576   0.32450   0.54248   0.00000  Uiso   1.00
H1057  H     0.75111   0.31140   0.60783   0.00000  Uiso   1.00
H1058  H     0.99085   0.09261   0.41903   0.00000  Uiso   1.00
H1059  H     0.78196   0.28155   0.56799   0.00000  Uiso   1.00
H1060  H     0.79373   0.00998   0.37008   0.00000  Uiso   1.00
H1061  H     0.82674   0.05683   0.38576   0.00000  Uiso   1.00
H1062  H     0.76360   0.10980   0.36218   0.00000  Uiso   1.00
H1063  H     0.78155   0.07792   0.64543   0.00000  Uiso   1.00
H1064  H     0.73715   0.05847   0.33796   0.00000  Uiso   1.00
H1065  H     0.90159   0.22767   0.58736   0.00000  Uiso   1.00
H1066  H     0.87087   0.27124   0.61238   0.00000  Uiso   1.00
H1067  H     0.93850   0.31377   0.63806   0.00000  Uiso   1.00
H1068  H     0.93630   0.25681   0.66434   0.00000  Uiso   1.00
H1069  H     0.98683   0.01599   0.45645   0.00000  Uiso   1.00
H1070  H     0.96447   0.26616   0.61275   0.00000  Uiso   1.00
H1071  H     0.87295   0.00999   0.62992   0.00000  Uiso   1.00
H1072  H     0.83994   0.05683   0.61424   0.00000  Uiso   1.00
H1073  H     0.90308   0.10981   0.63780   0.00000  Uiso   1.00
H1074  H     0.88511   0.07795   0.35455   0.00000  Uiso   1.00
H1075  H     0.92952   0.05848   0.66205   0.00000  Uiso   1.00
H1076  H     0.76508   0.22767   0.41265   0.00000  Uiso   1.00
H1077  H     0.79580   0.27123   0.38763   0.00000  Uiso   1.00
H1078  H     0.72818   0.31375   0.36192   0.00000  Uiso   1.00
H1079  H     0.73036   0.25678   0.33567   0.00000  Uiso   1.00
H1080  H     0.99844   0.01272   0.39309   0.00000  Uiso   1.00
H1081  H     0.70220   0.26617   0.38725   0.00000  Uiso   1.00
H1082  H     0.70465   0.00329   0.44488   0.00000  Uiso   1.00
H1083  H     0.93543   0.22717   0.41904   0.00000  Uiso   1.00
H1084  H     0.97552   0.26969   0.42253   0.00000  Uiso   1.00
H1085  H     0.92091   0.32451   0.45754   0.00000  Uiso   1.00
H1086  H     0.91557   0.31141   0.39219   0.00000  Uiso   1.00
N1087  N     0.83333   0.28402   0.50000   0.00000  Uiso   1.00
N1088  N     0.83333   0.04931   0.50000   0.00000  Uiso   1.00
O1089  O     0.77321   0.20625   0.50000   0.00000  Uiso   1.00
O1090  O     0.95793   0.25164   0.49054   0.00000  Uiso   1.00
O1091  O     0.96267   0.08611   0.51828   0.00000  Uiso   1.00
O1092  O     0.70874   0.25164   0.50948   0.00000  Uiso   1.00
O1093  O     0.78051   0.04829   0.43186   0.00000  Uiso   1.00
O1094  O     0.89944   0.28856   0.54838   0.00000  Uiso   1.00
O1095  O     0.88616   0.04829   0.56814   0.00000  Uiso   1.00
O1096  O     0.76723   0.28856   0.45162   0.00000  Uiso   1.00
O1097  O     0.89345   0.12709   0.50000   0.00000  Uiso   1.00
O1098  O     0.89345   0.20625   0.50000   0.00000  Uiso   1.00
O1099  O     0.77321   0.12709   0.50000   0.00000  Uiso   1.00
O1100  O     0.83333   0.20625   0.42946   0.00000  Uiso   1.00
O1101  O     0.83333   0.12708   0.57054   0.00000  Uiso   1.00
O1102  O     0.83333   0.20625   0.57054   0.00000  Uiso   1.00
O1103  O     0.83333   0.12708   0.42946   0.00000  Uiso   1.00
O1104  O     0.70399   0.08612   0.48171   0.00000  Uiso   1.00
C1105  C     0.08738   0.50025   0.49900   0.00000  Uiso   1.00
C1106  C     0.02144   0.54350   0.50263   0.00000  Uiso   1.00
C1107  C     0.29071   0.50142   0.50146   0.00000  Uiso   1.00
C1108  C     0.04262   0.50142   0.49855   0.00000  Uiso   1.00
C1109  C     0.14058   0.35804   0.46623   0.00000  Uiso   1.00
C1110  C     0.19555   0.64203   0.53061   0.00000  Uiso   1.00
C1111  C     0.19276   0.35804   0.53377   0.00000  Uiso   1.00
C1112  C     0.13778   0.64204   0.46939   0.00000  Uiso   1.00
C1113  C     0.01974   0.40743   0.43311   0.00000  Uiso   1.00
C1114  C     0.01023   0.35650   0.43156   0.00000  Uiso   1.00
C1115  C     0.28118   0.59216   0.43890   0.00000  Uiso   1.00
C1116  C     0.24595   0.50025   0.50100   0.00000  Uiso   1.00
C1117  C     0.24873   0.62976   0.42977   0.00000  Uiso   1.00
C1118  C     0.31360   0.40740   0.56686   0.00000  Uiso   1.00
C1119  C     0.32311   0.35646   0.56837   0.00000  Uiso   1.00
C1120  C     0.05217   0.59215   0.56111   0.00000  Uiso   1.00
C1121  C     0.08462   0.62975   0.57024   0.00000  Uiso   1.00
C1122  C     0.12790   0.37874   0.38453   0.00000  Uiso   1.00
C1123  C     0.10093   0.40809   0.34708   0.00000  Uiso   1.00
C1124  C     0.23210   0.59839   0.59396   0.00000  Uiso   1.00
C1125  C     0.27012   0.60985   0.62942   0.00000  Uiso   1.00
C1126  C     0.20544   0.37874   0.61547   0.00000  Uiso   1.00
C1127  C     0.16675   0.50004   0.40704   0.00000  Uiso   1.00
C1128  C     0.23240   0.40811   0.65292   0.00000  Uiso   1.00
C1129  C     0.10124   0.59839   0.40605   0.00000  Uiso   1.00
C1130  C     0.06322   0.60984   0.37058   0.00000  Uiso   1.00
C1131  C     0.16658   0.50004   0.59296   0.00000  Uiso   1.00
C1132  C     0.16675   0.50026   0.35524   0.00000  Uiso   1.00
C1133  C     0.16659   0.50026   0.64476   0.00000  Uiso   1.00
C1134  C     0.02019   0.46035   0.49472   0.00000  Uiso   1.00
C1135  C     0.31189   0.54350   0.49738   0.00000  Uiso   1.00
C1136  C     0.31314   0.46035   0.50529   0.00000  Uiso   1.00
Cu1137 Cu    0.16667   0.54689   0.50000   0.00000  Uiso   1.00
Cu1138 Cu    0.16667   0.45311   0.50000   0.00000  Uiso   1.00
H1139  H     0.04184   0.41540   0.40695   0.00000  Uiso   1.00
H1140  H     0.21805   0.61489   0.43202   0.00000  Uiso   1.00
H1141  H     0.29151   0.41534   0.59303   0.00000  Uiso   1.00
H1142  H     0.00916   0.42590   0.58094   0.00000  Uiso   1.00
H1143  H     0.01317   0.34930   0.54346   0.00000  Uiso   1.00
H1144  H     0.00158   0.34600   0.60682   0.00000  Uiso   1.00
H1145  H     0.29535   0.33659   0.55505   0.00000  Uiso   1.00
H1146  H     0.06459   0.56049   0.58096   0.00000  Uiso   1.00
H1147  H     0.02450   0.60300   0.57750   0.00000  Uiso   1.00
H1148  H     0.07910   0.65784   0.54248   0.00000  Uiso   1.00
H1149  H     0.08444   0.64474   0.60783   0.00000  Uiso   1.00
H1150  H     0.32418   0.42594   0.41903   0.00000  Uiso   1.00
H1151  H     0.11529   0.61489   0.56799   0.00000  Uiso   1.00
H1152  H     0.12706   0.34331   0.37008   0.00000  Uiso   1.00
H1153  H     0.16007   0.39016   0.38576   0.00000  Uiso   1.00
H1154  H     0.09693   0.44313   0.36218   0.00000  Uiso   1.00
H1155  H     0.11489   0.41125   0.64543   0.00000  Uiso   1.00
H1156  H     0.07048   0.39180   0.33796   0.00000  Uiso   1.00
H1157  H     0.23492   0.56100   0.58736   0.00000  Uiso   1.00
H1158  H     0.20420   0.60457   0.61238   0.00000  Uiso   1.00
H1159  H     0.27183   0.64710   0.63806   0.00000  Uiso   1.00
H1160  H     0.26964   0.59014   0.66434   0.00000  Uiso   1.00
H1161  H     0.32016   0.34932   0.45645   0.00000  Uiso   1.00
H1162  H     0.29781   0.59950   0.61275   0.00000  Uiso   1.00
H1163  H     0.20628   0.34332   0.62992   0.00000  Uiso   1.00
H1164  H     0.17327   0.39016   0.61424   0.00000  Uiso   1.00
H1165  H     0.23641   0.44314   0.63780   0.00000  Uiso   1.00
H1166  H     0.21845   0.41128   0.35455   0.00000  Uiso   1.00
H1167  H     0.26285   0.39181   0.66205   0.00000  Uiso   1.00
H1168  H     0.09841   0.56100   0.41265   0.00000  Uiso   1.00
H1169  H     0.12913   0.60457   0.38763   0.00000  Uiso   1.00
H1170  H     0.06151   0.64709   0.36192   0.00000  Uiso   1.00
H1171  H     0.06370   0.59012   0.33567   0.00000  Uiso   1.00
H1172  H     0.33178   0.34605   0.39309   0.00000  Uiso   1.00
H1173  H     0.03553   0.59950   0.38725   0.00000  Uiso   1.00
H1174  H     0.03799   0.33662   0.44488   0.00000  Uiso   1.00
H1175  H     0.26876   0.56050   0.41904   0.00000  Uiso   1.00
H1176  H     0.30885   0.60303   0.42253   0.00000  Uiso   1.00
H1177  H     0.25424   0.65784   0.45754   0.00000  Uiso   1.00
H1178  H     0.24891   0.64475   0.39219   0.00000  Uiso   1.00
N1179  N     0.16667   0.61736   0.50000   0.00000  Uiso   1.00
N1180  N     0.16667   0.38264   0.50000   0.00000  Uiso   1.00
O1181  O     0.10655   0.53958   0.50000   0.00000  Uiso   1.00
O1182  O     0.29126   0.58497   0.49054   0.00000  Uiso   1.00
O1183  O     0.29601   0.41945   0.51828   0.00000  Uiso   1.00
O1184  O     0.04208   0.58497   0.50948   0.00000  Uiso   1.00
O1185  O     0.11385   0.38163   0.43186   0.00000  Uiso   1.00
O1186  O     0.23277   0.62189   0.54838   0.00000  Uiso   1.00
O1187  O     0.21949   0.38163   0.56814   0.00000  Uiso   1.00
O1188  O     0.10056   0.62189   0.45162   0.00000  Uiso   1.00
O1189  O     0.22679   0.46042   0.50000   0.00000  Uiso   1.00
O1190  O     0.22679   0.53958   0.50000   0.00000  Uiso   1.00
O1191  O     0.10655   0.46042   0.50000   0.00000  Uiso   1.00
O1192  O     0.16667   0.53959   0.42946   0.00000  Uiso   1.00
O1193  O     0.16667   0.46041   0.57054   0.00000  Uiso   1.00
O1194  O     0.16667   0.53959   0.57054   0.00000  Uiso   1.00
O1195  O     0.16667   0.46041   0.42946   0.00000  Uiso   1.00
O1196  O     0.03732   0.41945   0.48171   0.00000  Uiso   1.00
C1197  C     0.42072   0.50025   0.49900   0.00000  Uiso   1.00
C1198  C     0.35478   0.54350   0.50263   0.00000  Uiso   1.00
C1199  C     0.62404   0.50142   0.50146   0.00000  Uiso   1.00
C1200  C     0.37596   0.50142   0.49855   0.00000  Uiso   1.00
C1201  C     0.47391   0.35804   0.46623   0.00000  Uiso   1.00
C1202  C     0.52888   0.64203   0.53061   0.00000  Uiso   1.00
C1203  C     0.52609   0.35804   0.53377   0.00000  Uiso   1.00
C1204  C     0.47112   0.64204   0.46939   0.00000  Uiso   1.00
C1205  C     0.35307   0.40743   0.43311   0.00000  Uiso   1.00
C1206  C     0.34356   0.35650   0.43156   0.00000  Uiso   1.00
C1207  C     0.61451   0.59216   0.43890   0.00000  Uiso   1.00
C1208  C     0.57928   0.50025   0.50100   0.00000  Uiso   1.00
C1209  C     0.58206   0.62976   0.42977   0.00000  Uiso   1.00
C1210  C     0.64693   0.40740   0.56686   0.00000  Uiso   1.00
C1211  C     0.65644   0.35646   0.56837   0.00000  Uiso   1.00
C1212  C     0.38550   0.59215   0.56111   0.00000  Uiso   1.00
C1213  C     0.41795   0.62975   0.57024   0.00000  Uiso   1.00
C1214  C     0.46123   0.37874   0.38453   0.00000  Uiso   1.00
C1215  C     0.43427   0.40809   0.34708   0.00000  Uiso   1.00
C1216  C     0.56543   0.59839   0.59396   0.00000  Uiso   1.00
C1217  C     0.60345   0.60985   0.62942   0.00000  Uiso   1.00
C1218  C     0.53878   0.37874   0.61547   0.00000  Uiso   1.00
C1219  C     0.50009   0.50004   0.40704   0.00000  Uiso   1.00
C1220  C     0.56574   0.40811   0.65292   0.00000  Uiso   1.00
C1221  C     0.43457   0.59839   0.40605   0.00000  Uiso   1.00
C1222  C     0.39655   0.60984   0.37058   0.00000  Uiso   1.00
C1223  C     0.49991   0.50004   0.59296   0.00000  Uiso   1.00
C1224  C     0.50008   0.50026   0.35524   0.00000  Uiso   1.00
C1225  C     0.49992   0.50026   0.64476   0.00000  Uiso   1.00
C1226  C     0.35352   0.46035   0.49472   0.00000  Uiso   1.00
C1227  C     0.64523   0.54350   0.49738   0.00000  Uiso   1.00
C1228  C     0.64648   0.46035   0.50529   0.00000  Uiso   1.00
Cu1229 Cu    0.50000   0.54689   0.50000   0.00000  Uiso   1.00
Cu1230 Cu    0.50000   0.45311   0.50000   0.00000  Uiso   1.00
H1231  H     0.37517   0.41540   0.40695   0.00000  Uiso   1.00
H1232  H     0.55138   0.61489   0.43202   0.00000  Uiso   1.00
H1233  H     0.62484   0.41534   0.59303   0.00000  Uiso   1.00
H1234  H     0.34249   0.42590   0.58094   0.00000  Uiso   1.00
H1235  H     0.34650   0.34930   0.54346   0.00000  Uiso   1.00
H1236  H     0.33491   0.34600   0.60682   0.00000  Uiso   1.00
H1237  H     0.62868   0.33659   0.55505   0.00000  Uiso   1.00
H1238  H     0.39793   0.56049   0.58096   0.00000  Uiso   1.00
H1239  H     0.35784   0.60300   0.57750   0.00000  Uiso   1.00
H1240  H     0.41243   0.65784   0.54248   0.00000  Uiso   1.00
H1241  H     0.41777   0.64474   0.60783   0.00000  Uiso   1.00
H1242  H     0.65752   0.42594   0.41903   0.00000  Uiso   1.00
H1243  H     0.44863   0.61489   0.56799   0.00000  Uiso   1.00
H1244  H     0.46039   0.34331   0.37008   0.00000  Uiso   1.00
H1245  H     0.49340   0.39016   0.38576   0.00000  Uiso   1.00
H1246  H     0.43026   0.44313   0.36218   0.00000  Uiso   1.00
H1247  H     0.44822   0.41125   0.64543   0.00000  Uiso   1.00
H1248  H     0.40382   0.39180   0.33796   0.00000  Uiso   1.00
H1249  H     0.56825   0.56100   0.58736   0.00000  Uiso   1.00
H1250  H     0.53754   0.60457   0.61238   0.00000  Uiso   1.00
H1251  H     0.60517   0.64710   0.63806   0.00000  Uiso   1.00
H1252  H     0.60297   0.59014   0.66434   0.00000  Uiso   1.00
H1253  H     0.65349   0.34932   0.45645   0.00000  Uiso   1.00
H1254  H     0.63114   0.59950   0.61275   0.00000  Uiso   1.00
H1255  H     0.53962   0.34332   0.62992   0.00000  Uiso   1.00
H1256  H     0.50660   0.39016   0.61424   0.00000  Uiso   1.00
H1257  H     0.56975   0.44314   0.63780   0.00000  Uiso   1.00
H1258  H     0.55178   0.41128   0.35455   0.00000  Uiso   1.00
H1259  H     0.59618   0.39181   0.66205   0.00000  Uiso   1.00
H1260  H     0.43175   0.56100   0.41265   0.00000  Uiso   1.00
H1261  H     0.46247   0.60457   0.38763   0.00000  Uiso   1.00
H1262  H     0.39484   0.64709   0.36192   0.00000  Uiso   1.00
H1263  H     0.39703   0.59012   0.33567   0.00000  Uiso   1.00
H1264  H     0.66511   0.34605   0.39309   0.00000  Uiso   1.00
H1265  H     0.36886   0.59950   0.38725   0.00000  Uiso   1.00
H1266  H     0.37132   0.33662   0.44488   0.00000  Uiso   1.00
H1267  H     0.60210   0.56050   0.41904   0.00000  Uiso   1.00
H1268  H     0.64218   0.60303   0.42253   0.00000  Uiso   1.00
H1269  H     0.58758   0.65784   0.45754   0.00000  Uiso   1.00
H1270  H     0.58224   0.64475   0.39219   0.00000  Uiso   1.00
N1271  N     0.50000   0.61736   0.50000   0.00000  Uiso   1.00
N1272  N     0.50000   0.38264   0.50000   0.00000  Uiso   1.00
O1273  O     0.43988   0.53958   0.50000   0.00000  Uiso   1.00
O1274  O     0.62459   0.58497   0.49054   0.00000  Uiso   1.00
O1275  O     0.62934   0.41945   0.51828   0.00000  Uiso   1.00
O1276  O     0.37541   0.58497   0.50948   0.00000  Uiso   1.00
O1277  O     0.44718   0.38163   0.43186   0.00000  Uiso   1.00
O1278  O     0.56610   0.62189   0.54838   0.00000  Uiso   1.00
O1279  O     0.55282   0.38163   0.56814   0.00000  Uiso   1.00
O1280  O     0.43389   0.62189   0.45162   0.00000  Uiso   1.00
O1281  O     0.56012   0.46042   0.50000   0.00000  Uiso   1.00
O1282  O     0.56012   0.53958   0.50000   0.00000  Uiso   1.00
O1283  O     0.43988   0.46042   0.50000   0.00000  Uiso   1.00
O1284  O     0.50000   0.53959   0.42946   0.00000  Uiso   1.00
O1285  O     0.50000   0.46041   0.57054   0.00000  Uiso   1.00
O1286  O     0.50000   0.53959   0.57054   0.00000  Uiso   1.00
O1287  O     0.50000   0.46041   0.42946   0.00000  Uiso   1.00
O1288  O     0.37066   0.41945   0.48171   0.00000  Uiso   1.00
C1289  C     0.75405   0.50025   0.49900   0.00000  Uiso   1.00
C1290  C     0.68811   0.54350   0.50263   0.00000  Uiso   1.00
C1291  C     0.95738   0.50142   0.50146   0.00000  Uiso   1.00
C1292  C     0.70929   0.50142   0.49855   0.00000  Uiso   1.00
C1293  C     0.80724   0.35804   0.46623   0.00000  Uiso   1.00
C1294  C     0.86222   0.64203   0.53061   0.00000  Uiso   1.00
C1295  C     0.85943   0.35804   0.53377   0.00000  Uiso   1.00
C1296  C     0.80445   0.64204   0.46939   0.00000  Uiso   1.00
C1297  C     0.68641   0.40743   0.43311   0.00000  Uiso   1.00
C1298  C     0.67690   0.35650   0.43156   0.00000  Uiso   1.00
C1299  C     0.94784   0.59216   0.43890   0.00000  Uiso   1.00
C1300  C     0.91262   0.50025   0.50100   0.00000  Uiso   1.00
C1301  C     0.91539   0.62976   0.42977   0.00000  Uiso   1.00
C1302  C     0.98027   0.40740   0.56686   0.00000  Uiso   1.00
C1303  C     0.98978   0.35646   0.56837   0.00000  Uiso   1.00
C1304  C     0.71884   0.59215   0.56111   0.00000  Uiso   1.00
C1305  C     0.75129   0.62975   0.57024   0.00000  Uiso   1.00
C1306  C     0.79456   0.37874   0.38453   0.00000  Uiso   1.00
C1307  C     0.76760   0.40809   0.34708   0.00000  Uiso   1.00
C1308  C     0.89876   0.59839   0.59396   0.00000  Uiso   1.00
C1309  C     0.93679   0.60985   0.62942   0.00000  Uiso   1.00
C1310  C     0.87211   0.37874   0.61547   0.00000  Uiso   1.00
C1311  C     0.83342   0.50004   0.40704   0.00000  Uiso   1.00
C1312  C     0.89907   0.40811   0.65292   0.00000  Uiso   1.00
C1313  C     0.76790   0.59839   0.40605   0.00000  Uiso   1.00
C1314  C     0.72988   0.60984   0.37058   0.00000  Uiso   1.00
C1315  C     0.83325   0.50004   0.59296   0.00000  Uiso   1.00
C1316  C     0.83341   0.50026   0.35524   0.00000  Uiso   1.00
C1317  C     0.83325   0.50026   0.64476   0.00000  Uiso   1.00
C1318  C     0.68686   0.46035   0.49472   0.00000  Uiso   1.00
C1319  C     0.97856   0.54350   0.49738   0.00000  Uiso   1.00
C1320  C     0.97981   0.46035   0.50529   0.00000  Uiso   1.00
Cu1321 Cu    0.83333   0.54689   0.50000   0.00000  Uiso   1.00
Cu1322 Cu    0.83333   0.45311   0.50000   0.00000  Uiso   1.00
H1323  H     0.70850   0.41540   0.40695   0.00000  Uiso   1.00
H1324  H     0.88472   0.61489   0.43202   0.00000  Uiso   1.00
H1325  H     0.95818   0.41534   0.59303   0.00000  Uiso   1.00
H1326  H     0.67583   0.42590   0.58094   0.00000  Uiso   1.00
H1327  H     0.67983   0.34930   0.54346   0.00000  Uiso   1.00
H1328  H     0.66824   0.34600   0.60682   0.00000  Uiso   1.00
H1329  H     0.96202   0.33659   0.55505   0.00000  Uiso   1.00
H1330  H     0.73126   0.56049   0.58096   0.00000  Uiso   1.00
H1331  H     0.69117   0.60300   0.57750   0.00000  Uiso   1.00
H1332  H     0.74576   0.65784   0.54248   0.00000  Uiso   1.00
H1333  H     0.75111   0.64474   0.60783   0.00000  Uiso   1.00
H1334  H     0.99085   0.42594   0.41903   0.00000  Uiso   1.00
H1335  H     0.78196   0.61489   0.56799   0.00000  Uiso   1.00
H1336  H     0.79373   0.34331   0.37008   0.00000  Uiso   1.00
H1337  H     0.82674   0.39016   0.38576   0.00000  Uiso   1.00
H1338  H     0.76360   0.44313   0.36218   0.00000  Uiso   1.00
H1339  H     0.78155   0.41125   0.64543   0.00000  Uiso   1.00
H1340  H     0.73715   0.39180   0.33796   0.00000  Uiso   1.00
H1341  H     0.90159   0.56100   0.58736   0.00000  Uiso   1.00
H1342  H     0.87087   0.60457   0.61238   0.00000  Uiso   1.00
H1343  H     0.93850   0.64710   0.63806   0.00000  Uiso   1.00
H1344  H     0.93630   0.59014   0.66434   0.00000  Uiso   1.00
H1345  H     0.98683   0.34932   0.45645   0.00000  Uiso   1.00
H1346  H     0.96447   0.59950   0.61275   0.00000  Uiso   1.00
H1347  H     0.87295   0.34332   0.62992   0.00000  Uiso   1.00
H1348  H     0.83994   0.39016   0.61424   0.00000  Uiso   1.00
H1349  H     0.90308   0.44314   0.63780   0.00000  Uiso   1.00
H1350  H     0.88511   0.41128   0.35455   0.00000  Uiso   1.00
H1351  H     0.92952   0.39181   0.66205   0.00000  Uiso   1.00
H1352  H     0.76508   0.56100   0.41265   0.00000  Uiso   1.00
H1353  H     0.79580   0.60457   0.38763   0.00000  Uiso   1.00
H1354  H     0.72818   0.64709   0.36192   0.00000  Uiso   1.00
H1355  H     0.73036   0.59012   0.33567   0.00000  Uiso   1.00
H1356  H     0.99844   0.34605   0.39309   0.00000  Uiso   1.00
H1357  H     0.70220   0.59950   0.38725   0.00000  Uiso   1.00
H1358  H     0.70465   0.33662   0.44488   0.00000  Uiso   1.00
H1359  H     0.93543   0.56050   0.41904   0.00000  Uiso   1.00
H1360  H     0.97552   0.60303   0.42253   0.00000  Uiso   1.00
H1361  H     0.92091   0.65784   0.45754   0.00000  Uiso   1.00
H1362  H     0.91557   0.64475   0.39219   0.00000  Uiso   1.00
N1363  N     0.83333   0.61736   0.50000   0.00000  Uiso   1.00
N1364  N     0.83333   0.38264   0.50000   0.00000  Uiso   1.00
O1365  O     0.77321   0.53958   0.50000   0.00000  Uiso   1.00
O1366  O     0.95793   0.58497   0.49054   0.00000  Uiso   1.00
O1367  O     0.96267   0.41945   0.51828   0.00000  Uiso   1.00
O1368  O     0.70874   0.58497   0.50948   0.00000  Uiso   1.00
O1369  O     0.78051   0.38163   0.43186   0.00000  Uiso   1.00
O1370  O     0.89944   0.62189   0.54838   0.00000  Uiso   1.00
O1371  O     0.88616   0.38163   0.56814   0.00000  Uiso   1.00
O1372  O     0.76723   0.62189   0.45162   0.00000  Uiso   1.00
O1373  O     0.89345   0.46042   0.50000   0.00000  Uiso   1.00
O1374  O     0.89345   0.53958   0.50000   0.00000  Uiso   1.00
O1375  O     0.77321   0.46042   0.50000   0.00000  Uiso   1.00
O1376  O     0.83333   0.53959   0.42946   0.00000  Uiso   1.00
O1377  O     0.83333   0.46041   0.57054   0.00000  Uiso   1.00
O1378  O     0.83333   0.53959   0.57054   0.00000  Uiso   1.00
O1379  O     0.83333   0.46041   0.42946   0.00000  Uiso   1.00
O1380  O     0.70399   0.41945   0.48171   0.00000  Uiso   1.00
C1381  C     0.08738   0.83358   0.49900   0.00000  Uiso   1.00
C1382  C     0.02144   0.87684   0.50263   0.00000  Uiso   1.00
C1383  C     0.29071   0.83475   0.50146   0.00000  Uiso   1.00
C1384  C     0.04262   0.83475   0.49855   0.00000  Uiso   1.00
C1385  C     0.14058   0.69137   0.46623   0.00000  Uiso   1.00
C1386  C     0.19555   0.97537   0.53061   0.00000  Uiso   1.00
C1387  C     0.19276   0.69137   0.53377   0.00000  Uiso   1.00
C1388  C     0.13778   0.97537   0.46939   0.00000  Uiso   1.00
C1389  C     0.01974   0.74077   0.43311   0.00000  Uiso   1.00
C1390  C     0.01023   0.68984   0.43156   0.00000  Uiso   1.00
C1391  C     0.28118   0.92550   0.43890   0.00000  Uiso   1.00
C1392  C     0.24595   0.83358   0.50100   0.00000  Uiso   1.00
C1393  C     0.24873   0.96309   0.42977   0.00000  Uiso   1.00
C1394  C     0.31360   0.74073   0.56686   0.00000  Uiso   1.00
C1395  C     0.32311   0.68980   0.56837   0.00000  Uiso   1.00
C1396  C     0.05217   0.92548   0.56111   0.00000  Uiso   1.00
C1397  C     0.08462   0.96308   0.57024   0.00000  Uiso   1.00
C1398  C     0.12790   0.71207   0.38453   0.00000  Uiso   1.00
C1399  C     0.10093   0.74143   0.34708   0.00000  Uiso   1.00
C1400  C     0.23210   0.93172   0.59396   0.00000  Uiso   1.00
C1401  C     0.27012   0.94319   0.62942   0.00000  Uiso   1.00
C1402  C     0.20544   0.71207   0.61547   0.00000  Uiso   1.00
C1403  C     0.16675   0.83337   0.40704   0.00000  Uiso   1.00
C1404  C     0.23240   0.74144   0.65292   0.00000  Uiso   1.00
C1405  C     0.10124   0.93172   0.40605   0.00000  Uiso   1.00
C1406  C     0.06322   0.94318   0.37058   0.00000  Uiso   1.00
C1407  C     0.16658   0.83337   0.59296   0.00000  Uiso   1.00
C1408  C     0.16675   0.83359   0.35524   0.00000  Uiso   1.00
C1409  C     0.16659   0.83359   0.64476   0.00000  Uiso   1.00
C1410  C     0.02019   0.79368   0.49472   0.00000  Uiso   1.00
C1411  C     0.31189   0.87684   0.49738   0.00000  Uiso   1.00
C1412  C     0.31314   0.79368   0.50529   0.00000  Uiso   1.00
Cu1413 Cu    0.16667   0.88022   0.50000   0.00000  Uiso   1.00
Cu1414 Cu    0.16667   0.78645   0.50000   0.00000  Uiso   1.00
H1415  H     0.04184   0.74874   0.40695   0.00000  Uiso   1.00
H1416  H     0.21805   0.94822   0.43202   0.00000  Uiso   1.00
H1417  H     0.29151   0.74868   0.59303   0.00000  Uiso   1.00
H1418  H     0.00916   0.75923   0.58094   0.00000  Uiso   1.00
H1419  H     0.01317   0.68263   0.54346   0.00000  Uiso   1.00
H1420  H     0.00158   0.67933   0.60682   0.00000  Uiso   1.00
H1421  H     0.29535   0.66992   0.55505   0.00000  Uiso   1.00
H1422  H     0.06459   0.89382   0.58096   0.00000  Uiso   1.00
H1423  H     0.02450   0.93634   0.57750   0.00000  Uiso   1.00
H1424  H     0.07910   0.99117   0.54248   0.00000  Uiso   1.00
H1425  H     0.08444   0.97807   0.60783   0.00000  Uiso   1.00
H1426  H     0.32418   0.75928   0.41903   0.00000  Uiso   1.00
H1427  H     0.11529   0.94822   0.56799   0.00000  Uiso   1.00
H1428  H     0.12706   0.67665   0.37008   0.00000  Uiso   1.00
H1429  H     0.16007   0.72349   0.38576   0.00000  Uiso   1.00
H1430  H     0.09693   0.77647   0.36218   0.00000  Uiso   1.00
H1431  H     0.11489   0.74459   0.64543   0.00000  Uiso   1.00
H1432  H     0.07048   0.72513   0.33796   0.00000  Uiso   1.00
H1433  H     0.23492   0.89434   0.58736   0.00000  Uiso   1.00
H1434  H     0.20420   0.93791   0.61238   0.00000  Uiso   1.00
H1435  H     0.27183   0.98043   0.63806   0.00000  Uiso   1.00
H1436  H     0.26964   0.92347   0.66434   0.00000  Uiso   1.00
H1437  H     0.32016   0.68265   0.45645   0.00000  Uiso   1.00
H1438  H     0.29781   0.93283   0.61275   0.00000  Uiso   1.00
H1439  H     0.20628   0.67665   0.62992   0.00000  Uiso   1.00
H1440  H     0.17327   0.72349   0.61424   0.00000  Uiso   1.00
H1441  H     0.23641   0.77647   0.63780   0.00000  Uiso   1.00
H1442  H     0.21845   0.74461   0.35455   0.00000  Uiso   1.00
H1443  H     0.26285   0.72514   0.66205   0.00000  Uiso   1.00
H1444  H     0.09841   0.89433   0.41265   0.00000  Uiso   1.00
H1445  H     0.12913   0.93790   0.38763   0.00000  Uiso   1.00
H1446  H     0.06151   0.98042   0.36192   0.00000  Uiso   1.00
H1447  H     0.06370   0.92345   0.33567   0.00000  Uiso   1.00
H1448  H     0.33178   0.67939   0.39309   0.00000  Uiso   1.00
H1449  H     0.03553   0.93284   0.38725   0.00000  Uiso   1.00
H1450  H     0.03799   0.66995   0.44488   0.00000  Uiso   1.00
H1451  H     0.26876   0.89383   0.41904   0.00000  Uiso   1.00
H1452  H     0.30885   0.93636   0.42253   0.00000  Uiso   1.00
H1453  H     0.25424   0.99118   0.45754   0.00000  Uiso   1.00
H1454  H     0.24891   0.97808   0.39219   0.00000  Uiso   1.00
N1455  N     0.16667   0.95069   0.50000   0.00000  Uiso   1.00
N1456  N     0.16667   0.71598   0.50000   0.00000  Uiso   1.00
O1457  O     0.10655   0.87291   0.50000   0.00000  Uiso   1.00
O1458  O     0.29126   0.91831   0.49054   0.00000  Uiso   1.00
O1459  O     0.29601   0.75278   0.51828   0.00000  Uiso   1.00
O1460  O     0.04208   0.91831   0.50948   0.00000  Uiso   1.00
O1461  O     0.11385   0.71496   0.43186   0.00000  Uiso   1.00
O1462  O     0.23277   0.95522   0.54838   0.00000  Uiso   1.00
O1463  O     0.21949   0.71496   0.56814   0.00000  Uiso   1.00
O1464  O     0.10056   0.95523   0.45162   0.00000  Uiso   1.00
O1465  O     0.22679   0.79375   0.50000   0.00000  Uiso   1.00
O1466  O     0.22679   0.87291   0.50000   0.00000  Uiso   1.00
O1467  O     0.10655   0.79375   0.50000   0.00000  Uiso   1.00
O1468  O     0.16667   0.87292   0.42946   0.00000  Uiso   1.00
O1469  O     0.16667   0.79375   0.57054   0.00000  Uiso   1.00
O1470  O     0.16667   0.87292   0.57054   0.00000  Uiso   1.00
O1471  O     0.16667   0.79375   0.42946   0.00000  Uiso   1.00
O1472  O     0.03732   0.75279   0.48171   0.00000  Uiso   1.00
C1473  C     0.42072   0.83358   0.49900   0.00000  Uiso   1.00
C1474  C     0.35478   0.87684   0.50263   0.00000  Uiso   1.00
C1475  C     0.62404   0.83475   0.50146   0.00000  Uiso   1.00
C1476  C     0.37596   0.83475   0.49855   0.00000  Uiso   1.00
C1477  C     0.47391   0.69137   0.46623   0.00000  Uiso   1.00
C1478  C     0.52888   0.97537   0.53061   0.00000  Uiso   1.00
C1479  C     0.52609   0.69137   0.53377   0.00000  Uiso   1.00
C1480  C     0.47112   0.97537   0.46939   0.00000  Uiso   1.00
C1481  C     0.35307   0.74077   0.43311   0.00000  Uiso   1.00
C1482  C     0.34356   0.68984   0.43156   0.00000  Uiso   1.00
C1483  C     0.61451   0.92550   0.43890   0.00000  Uiso   1.00
C1484  C     0.57928   0.83358   0.50100   0.00000  Uiso   1.00
C1485  C     0.58206   0.96309   0.42977   0.00000  Uiso   1.00
C1486  C     0.64693   0.74073   0.56686   0.00000  Uiso   1.00
C1487  C     0.65644   0.68980   0.56837   0.00000  Uiso   1.00
C1488  C     0.38550   0.92548   0.56111   0.00000  Uiso   1.00
C1489  C     0.41795   0.96308   0.57024   0.00000  Uiso   1.00
C1490  C     0.46123   0.71207   0.38453   0.00000  Uiso   1.00
C1491  C     0.43427   0.74143   0.34708   0.00000  Uiso   1.00
C1492  C     0.56543   0.93172   0.59396   0.00000  Uiso   1.00
C1493  C     0.60345   0.94319   0.62942   0.00000  Uiso   1.00
C1494  C     0.53878   0.71207   0.61547   0.00000  Uiso   1.00
C1495  C     0.50009   0.83337   0.40704   0.00000  Uiso   1.00
C1496  C     0.56574   0.74144   0.65292   0.00000  Uiso   1.00
C1497  C     0.43457   0.93172   0.40605   0.00000  Uiso   1.00
C1498  C     0.39655   0.94318   0.37058   0.00000  Uiso   1.00
C1499  C     0.49991   0.83337   0.59296   0.00000  Uiso   1.00
C1500  C     0.50008   0.83359   0.35524   0.00000  Uiso   1.00
C1501  C     0.49992   0.83359   0.64476   0.00000  Uiso   1.00
C1502  C     0.35352   0.79368   0.49472   0.00000  Uiso   1.00
C1503  C     0.64523   0.87684   0.49738   0.00000  Uiso   1.00
C1504  C     0.64648   0.79368   0.50529   0.00000  Uiso   1.00
Cu1505 Cu    0.50000   0.88022   0.50000   0.00000  Uiso   1.00
Cu1506 Cu    0.50000   0.78645   0.50000   0.00000  Uiso   1.00
H1507  H     0.37517   0.74874   0.40695   0.00000  Uiso   1.00
H1508  H     0.55138   0.94822   0.43202   0.00000  Uiso   1.00
H1509  H     0.62484   0.74868   0.59303   0.00000  Uiso   1.00
H1510  H     0.34249   0.75923   0.58094   0.00000  Uiso   1.00
H1511  H     0.34650   0.68263   0.54346   0.00000  Uiso   1.00
H1512  H     0.33491   0.67933   0.60682   0.00000  Uiso   1.00
H1513  H     0.62868   0.66992   0.55505   0.00000  Uiso   1.00
H1514  H     0.39793   0.89382   0.58096   0.00000  Uiso   1.00
H1515  H     0.35784   0.93634   0.57750   0.00000  Uiso   1.00
H1516  H     0.41243   0.99117   0.54248   0.00000  Uiso   1.00
H1517  H     0.41777   0.97807   0.60783   0.00000  Uiso   1.00
H1518  H     0.65752   0.75928   0.41903   0.00000  Uiso   1.00
H1519  H     0.44863   0.94822   0.56799   0.00000  Uiso   1.00
H1520  H     0.46039   0.67665   0.37008   0.00000  Uiso   1.00
H1521  H     0.49340   0.72349   0.38576   0.00000  Uiso   1.00
H1522  H     0.43026   0.77647   0.36218   0.00000  Uiso   1.00
H1523  H     0.44822   0.74459   0.64543   0.00000  Uiso   1.00
H1524  H     0.40382   0.72513   0.33796   0.00000  Uiso   1.00
H1525  H     0.56825   0.89434   0.58736   0.00000  Uiso   1.00
H1526  H     0.53754   0.93791   0.61238   0.00000  Uiso   1.00
H1527  H     0.60517   0.98043   0.63806   0.00000  Uiso   1.00
H1528  H     0.60297   0.92347   0.66434   0.00000  Uiso   1.00
H1529  H     0.65349   0.68265   0.45645   0.00000  Uiso   1.00
H1530  H     0.63114   0.93283   0.61275   0.00000  Uiso   1.00
H1531  H     0.53962   0.67665   0.62992   0.00000  Uiso   1.00
H1532  H     0.50660   0.72349   0.61424   0.00000  Uiso   1.00
H1533  H     0.56975   0.77647   0.63780   0.00000  Uiso   1.00
H1534  H     0.55178   0.74461   0.35455   0.00000  Uiso   1.00
H1535  H     0.59618   0.72514   0.66205   0.00000  Uiso   1.00
H1536  H     0.43175   0.89433   0.41265   0.00000  Uiso   1.00
H1537  H     0.46247   0.93790   0.38763   0.00000  Uiso   1.00
H1538  H     0.39484   0.98042   0.36192   0.00000  Uiso   1.00
H1539  H     0.39703   0.92345   0.33567   0.00000  Uiso   1.00
H1540  H     0.66511   0.67939   0.39309   0.00000  Uiso   1.00
H1541  H     0.36886   0.93284   0.38725   0.00000  Uiso   1.00
H1542  H     0.37132   0.66995   0.44488   0.00000  Uiso   1.00
H1543  H     0.60210   0.89383   0.41904   0.00000  Uiso   1.00
H1544  H     0.64218   0.93636   0.42253   0.00000  Uiso   1.00
H1545  H     0.58758   0.99118   0.45754   0.00000  Uiso   1.00
H1546  H     0.58224   0.97808   0.39219   0.00000  Uiso   1.00
N1547  N     0.50000   0.95069   0.50000   0.00000  Uiso   1.00
N1548  N     0.50000   0.71598   0.50000   0.00000  Uiso   1.00
O1549  O     0.43988   0.87291   0.50000   0.00000  Uiso   1.00
O1550  O     0.62459   0.91831   0.49054   0.00000  Uiso   1.00
O1551  O     0.62934   0.75278   0.51828   0.00000  Uiso   1.00
O1552  O     0.37541   0.91831   0.50948   0.00000  Uiso   1.00
O1553  O     0.44718   0.71496   0.43186   0.00000  Uiso   1.00
O1554  O     0.56610   0.95522   0.54838   0.00000  Uiso   1.00
O1555  O     0.55282   0.71496   0.56814   0.00000  Uiso   1.00
O1556  O     0.43389   0.95523   0.45162   0.00000  Uiso   1.00
O1557  O     0.56012   0.79375   0.50000   0.00000  Uiso   1.00
O1558  O     0.56012   0.87291   0.50000   0.00000  Uiso   1.00
O1559  O     0.43988   0.79375   0.50000   0.00000  Uiso   1.00
O1560  O     0.50000   0.87292   0.42946   0.00000  Uiso   1.00
O1561  O     0.50000   0.79375   0.57054   0.00000  Uiso   1.00
O1562  O     0.50000   0.87292   0.57054   0.00000  Uiso   1.00
O1563  O     0.50000   0.79375   0.42946   0.00000  Uiso   1.00
O1564  O     0.37066   0.75279   0.48171   0.00000  Uiso   1.00
C1565  C     0.75405   0.83358   0.49900   0.00000  Uiso   1.00
C1566  C     0.68811   0.87684   0.50263   0.00000  Uiso   1.00
C1567  C     0.95738   0.83475   0.50146   0.00000  Uiso   1.00
C1568  C     0.70929   0.83475   0.49855   0.00000  Uiso   1.00
C1569  C     0.80724   0.69137   0.46623   0.00000  Uiso   1.00
C1570  C     0.86222   0.97537   0.53061   0.00000  Uiso   1.00
C1571  C     0.85943   0.69137   0.53377   0.00000  Uiso   1.00
C1572  C     0.80445   0.97537   0.46939   0.00000  Uiso   1.00
C1573  C     0.68641   0.74077   0.43311   0.00000  Uiso   1.00
C1574  C     0.67690   0.68984   0.43156   0.00000  Uiso   1.00
C1575  C     0.94784   0.92550   0.43890   0.00000  Uiso   1.00
C1576  C     0.91262   0.83358   0.50100   0.00000  Uiso   1.00
C1577  C     0.91539   0.96309   0.42977   0.00000  Uiso   1.00
C1578  C     0.98027   0.74073   0.56686   0.00000  Uiso   1.00
C1579  C     0.98978   0.68980   0.56837   0.00000  Uiso   1.00
C1580  C     0.71884   0.92548   0.56111   0.00000  Uiso   1.00
C1581  C     0.75129   0.96308   0.57024   0.00000  Uiso   1.00
C1582  C     0.79456   0.71207   0.38453   0.00000  Uiso   1.00
C1583  C     0.76760   0.74143   0.34708   0.00000  Uiso   1.00
C1584  C     0.89876   0.93172   0.59396   0.00000  Uiso   1.00
C1585  C     0.93679   0.94319   0.62942   0.00000  Uiso   1.00
C1586  C     0.87211   0.71207   0.61547   0.00000  Uiso   1.00
C1587  C     0.83342   0.83337   0.40704   0.00000  Uiso   1.00
C1588  C     0.89907   0.74144   0.65292   0.00000  Uiso   1.00
C1589  C     0.76790   0.93172   0.40605   0.00000  Uiso   1.00
C1590  C     0.72988   0.94318   0.37058   0.00000  Uiso   1.00
C1591  C     0.83325   0.83337   0.59296   0.00000  Uiso   1.00
C1592  C     0.83341   0.83359   0.35524   0.00000  Uiso   1.00
C1593  C     0.83325   0.83359   0.64476   0.00000  Uiso   1.00
C1594  C     0.68686   0.79368   0.49472   0.00000  Uiso   1.00
C1595  C     0.97856   0.87684   0.49738   0.00000  Uiso   1.00
C1596  C     0.97981   0.79368   0.50529   0.00000  Uiso   1.00
Cu1597 Cu    0.83333   0.88022   0.50000   0.00000  Uiso   1.00
Cu1598 Cu    0.83333   0.78645   0.50000   0.00000  Uiso   1.00
H1599  H     0.70850   0.74874   0.40695   0.00000  Uiso   1.00
H1600  H     0.88472   0.94822   0.43202   0.00000  Uiso   1.00
H1601  H     0.95818   0.74868   0.59303   0.00000  Uiso   1.00
H1602  H     0.67583   0.75923   0.58094   0.00000  Uiso   1.00
H1603  H     0.67983   0.68263   0.54346   0.00000  Uiso   1.00
H1604  H     0.66824   0.67933   0.60682   0.00000  Uiso   1.00
H1605  H     0.96202   0.66992   0.55505   0.00000  Uiso   1.00
H1606  H     0.73126   0.89382   0.58096   0.00000  Uiso   1.00
H1607  H     0.69117   0.93634   0.57750   0.00000  Uiso   1.00
H1608  H     0.74576   0.99117   0.54248   0.00000  Uiso   1.00
H1609  H     0.75111   0.97807   0.60783   0.00000  Uiso   1.00
H1610  H     0.99085   0.75928   0.41903   0.00000  Uiso   1.00
H1611  H     0.78196   0.94822   0.56799   0.00000  Uiso   1.00
H1612  H     0.79373   0.67665   0.37008   0.00000  Uiso   1.00
H1613  H     0.82674   0.72349   0.38576   0.00000  Uiso   1.00
H1614  H     0.76360   0.77647   0.36218   0.00000  Uiso   1.00
H1615  H     0.78155   0.74459   0.64543   0.00000  Uiso   1.00
H1616  H     0.73715   0.72513   0.33796   0.00000  Uiso   1.00
H1617  H     0.90159   0.89434   0.58736   0.00000  Uiso   1.00
H1618  H     0.87087   0.93791   0.61238   0.00000  Uiso   1.00
H1619  H     0.93850   0.98043   0.63806   0.00000  Uiso   1.00
H1620  H     0.93630   0.92347   0.66434   0.00000  Uiso   1.00
H1621  H     0.98683   0.68265   0.45645   0.00000  Uiso   1.00
H1622  H     0.96447   0.93283   0.61275   0.00000  Uiso   1.00
H1623  H     0.87295   0.67665   0.62992   0.00000  Uiso   1.00
H1624  H     0.83994   0.72349   0.61424   0.00000  Uiso   1.00
H1625  H     0.90308   0.77647   0.63780   0.00000  Uiso   1.00
H1626  H     0.88511   0.74461   0.35455   0.00000  Uiso   1.00
H1627  H     0.92952   0.72514   0.66205   0.00000  Uiso   1.00
H1628  H     0.76508   0.89433   0.41265   0.00000  Uiso   1.00
H1629  H     0.79580   0.93790   0.38763   0.00000  Uiso   1.00
H1630  H     0.72818   0.98042   0.36192   0.00000  Uiso   1.00
H1631  H     0.73036   0.92345   0.33567   0.00000  Uiso   1.00
H1632  H     0.99844   0.67939   0.39309   0.00000  Uiso   1.00
H1633  H     0.70220   0.93284   0.38725   0.00000  Uiso   1.00
H1634  H     0.70465   0.66995   0.44488   0.00000  Uiso   1.00
H1635  H     0.93543   0.89383   0.41904   0.00000  Uiso   1.00
H1636  H     0.97552   0.93636   0.42253   0.00000  Uiso   1.00
H1637  H     0.92091   0.99118   0.45754   0.00000  Uiso   1.00
H1638  H     0.91557   0.97808   0.39219   0.00000  Uiso   1.00
N1639  N     0.83333   0.95069   0.50000   0.00000  Uiso   1.00
N1640  N     0.83333   0.71598   0.50000   0.00000  Uiso   1.00
O1641  O     0.77321   0.87291   0.50000   0.00000  Uiso   1.00
O1642  O     0.95793   0.91831   0.49054   0.00000  Uiso   1.00
O1643  O     0.96267   0.75278   0.51828   0.00000  Uiso   1.00
O1644  O     0.70874   0.91831   0.50948   0.00000  Uiso   1.00
O1645  O     0.78051   0.71496   0.43186   0.00000  Uiso   1.00
O1646  O     0.89944   0.95522   0.54838   0.00000  Uiso   1.00
O1647  O     0.88616   0.71496   0.56814   0.00000  Uiso   1.00
O1648  O     0.76723   0.95523   0.45162   0.00000  Uiso   1.00
O1649  O     0.89345   0.79375   0.50000   0.00000  Uiso   1.00
O1650  O     0.89345   0.87291   0.50000   0.00000  Uiso   1.00
O1651  O     0.77321   0.79375   0.50000   0.00000  Uiso   1.00
O1652  O     0.83333   0.87292   0.42946   0.00000  Uiso   1.00
O1653  O     0.83333   0.79375   0.57054   0.00000  Uiso   1.00
O1654  O     0.83333   0.87292   0.57054   0.00000  Uiso   1.00
O1655  O     0.83333   0.79375   0.42946   0.00000  Uiso   1.00
O1656  O     0.70399   0.75279   0.48171   0.00000  Uiso   1.00
C1657  C     0.08738   0.16691   0.83234   0.00000  Uiso   1.00
C1658  C     0.02144   0.21017   0.83597   0.00000  Uiso   1.00
C1659  C     0.29071   0.16808   0.83479   0.00000  Uiso   1.00
C1660  C     0.04262   0.16808   0.83188   0.00000  Uiso   1.00
C1661  C     0.14058   0.02470   0.79957   0.00000  Uiso   1.00
C1662  C     0.19555   0.30870   0.86394   0.00000  Uiso   1.00
C1663  C     0.19276   0.02470   0.86710   0.00000  Uiso   1.00
C1664  C     0.13778   0.30870   0.80273   0.00000  Uiso   1.00
C1665  C     0.01974   0.07410   0.76645   0.00000  Uiso   1.00
C1666  C     0.01023   0.02317   0.76489   0.00000  Uiso   1.00
C1667  C     0.28118   0.25883   0.77224   0.00000  Uiso   1.00
C1668  C     0.24595   0.16691   0.83433   0.00000  Uiso   1.00
C1669  C     0.24873   0.29642   0.76310   0.00000  Uiso   1.00
C1670  C     0.31360   0.07406   0.90019   0.00000  Uiso   1.00
C1671  C     0.32311   0.02313   0.90170   0.00000  Uiso   1.00
C1672  C     0.05217   0.25882   0.89445   0.00000  Uiso   1.00
C1673  C     0.08462   0.29642   0.90358   0.00000  Uiso   1.00
C1674  C     0.12790   0.04540   0.71786   0.00000  Uiso   1.00
C1675  C     0.10093   0.07476   0.68041   0.00000  Uiso   1.00
C1676  C     0.23210   0.26506   0.92729   0.00000  Uiso   1.00
C1677  C     0.27012   0.27652   0.96275   0.00000  Uiso   1.00
C1678  C     0.20544   0.04541   0.94880   0.00000  Uiso   1.00
C1679  C     0.16675   0.16671   0.74038   0.00000  Uiso   1.00
C1680  C     0.23240   0.07477   0.98625   0.00000  Uiso   1.00
C1681  C     0.10124   0.26505   0.73938   0.00000  Uiso   1.00
C1682  C     0.06322   0.27651   0.70391   0.00000  Uiso   1.00
C1683  C     0.16658   0.16671   0.92629   0.00000  Uiso   1.00
C1684  C     0.16675   0.16692   0.68858   0.00000  Uiso   1.00
C1685  C     0.16659   0.16692   0.97809   0.00000  Uiso   1.00
C1686  C     0.02019   0.12701   0.82805   0.00000  Uiso   1.00
C1687  C     0.31189   0.21017   0.83071   0.00000  Uiso   1.00
C1688  C     0.31314   0.12701   0.83862   0.00000  Uiso   1.00
Cu1689 Cu    0.16667   0.21355   0.83333   0.00000  Uiso   1.00
Cu1690 Cu    0.16667   0.11978   0.83333   0.00000  Uiso   1.00
H1691  H     0.04184   0.08207   0.74029   0.00000  Uiso   1.00
H1692  H     0.21805   0.28155   0.76535   0.00000  Uiso   1.00
H1693  H     0.29151   0.08201   0.92637   0.00000  Uiso   1.00
H1694  H     0.00916   0.09257   0.91428   0.00000  Uiso   1.00
H1695  H     0.01317   0.01596   0.87679   0.00000  Uiso   1.00
H1696  H     0.00158   0.01266   0.94016   0.00000  Uiso   1.00
H1697  H     0.29535   0.00325   0.88838   0.00000  Uiso   1.00
H1698  H     0.06459   0.22715   0.91430   0.00000  Uiso   1.00
H1699  H     0.02450   0.26967   0.91083   0.00000  Uiso   1.00
H1700  H     0.07910   0.32450   0.87581   0.00000  Uiso   1.00
H1701  H     0.08444   0.31140   0.94116   0.00000  Uiso   1.00
H1702  H     0.32418   0.09261   0.75237   0.00000  Uiso   1.00
H1703  H     0.11529   0.28155   0.90132   0.00000  Uiso   1.00
H1704  H     0.12706   0.00998   0.70342   0.00000  Uiso   1.00
H1705  H     0.16007   0.05683   0.71909   0.00000  Uiso   1.00
H1706  H     0.09693   0.10980   0.69551   0.00000  Uiso   1.00
H1707  H     0.11489   0.07792   0.97877   0.00000  Uiso   1.00
H1708  H     0.07048   0.05847   0.67129   0.00000  Uiso   1.00
H1709  H     0.23492   0.22767   0.92069   0.00000  Uiso   1.00
H1710  H     0.20420   0.27124   0.94571   0.00000  Uiso   1.00
H1711  H     0.27183   0.31377   0.97139   0.00000  Uiso   1.00
H1712  H     0.26964   0.25681   0.99767   0.00000  Uiso   1.00
H1713  H     0.32016   0.01599   0.78979   0.00000  Uiso   1.00
H1714  H     0.29781   0.26616   0.94608   0.00000  Uiso   1.00
H1715  H     0.20628   0.00999   0.96326   0.00000  Uiso   1.00
H1716  H     0.17327   0.05683   0.94757   0.00000  Uiso   1.00
H1717  H     0.23641   0.10981   0.97114   0.00000  Uiso   1.00
H1718  H     0.21845   0.07795   0.68788   0.00000  Uiso   1.00
H1719  H     0.26285   0.05848   0.99538   0.00000  Uiso   1.00
H1720  H     0.09841   0.22767   0.74598   0.00000  Uiso   1.00
H1721  H     0.12913   0.27123   0.72096   0.00000  Uiso   1.00
H1722  H     0.06151   0.31375   0.69526   0.00000  Uiso   1.00
H1723  H     0.06370   0.25678   0.66900   0.00000  Uiso   1.00
H1724  H     0.33178   0.01272   0.72643   0.00000  Uiso   1.00
H1725  H     0.03553   0.26617   0.72058   0.00000  Uiso   1.00
H1726  H     0.03799   0.00329   0.77822   0.00000  Uiso   1.00
H1727  H     0.26876   0.22717   0.75237   0.00000  Uiso   1.00
H1728  H     0.30885   0.26969   0.75587   0.00000  Uiso   1.00
H1729  H     0.25424   0.32451   0.79087   0.00000  Uiso   1.00
H1730  H     0.24891   0.31141   0.72552   0.00000  Uiso   1.00
N1731  N     0.16667   0.28402   0.83333   0.00000  Uiso   1.00
N1732  N     0.16667   0.04931   0.83333   0.00000  Uiso   1.00
O1733  O     0.10655   0.20625   0.83333   0.00000  Uiso   1.00
O1734  O     0.29126   0.25164   0.82387   0.00000  Uiso   1.00
O1735  O     0.29601   0.08611   0.85161   0.00000  Uiso   1.00
O1736  O     0.04208   0.25164   0.84281   0.00000  Uiso   1.00
O1737  O     0.11385   0.04829   0.76519   0.00000  Uiso   1.00
O1738  O     0.23277   0.28856   0.88171   0.00000  Uiso   1.00
O1739  O     0.21949   0.04829   0.90147   0.00000  Uiso   1.00
O1740  O     0.10056   0.28856   0.78496   0.00000  Uiso   1.00
O1741  O     0.22679   0.12709   0.83334   0.00000  Uiso   1.00
O1742  O     0.22679   0.20625   0.83334   0.00000  Uiso   1.00
O1743  O     0.10655   0.12709   0.83333   0.00000  Uiso   1.00
O1744  O     0.16667   0.20625   0.76280   0.00000  Uiso   1.00
O1745  O     0.16667   0.12708   0.90387   0.00000  Uiso   1.00
O1746  O     0.16667   0.20625   0.90387   0.00000  Uiso   1.00
O1747  O     0.16667   0.12708   0.76280   0.00000  Uiso   1.00
O1748  O     0.03732   0.08612   0.81504   0.00000  Uiso   1.00
C1749  C     0.42072   0.16691   0.83234   0.00000  Uiso   1.00
C1750  C     0.35478   0.21017   0.83597   0.00000  Uiso   1.00
C1751  C     0.62404   0.16808   0.83479   0.00000  Uiso   1.00
C1752  C     0.37596   0.16808   0.83188   0.00000  Uiso   1.00
C1753  C     0.47391   0.02470   0.79957   0.00000  Uiso   1.00
C1754  C     0.52888   0.30870   0.86394   0.00000  Uiso   1.00
C1755  C     0.52609   0.02470   0.86710   0.00000  Uiso   1.00
C1756  C     0.47112   0.30870   0.80273   0.00000  Uiso   1.00
C1757  C     0.35307   0.07410   0.76645   0.00000  Uiso   1.00
C1758  C     0.34356   0.02317   0.76489   0.00000  Uiso   1.00
C1759  C     0.61451   0.25883   0.77224   0.00000  Uiso   1.00
C1760  C     0.57928   0.16691   0.83433   0.00000  Uiso   1.00
C1761  C     0.58206   0.29642   0.76310   0.00000  Uiso   1.00
C1762  C     0.64693   0.07406   0.90019   0.00000  Uiso   1.00
C1763  C     0.65644   0.02313   0.90170   0.00000  Uiso   1.00
C1764  C     0.38550   0.25882   0.89445   0.00000  Uiso   1.00
C1765  C     0.41795   0.29642   0.90358   0.00000  Uiso   1.00
C1766  C     0.46123   0.04540   0.71786   0.00000  Uiso   1.00
C1767  C     0.43427   0.07476   0.68041   0.00000  Uiso   1.00
C1768  C     0.56543   0.26506   0.92729   0.00000  Uiso   1.00
C1769  C     0.60345   0.27652   0.96275   0.00000  Uiso   1.00
C1770  C     0.53878   0.04541   0.94880   0.00000  Uiso   1.00
C1771  C     0.50009   0.16671   0.74038   0.00000  Uiso   1.00
C1772  C     0.56574   0.07477   0.98625   0.00000  Uiso   1.00
C1773  C     0.43457   0.26505   0.73938   0.00000  Uiso   1.00
C1774  C     0.39655   0.27651   0.70391   0.00000  Uiso   1.00
C1775  C     0.49991   0.16671   0.92629   0.00000  Uiso   1.00
C1776  C     0.50008   0.16692   0.68858   0.00000  Uiso   1.00
C1777  C     0.49992   0.16692   0.97809   0.00000  Uiso   1.00
C1778  C     0.35352   0.12701   0.82805   0.00000  Uiso   1.00
C1779  C     0.64523   0.21017   0.83071   0.00000  Uiso   1.00
C1780  C     0.64648   0.12701   0.83862   0.00000  Uiso   1.00
Cu1781 Cu    0.50000   0.21355   0.83333   0.00000  Uiso   1.00
Cu1782 Cu    0.50000   0.11978   0.83333   0.00000  Uiso   1.00
H1783  H     0.37517   0.08207   0.74029   0.00000  Uiso   1.00
H1784  H     0.55138   0.28155   0.76535   0.00000  Uiso   1.00
H1785  H     0.62484   0.08201   0.92637   0.00000  Uiso   1.00
H1786  H     0.34249   0.09257   0.91428   0.00000  Uiso   1.00
H1787  H     0.34650   0.01596   0.87679   0.00000  Uiso   1.00
H1788  H     0.33491   0.01266   0.94016   0.00000  Uiso   1.00
H1789  H     0.62868   0.00325   0.88838   0.00000  Uiso   1.00
H1790  H     0.39793   0.22715   0.91430   0.00000  Uiso   1.00
H1791  H     0.35784   0.26967   0.91083   0.00000  Uiso   1.00
H1792  H     0.41243   0.32450   0.87581   0.00000  Uiso   1.00
H1793  H     0.41777   0.31140   0.94116   0.00000  Uiso   1.00
H1794  H     0.65752   0.09261   0.75237   0.00000  Uiso   1.00
H1795  H     0.44863   0.28155   0.90132   0.00000  Uiso   1.00
H1796  H     0.46039   0.00998   0.70342   0.00000  Uiso   1.00
H1797  H     0.49340   0.05683   0.71909   0.00000  Uiso   1.00
H1798  H     0.43026   0.10980   0.69551   0.00000  Uiso   1.00
H1799  H     0.44822   0.07792   0.97877   0.00000  Uiso   1.00
H1800  H     0.40382   0.05847   0.67129   0.00000  Uiso   1.00
H1801  H     0.56825   0.22767   0.92069   0.00000  Uiso   1.00
H1802  H     0.53754   0.27124   0.94571   0.00000  Uiso   1.00
H1803  H     0.60517   0.31377   0.97139   0.00000  Uiso   1.00
H1804  H     0.60297   0.25681   0.99767   0.00000  Uiso   1.00
H1805  H     0.65349   0.01599   0.78979   0.00000  Uiso   1.00
H1806  H     0.63114   0.26616   0.94608   0.00000  Uiso   1.00
H1807  H     0.53962   0.00999   0.96326   0.00000  Uiso   1.00
H1808  H     0.50660   0.05683   0.94757   0.00000  Uiso   1.00
H1809  H     0.56975   0.10981   0.97114   0.00000  Uiso   1.00
H1810  H     0.55178   0.07795   0.68788   0.00000  Uiso   1.00
H1811  H     0.59618   0.05848   0.99538   0.00000  Uiso   1.00
H1812  H     0.43175   0.22767   0.74598   0.00000  Uiso   1.00
H1813  H     0.46247   0.27123   0.72096   0.00000  Uiso   1.00
H1814  H     0.39484   0.31375   0.69526   0.00000  Uiso   1.00
H1815  H     0.39703   0.25678   0.66900   0.00000  Uiso   1.00
H1816  H     0.66511   0.01272   0.72643   0.00000  Uiso   1.00
H1817  H     0.36886   0.26617   0.72058   0.00000  Uiso   1.00
H1818  H     0.37132   0.00329   0.77822   0.00000  Uiso   1.00
H1819  H     0.60210   0.22717   0.75237   0.00000  Uiso   1.00
H1820  H     0.64218   0.26969   0.75587   0.00000  Uiso   1.00
H1821  H     0.58758   0.32451   0.79087   0.00000  Uiso   1.00
H1822  H     0.58224   0.31141   0.72552   0.00000  Uiso   1.00
N1823  N     0.50000   0.28402   0.83333   0.00000  Uiso   1.00
N1824  N     0.50000   0.04931   0.83333   0.00000  Uiso   1.00
O1825  O     0.43988   0.20625   0.83333   0.00000  Uiso   1.00
O1826  O     0.62459   0.25164   0.82387   0.00000  Uiso   1.00
O1827  O     0.62934   0.08611   0.85161   0.00000  Uiso   1.00
O1828  O     0.37541   0.25164   0.84281   0.00000  Uiso   1.00
O1829  O     0.44718   0.04829   0.76519   0.00000  Uiso   1.00
O1830  O     0.56610   0.28856   0.88171   0.00000  Uiso   1.00
O1831  O     0.55282   0.04829   0.90147   0.00000  Uiso   1.00
O1832  O     0.43389   0.28856   0.78496   0.00000  Uiso   1.00
O1833  O     0.56012   0.12709   0.83334   0.00000  Uiso   1.00
O1834  O     0.56012   0.20625   0.83334   0.00000  Uiso   1.00
O1835  O     0.43988   0.12709   0.83333   0.00000  Uiso   1.00
O1836  O     0.50000   0.20625   0.76280   0.00000  Uiso   1.00
O1837  O     0.50000   0.12708   0.90387   0.00000  Uiso   1.00
O1838  O     0.50000   0.20625   0.90387   0.00000  Uiso   1.00
O1839  O     0.50000   0.12708   0.76280   0.00000  Uiso   1.00
O1840  O     0.37066   0.08612   0.81504   0.00000  Uiso   1.00
C1841  C     0.75405   0.16691   0.83234   0.00000  Uiso   1.00
C1842  C     0.68811   0.21017   0.83597   0.00000  Uiso   1.00
C1843  C     0.95738   0.16808   0.83479   0.00000  Uiso   1.00
C1844  C     0.70929   0.16808   0.83188   0.00000  Uiso   1.00
C1845  C     0.80724   0.02470   0.79957   0.00000  Uiso   1.00
C1846  C     0.86222   0.30870   0.86394   0.00000  Uiso   1.00
C1847  C     0.85943   0.02470   0.86710   0.00000  Uiso   1.00
C1848  C     0.80445   0.30870   0.80273   0.00000  Uiso   1.00
C1849  C     0.68641   0.07410   0.76645   0.00000  Uiso   1.00
C1850  C     0.67690   0.02317   0.76489   0.00000  Uiso   1.00
C1851  C     0.94784   0.25883   0.77224   0.00000  Uiso   1.00
C1852  C     0.91262   0.16691   0.83433   0.00000  Uiso   1.00
C1853  C     0.91539   0.29642   0.76310   0.00000  Uiso   1.00
C1854  C     0.98027   0.07406   0.90019   0.00000  Uiso   1.00
C1855  C     0.98978   0.02313   0.90170   0.00000  Uiso   1.00
C1856  C     0.71884   0.25882   0.89445   0.00000  Uiso   1.00
C1857  C     0.75129   0.29642   0.90358   0.00000  Uiso   1.00
C1858  C     0.79456   0.04540   0.71786   0.00000  Uiso   1.00
C1859  C     0.76760   0.07476   0.68041   0.00000  Uiso   1.00
C1860  C     0.89876   0.26506   0.92729   0.00000  Uiso   1.00
C1861  C     0.93679   0.27652   0.96275   0.00000  Uiso   1.00
C1862  C     0.87211   0.04541   0.94880   0.00000  Uiso   1.00
C1863  C     0.83342   0.16671   0.74038   0.00000  Uiso   1.00
C1864  C     0.89907   0.07477   0.98625   0.00000  Uiso   1.00
C1865  C     0.76790   0.26505   0.73938   0.00000  Uiso   1.00
C1866  C     0.72988   0.27651   0.70391   0.00000  Uiso   1.00
C1867  C     0.83325   0.16671   0.92629   0.00000  Uiso   1.00
C1868  C     0.83341   0.16692   0.68858   0.00000  Uiso   1.00
C1869  C     0.83325   0.16692   0.97809   0.00000  Uiso   1.00
C1870  C     0.68686   0.12701   0.82805   0.00000  Uiso   1.00
C1871  C     0.97856   0.21017   0.83071   0.00000  Uiso   1.00
C1872  C     0.97981   0.12701   0.83862   0.00000  Uiso   1.00
Cu1873 Cu    0.83333   0.21355   0.83333   0.00000  Uiso   1.00
Cu1874 Cu    0.83333   0.11978   0.83333   0.00000  Uiso   1.00
H1875  H     0.70850   0.08207   0.74029   0.00000  Uiso   1.00
H1876  H     0.88472   0.28155   0.76535   0.00000  Uiso   1.00
H1877  H     0.95818   0.08201   0.92637   0.00000  Uiso   1.00
H1878  H     0.67583   0.09257   0.91428   0.00000  Uiso   1.00
H1879  H     0.67983   0.01596   0.87679   0.00000  Uiso   1.00
H1880  H     0.66824   0.01266   0.94016   0.00000  Uiso   1.00
H1881  H     0.96202   0.00325   0.88838   0.00000  Uiso   1.00
H1882  H     0.73126   0.22715   0.91430   0.00000  Uiso   1.00
H1883  H     0.69117   0.26967   0.91083   0.00000  Uiso   1.00
H1884  H     0.74576   0.32450   0.87581   0.00000  Uiso   1.00
H1885  H     0.75111   0.31140   0.94116   0.00000  Uiso   1.00
H1886  H     0.99085   0.09261   0.75237   0.00000  Uiso   1.00
H1887  H     0.78196   0.28155   0.90132   0.00000  Uiso   1.00
H1888  H     0.79373   0.00998   0.70342   0.00000  Uiso   1.00
H1889  H     0.82674   0.05683   0.71909   0.00000  Uiso   1.00
H1890  H     0.76360   0.10980   0.69551   0.00000  Uiso   1.00
H1891  H     0.78155   0.07792   0.97877   0.00000  Uiso   1.00
H1892  H     0.73715   0.05847   0.67129   0.00000  Uiso   1.00
H1893  H     0.90159   0.22767   0.92069   0.00000  Uiso   1.00
H1894  H     0.87087   0.27124   0.94571   0.00000  Uiso   1.00
H1895  H     0.93850   0.31377   0.97139   0.00000  Uiso   1.00
H1896  H     0.93630   0.25681   0.99767   0.00000  Uiso   1.00
H1897  H     0.98683   0.01599   0.78979   0.00000  Uiso   1.00
H1898  H     0.96447   0.26616   0.94608   0.00000  Uiso   1.00
H1899  H     0.87295   0.00999   0.96326   0.00000  Uiso   1.00
H1900  H     0.83994   0.05683   0.94757   0.00000  Uiso   1.00
H1901  H     0.90308   0.10981   0.97114   0.00000  Uiso   1.00
H1902  H     0.88511   0.07795   0.68788   0.00000  Uiso   1.00
H1903  H     0.92952   0.05848   0.99538   0.00000  Uiso   1.00
H1904  H     0.76508   0.22767   0.74598   0.00000  Uiso   1.00
H1905  H     0.79580   0.27123   0.72096   0.00000  Uiso   1.00
H1906  H     0.72818   0.31375   0.69526   0.00000  Uiso   1.00
H1907  H     0.73036   0.25678   0.66900   0.00000  Uiso   1.00
H1908  H     0.99844   0.01272   0.72643   0.00000  Uiso   1.00
H1909  H     0.70220   0.26617   0.72058   0.00000  Uiso   1.00
H1910  H     0.70465   0.00329   0.77822   0.00000  Uiso   1.00
H1911  H     0.93543   0.22717   0.75237   0.00000  Uiso   1.00
H1912  H     0.97552   0.26969   0.75587   0.00000  Uiso   1.00
H1913  H     0.92091   0.32451   0.79087   0.00000  Uiso   1.00
H1914  H     0.91557   0.31141   0.72552   0.00000  Uiso   1.00
N1915  N     0.83333   0.28402   0.83333   0.00000  Uiso   1.00
N1916  N     0.83333   0.04931   0.83333   0.00000  Uiso   1.00
O1917  O     0.77321   0.20625   0.83333   0.00000  Uiso   1.00
O1918  O     0.95793   0.25164   0.82387   0.00000  Uiso   1.00
O1919  O     0.96267   0.08611   0.85161   0.00000  Uiso   1.00
O1920  O     0.70874   0.25164   0.84281   0.00000  Uiso   1.00
O1921  O     0.78051   0.04829   0.76519   0.00000  Uiso   1.00
O1922  O     0.89944   0.28856   0.88171   0.00000  Uiso   1.00
O1923  O     0.88616   0.04829   0.90147   0.00000  Uiso   1.00
O1924  O     0.76723   0.28856   0.78496   0.00000  Uiso   1.00
O1925  O     0.89345   0.12709   0.83334   0.00000  Uiso   1.00
O1926  O     0.89345   0.20625   0.83334   0.00000  Uiso   1.00
O1927  O     0.77321   0.12709   0.83333   0.00000  Uiso   1.00
O1928  O     0.83333   0.20625   0.76280   0.00000  Uiso   1.00
O1929  O     0.83333   0.12708   0.90387   0.00000  Uiso   1.00
O1930  O     0.83333   0.20625   0.90387   0.00000  Uiso   1.00
O1931  O     0.83333   0.12708   0.76280   0.00000  Uiso   1.00
O1932  O     0.70399   0.08612   0.81504   0.00000  Uiso   1.00
C1933  C     0.08738   0.50025   0.83234   0.00000  Uiso   1.00
C1934  C     0.02144   0.54350   0.83597   0.00000  Uiso   1.00
C1935  C     0.29071   0.50142   0.83479   0.00000  Uiso   1.00
C1936  C     0.04262   0.50142   0.83188   0.00000  Uiso   1.00
C1937  C     0.14058   0.35804   0.79957   0.00000  Uiso   1.00
C1938  C     0.19555   0.64203   0.86394   0.00000  Uiso   1.00
C1939  C     0.19276   0.35804   0.86710   0.00000  Uiso   1.00
C1940  C     0.13778   0.64204   0.80273   0.00000  Uiso   1.00
C1941  C     0.01974   0.40743   0.76645   0.00000  Uiso   1.00
C1942  C     0.01023   0.35650   0.76489   0.00000  Uiso   1.00
C1943  C     0.28118   0.59216   0.77224   0.00000  Uiso   1.00
C1944  C     0.24595   0.50025   0.83433   0.00000  Uiso   1.00
C1945  C     0.24873   0.62976   0.76310   0.00000  Uiso   1.00
C1946  C     0.31360   0.40740   0.90019   0.00000  Uiso   1.00
C1947  C     0.32311   0.35646   0.90170   0.00000  Uiso   1.00
C1948  C     0.05217   0.59215   0.89445   0.00000  Uiso   1.00
C1949  C     0.08462   0.62975   0.90358   0.00000  Uiso   1.00
C1950  C     0.12790   0.37874   0.71786   0.00000  Uiso   1.00
C1951  C     0.10093   0.40809   0.68041   0.00000  Uiso   1.00
C1952  C     0.23210   0.59839   0.92729   0.00000  Uiso   1.00
C1953  C     0.27012   0.60985   0.96275   0.00000  Uiso   1.00
C1954  C     0.20544   0.37874   0.94880   0.00000  Uiso   1.00
C1955  C     0.16675   0.50004   0.74038   0.00000  Uiso   1.00
C1956  C     0.23240   0.40811   0.98625   0.00000  Uiso   1.00
C1957  C     0.10124   0.59839   0.73938   0.00000  Uiso   1.00
C1958  C     0.06322   0.60984   0.70391   0.00000  Uiso   1.00
C1959  C     0.16658   0.50004   0.92629   0.00000  Uiso   1.00
C1960  C     0.16675   0.50026   0.68858   0.00000  Uiso   1.00
C1961  C     0.16659   0.50026   0.97809   0.00000  Uiso   1.00
C1962  C     0.02019   0.46035   0.82805   0.00000  Uiso   1.00
C1963  C     0.31189   0.54350   0.83071   0.00000  Uiso   1.00
C1964  C     0.31314   0.46035   0.83862   0.00000  Uiso   1.00
Cu1965 Cu    0.16667   0.54689   0.83333   0.00000  Uiso   1.00
Cu1966 Cu    0.16667   0.45311   0.83333   0.00000  Uiso   1.00
H1967  H     0.04184   0.41540   0.74029   0.00000  Uiso   1.00
H1968  H     0.21805   0.61489   0.76535   0.00000  Uiso   1.00
H1969  H     0.29151   0.41534   0.92637   0.00000  Uiso   1.00
H1970  H     0.00916   0.42590   0.91428   0.00000  Uiso   1.00
H1971  H     0.01317   0.34930   0.87679   0.00000  Uiso   1.00
H1972  H     0.00158   0.34600   0.94016   0.00000  Uiso   1.00
H1973  H     0.29535   0.33659   0.88838   0.00000  Uiso   1.00
H1974  H     0.06459   0.56049   0.91430   0.00000  Uiso   1.00
H1975  H     0.02450   0.60300   0.91083   0.00000  Uiso   1.00
H1976  H     0.07910   0.65784   0.87581   0.00000  Uiso   1.00
H1977  H     0.08444   0.64474   0.94116   0.00000  Uiso   1.00
H1978  H     0.32418   0.42594   0.75237   0.00000  Uiso   1.00
H1979  H     0.11529   0.61489   0.90132   0.00000  Uiso   1.00
H1980  H     0.12706   0.34331   0.70342   0.00000  Uiso   1.00
H1981  H     0.16007   0.39016   0.71909   0.00000  Uiso   1.00
H1982  H     0.09693   0.44313   0.69551   0.00000  Uiso   1.00
H1983  H     0.11489   0.41125   0.97877   0.00000  Uiso   1.00
H1984  H     0.07048   0.39180   0.67129   0.00000  Uiso   1.00
H1985  H     0.23492   0.56100   0.92069   0.00000  Uiso   1.00
H1986  H     0.20420   0.60457   0.94571   0.00000  Uiso   1.00
H1987  H     0.27183   0.64710   0.97139   0.00000  Uiso   1.00
H1988  H     0.26964   0.59014   0.99767   0.00000  Uiso   1.00
H1989  H     0.32016   0.34932   0.78979   0.00000  Uiso   1.00
H1990  H     0.29781   0.59950   0.94608   0.00000  Uiso   1.00
H1991  H     0.20628   0.34332   0.96326   0.00000  Uiso   1.00
H1992  H     0.17327   0.39016   0.94757   0.00000  Uiso   1.00
H1993  H     0.23641   0.44314   0.97114   0.00000  Uiso   1.00
H1994  H     0.21845   0.41128   0.68788   0.00000  Uiso   1.00
H1995  H     0.26285   0.39181   0.99538   0.00000  Uiso   1.00
H1996  H     0.09841   0.56100   0.74598   0.00000  Uiso   1.00
H1997  H     0.12913   0.60457   0.72096   0.00000  Uiso   1.00
H1998  H     0.06151   0.64709   0.69526   0.00000  Uiso   1.00
H1999  H     0.06370   0.59012   0.66900   0.00000  Uiso   1.00
H2000  H     0.33178   0.34605   0.72643   0.00000  Uiso   1.00
H2001  H     0.03553   0.59950   0.72058   0.00000  Uiso   1.00
H2002  H     0.03799   0.33662   0.77822   0.00000  Uiso   1.00
H2003  H     0.26876   0.56050   0.75237   0.00000  Uiso   1.00
H2004  H     0.30885   0.60303   0.75587   0.00000  Uiso   1.00
H2005  H     0.25424   0.65784   0.79087   0.00000  Uiso   1.00
H2006  H     0.24891   0.64475   0.72552   0.00000  Uiso   1.00
N2007  N     0.16667   0.61736   0.83333   0.00000  Uiso   1.00
N2008  N     0.16667   0.38264   0.83333   0.00000  Uiso   1.00
O2009  O     0.10655   0.53958   0.83333   0.00000  Uiso   1.00
O2010  O     0.29126   0.58497   0.82387   0.00000  Uiso   1.00
O2011  O     0.29601   0.41945   0.85161   0.00000  Uiso   1.00
O2012  O     0.04208   0.58497   0.84281   0.00000  Uiso   1.00
O2013  O     0.11385   0.38163   0.76519   0.00000  Uiso   1.00
O2014  O     0.23277   0.62189   0.88171   0.00000  Uiso   1.00
O2015  O     0.21949   0.38163   0.90147   0.00000  Uiso   1.00
O2016  O     0.10056   0.62189   0.78496   0.00000  Uiso   1.00
O2017  O     0.22679   0.46042   0.83334   0.00000  Uiso   1.00
O2018  O     0.22679   0.53958   0.83334   0.00000  Uiso   1.00
O2019  O     0.10655   0.46042   0.83333   0.00000  Uiso   1.00
O2020  O     0.16667   0.53959   0.76280   0.00000  Uiso   1.00
O2021  O     0.16667   0.46041   0.90387   0.00000  Uiso   1.00
O2022  O     0.16667   0.53959   0.90387   0.00000  Uiso   1.00
O2023  O     0.16667   0.46041   0.76280   0.00000  Uiso   1.00
O2024  O     0.03732   0.41945   0.81504   0.00000  Uiso   1.00
C2025  C     0.42072   0.50025   0.83234   0.00000  Uiso   1.00
C2026  C     0.35478   0.54350   0.83597   0.00000  Uiso   1.00
C2027  C     0.62404   0.50142   0.83479   0.00000  Uiso   1.00
C2028  C     0.37596   0.50142   0.83188   0.00000  Uiso   1.00
C2029  C     0.47391   0.35804   0.79957   0.00000  Uiso   1.00
C2030  C     0.52888   0.64203   0.86394   0.00000  Uiso   1.00
C2031  C     0.52609   0.35804   0.86710   0.00000  Uiso   1.00
C2032  C     0.47112   0.64204   0.80273   0.00000  Uiso   1.00
C2033  C     0.35307   0.40743   0.76645   0.00000  Uiso   1.00
C2034  C     0.34356   0.35650   0.76489   0.00000  Uiso   1.00
C2035  C     0.61451   0.59216   0.77224   0.00000  Uiso   1.00
C2036  C     0.57928   0.50025   0.83433   0.00000  Uiso   1.00
C2037  C     0.58206   0.62976   0.76310   0.00000  Uiso   1.00
C2038  C     0.64693   0.40740   0.90019   0.00000  Uiso   1.00
C2039  C     0.65644   0.35646   0.90170   0.00000  Uiso   1.00
C2040  C     0.38550   0.59215   0.89445   0.00000  Uiso   1.00
C2041  C     0.41795   0.62975   0.90358   0.00000  Uiso   1.00
C2042  C     0.46123   0.37874   0.71786   0.00000  Uiso   1.00
C2043  C     0.43427   0.40809   0.68041   0.00000  Uiso   1.00
C2044  C     0.56543   0.59839   0.92729   0.00000  Uiso   1.00
C2045  C     0.60345   0.60985   0.96275   0.00000  Uiso   1.00
C2046  C     0.53878   0.37874   0.94880   0.00000  Uiso   1.00
C2047  C     0.50009   0.50004   0.74038   0.00000  Uiso   1.00
C2048  C     0.56574   0.40811   0.98625   0.00000  Uiso   1.00
C2049  C     0.43457   0.59839   0.73938   0.00000  Uiso   1.00
C2050  C     0.39655   0.60984   0.70391   0.00000  Uiso   1.00
C2051  C     0.49991   0.50004   0.92629   0.00000  Uiso   1.00
C2052  C     0.50008   0.50026   0.68858   0.00000  Uiso   1.00
C2053  C     0.49992   0.50026   0.97809   0.00000  Uiso   1.00
C2054  C     0.35352   0.46035   0.82805   0.00000  Uiso   1.00
C2055  C     0.64523   0.54350   0.83071   0.00000  Uiso   1.00
C2056  C     0.64648   0.46035   0.83862   0.00000  Uiso   1.00
Cu2057 Cu    0.50000   0.54689   0.83333   0.00000  Uiso   1.00
Cu2058 Cu    0.50000   0.45311   0.83333   0.00000  Uiso   1.00
H2059  H     0.37517   0.41540   0.74029   0.00000  Uiso   1.00
H2060  H     0.55138   0.61489   0.76535   0.00000  Uiso   1.00
H2061  H     0.62484   0.41534   0.92637   0.00000  Uiso   1.00
H2062  H     0.34249   0.42590   0.91428   0.00000  Uiso   1.00
H2063  H     0.34650   0.34930   0.87679   0.00000  Uiso   1.00
H2064  H     0.33491   0.34600   0.94016   0.00000  Uiso   1.00
H2065  H     0.62868   0.33659   0.88838   0.00000  Uiso   1.00
H2066  H     0.39793   0.56049   0.91430   0.00000  Uiso   1.00
H2067  H     0.35784   0.60300   0.91083   0.00000  Uiso   1.00
H2068  H     0.41243   0.65784   0.87581   0.00000  Uiso   1.00
H2069  H     0.41777   0.64474   0.94116   0.00000  Uiso   1.00
H2070  H     0.65752   0.42594   0.75237   0.00000  Uiso   1.00
H2071  H     0.44863   0.61489   0.90132   0.00000  Uiso   1.00
H2072  H     0.46039   0.34331   0.70342   0.00000  Uiso   1.00
H2073  H     0.49340   0.39016   0.71909   0.00000  Uiso   1.00
H2074  H     0.43026   0.44313   0.69551   0.00000  Uiso   1.00
H2075  H     0.44822   0.41125   0.97877   0.00000  Uiso   1.00
H2076  H     0.40382   0.39180   0.67129   0.00000  Uiso   1.00
H2077  H     0.56825   0.56100   0.92069   0.00000  Uiso   1.00
H2078  H     0.53754   0.60457   0.94571   0.00000  Uiso   1.00
H2079  H     0.60517   0.64710   0.97139   0.00000  Uiso   1.00
H2080  H     0.60297   0.59014   0.99767   0.00000  Uiso   1.00
H2081  H     0.65349   0.34932   0.78979   0.00000  Uiso   1.00
H2082  H     0.63114   0.59950   0.94608   0.00000  Uiso   1.00
H2083  H     0.53962   0.34332   0.96326   0.00000  Uiso   1.00
H2084  H     0.50660   0.39016   0.94757   0.00000  Uiso   1.00
H2085  H     0.56975   0.44314   0.97114   0.00000  Uiso   1.00
H2086  H     0.55178   0.41128   0.68788   0.00000  Uiso   1.00
H2087  H     0.59618   0.39181   0.99538   0.00000  Uiso   1.00
H2088  H     0.43175   0.56100   0.74598   0.00000  Uiso   1.00
H2089  H     0.46247   0.60457   0.72096   0.00000  Uiso   1.00
H2090  H     0.39484   0.64709   0.69526   0.00000  Uiso   1.00
H2091  H     0.39703   0.59012   0.66900   0.00000  Uiso   1.00
H2092  H     0.66511   0.34605   0.72643   0.00000  Uiso   1.00
H2093  H     0.36886   0.59950   0.72058   0.00000  Uiso   1.00
H2094  H     0.37132   0.33662   0.77822   0.00000  Uiso   1.00
H2095  H     0.60210   0.56050   0.75237   0.00000  Uiso   1.00
H2096  H     0.64218   0.60303   0.75587   0.00000  Uiso   1.00
H2097  H     0.58758   0.65784   0.79087   0.00000  Uiso   1.00
H2098  H     0.58224   0.64475   0.72552   0.00000  Uiso   1.00
N2099  N     0.50000   0.61736   0.83333   0.00000  Uiso   1.00
N2100  N     0.50000   0.38264   0.83333   0.00000  Uiso   1.00
O2101  O     0.43988   0.53958   0.83333   0.00000  Uiso   1.00
O2102  O     0.62459   0.58497   0.82387   0.00000  Uiso   1.00
O2103  O     0.62934   0.41945   0.85161   0.00000  Uiso   1.00
O2104  O     0.37541   0.58497   0.84281   0.00000  Uiso   1.00
O2105  O     0.44718   0.38163   0.76519   0.00000  Uiso   1.00
O2106  O     0.56610   0.62189   0.88171   0.00000  Uiso   1.00
O2107  O     0.55282   0.38163   0.90147   0.00000  Uiso   1.00
O2108  O     0.43389   0.62189   0.78496   0.00000  Uiso   1.00
O2109  O     0.56012   0.46042   0.83334   0.00000  Uiso   1.00
O2110  O     0.56012   0.53958   0.83334   0.00000  Uiso   1.00
O2111  O     0.43988   0.46042   0.83333   0.00000  Uiso   1.00
O2112  O     0.50000   0.53959   0.76280   0.00000  Uiso   1.00
O2113  O     0.50000   0.46041   0.90387   0.00000  Uiso   1.00
O2114  O     0.50000   0.53959   0.90387   0.00000  Uiso   1.00
O2115  O     0.50000   0.46041   0.76280   0.00000  Uiso   1.00
O2116  O     0.37066   0.41945   0.81504   0.00000  Uiso   1.00
C2117  C     0.75405   0.50025   0.83234   0.00000  Uiso   1.00
C2118  C     0.68811   0.54350   0.83597   0.00000  Uiso   1.00
C2119  C     0.95738   0.50142   0.83479   0.00000  Uiso   1.00
C2120  C     0.70929   0.50142   0.83188   0.00000  Uiso   1.00
C2121  C     0.80724   0.35804   0.79957   0.00000  Uiso   1.00
C2122  C     0.86222   0.64203   0.86394   0.00000  Uiso   1.00
C2123  C     0.85943   0.35804   0.86710   0.00000  Uiso   1.00
C2124  C     0.80445   0.64204   0.80273   0.00000  Uiso   1.00
C2125  C     0.68641   0.40743   0.76645   0.00000  Uiso   1.00
C2126  C     0.67690   0.35650   0.76489   0.00000  Uiso   1.00
C2127  C     0.94784   0.59216   0.77224   0.00000  Uiso   1.00
C2128  C     0.91262   0.50025   0.83433   0.00000  Uiso   1.00
C2129  C     0.91539   0.62976   0.76310   0.00000  Uiso   1.00
C2130  C     0.98027   0.40740   0.90019   0.00000  Uiso   1.00
C2131  C     0.98978   0.35646   0.90170   0.00000  Uiso   1.00
C2132  C     0.71884   0.59215   0.89445   0.00000  Uiso   1.00
C2133  C     0.75129   0.62975   0.90358   0.00000  Uiso   1.00
C2134  C     0.79456   0.37874   0.71786   0.00000  Uiso   1.00
C2135  C     0.76760   0.40809   0.68041   0.00000  Uiso   1.00
C2136  C     0.89876   0.59839   0.92729   0.00000  Uiso   1.00
C2137  C     0.93679   0.60985   0.96275   0.00000  Uiso   1.00
C2138  C     0.87211   0.37874   0.94880   0.00000  Uiso   1.00
C2139  C     0.83342   0.50004   0.74038   0.00000  Uiso   1.00
C2140  C     0.89907   0.40811   0.98625   0.00000  Uiso   1.00
C2141  C     0.76790   0.59839   0.73938   0.00000  Uiso   1.00
C2142  C     0.72988   0.60984   0.70391   0.00000  Uiso   1.00
C2143  C     0.83325   0.50004   0.92629   0.00000  Uiso   1.00
C2144  C     0.83341   0.50026   0.68858   0.00000  Uiso   1.00
C2145  C     0.83325   0.50026   0.97809   0.00000  Uiso   1.00
C2146  C     0.68686   0.46035   0.82805   0.00000  Uiso   1.00
C2147  C     0.97856   0.54350   0.83071   0.00000  Uiso   1.00
C2148  C     0.97981   0.46035   0.83862   0.00000  Uiso   1.00
Cu2149 Cu    0.83333   0.54689   0.83333   0.00000  Uiso   1.00
Cu2150 Cu    0.83333   0.45311   0.83333   0.00000  Uiso   1.00
H2151  H     0.70850   0.41540   0.74029   0.00000  Uiso   1.00
H2152  H     0.88472   0.61489   0.76535   0.00000  Uiso   1.00
H2153  H     0.95818   0.41534   0.92637   0.00000  Uiso   1.00
H2154  H     0.67583   0.42590   0.91428   0.00000  Uiso   1.00
H2155  H     0.67983   0.34930   0.87679   0.00000  Uiso   1.00
H2156  H     0.66824   0.34600   0.94016   0.00000  Uiso   1.00
H2157  H     0.96202   0.33659   0.88838   0.00000  Uiso   1.00
H2158  H     0.73126   0.56049   0.91430   0.00000  Uiso   1.00
H2159  H     0.69117   0.60300   0.91083   0.00000  Uiso   1.00
H2160  H     0.74576   0.65784   0.87581   0.00000  Uiso   1.00
H2161  H     0.75111   0.64474   0.94116   0.00000  Uiso   1.00
H2162  H     0.99085   0.42594   0.75237   0.00000  Uiso   1.00
H2163  H     0.78196   0.61489   0.90132   0.00000  Uiso   1.00
H2164  H     0.79373   0.34331   0.70342   0.00000  Uiso   1.00
H2165  H     0.82674   0.39016   0.71909   0.00000  Uiso   1.00
H2166  H     0.76360   0.44313   0.69551   0.00000  Uiso   1.00
H2167  H     0.78155   0.41125   0.97877   0.00000  Uiso   1.00
H2168  H     0.73715   0.39180   0.67129   0.00000  Uiso   1.00
H2169  H     0.90159   0.56100   0.92069   0.00000  Uiso   1.00
H2170  H     0.87087   0.60457   0.94571   0.00000  Uiso   1.00
H2171  H     0.93850   0.64710   0.97139   0.00000  Uiso   1.00
H2172  H     0.93630   0.59014   0.99767   0.00000  Uiso   1.00
H2173  H     0.98683   0.34932   0.78979   0.00000  Uiso   1.00
H2174  H     0.96447   0.59950   0.94608   0.00000  Uiso   1.00
H2175  H     0.87295   0.34332   0.96326   0.00000  Uiso   1.00
H2176  H     0.83994   0.39016   0.94757   0.00000  Uiso   1.00
H2177  H     0.90308   0.44314   0.97114   0.00000  Uiso   1.00
H2178  H     0.88511   0.41128   0.68788   0.00000  Uiso   1.00
H2179  H     0.92952   0.39181   0.99538   0.00000  Uiso   1.00
H2180  H     0.76508   0.56100   0.74598   0.00000  Uiso   1.00
H2181  H     0.79580   0.60457   0.72096   0.00000  Uiso   1.00
H2182  H     0.72818   0.64709   0.69526   0.00000  Uiso   1.00
H2183  H     0.73036   0.59012   0.66900   0.00000  Uiso   1.00
H2184  H     0.99844   0.34605   0.72643   0.00000  Uiso   1.00
H2185  H     0.70220   0.59950   0.72058   0.00000  Uiso   1.00
H2186  H     0.70465   0.33662   0.77822   0.00000  Uiso   1.00
H2187  H     0.93543   0.56050   0.75237   0.00000  Uiso   1.00
H2188  H     0.97552   0.60303   0.75587   0.00000  Uiso   1.00
H2189  H     0.92091   0.65784   0.79087   0.00000  Uiso   1.00
H2190  H     0.91557   0.64475   0.72552   0.00000  Uiso   1.00
N2191  N     0.83333   0.61736   0.83333   0.00000  Uiso   1.00
N2192  N     0.83333   0.38264   0.83333   0.00000  Uiso   1.00
O2193  O     0.77321   0.53958   0.83333   0.00000  Uiso   1.00
O2194  O     0.95793   0.58497   0.82387   0.00000  Uiso   1.00
O2195  O     0.96267   0.41945   0.85161   0.00000  Uiso   1.00
O2196  O     0.70874   0.58497   0.84281   0.00000  Uiso   1.00
O2197  O     0.78051   0.38163   0.76519   0.00000  Uiso   1.00
O2198  O     0.89944   0.62189   0.88171   0.00000  Uiso   1.00
O2199  O     0.88616   0.38163   0.90147   0.00000  Uiso   1.00
O2200  O     0.76723   0.62189   0.78496   0.00000  Uiso   1.00
O2201  O     0.89345   0.46042   0.83334   0.00000  Uiso   1.00
O2202  O     0.89345   0.53958   0.83334   0.00000  Uiso   1.00
O2203  O     0.77321   0.46042   0.83333   0.00000  Uiso   1.00
O2204  O     0.83333   0.53959   0.76280   0.00000  Uiso   1.00
O2205  O     0.83333   0.46041   0.90387   0.00000  Uiso   1.00
O2206  O     0.83333   0.53959   0.90387   0.00000  Uiso   1.00
O2207  O     0.83333   0.46041   0.76280   0.00000  Uiso   1.00
O2208  O     0.70399   0.41945   0.81504   0.00000  Uiso   1.00
C2209  C     0.08738   0.83358   0.83234   0.00000  Uiso   1.00
C2210  C     0.02144   0.87684   0.83597   0.00000  Uiso   1.00
C2211  C     0.29071   0.83475   0.83479   0.00000  Uiso   1.00
C2212  C     0.04262   0.83475   0.83188   0.00000  Uiso   1.00
C2213  C     0.14058   0.69137   0.79957   0.00000  Uiso   1.00
C2214  C     0.19555   0.97537   0.86394   0.00000  Uiso   1.00
C2215  C     0.19276   0.69137   0.86710   0.00000  Uiso   1.00
C2216  C     0.13778   0.97537   0.80273   0.00000  Uiso   1.00
C2217  C     0.01974   0.74077   0.76645   0.00000  Uiso   1.00
C2218  C     0.01023   0.68984   0.76489   0.00000  Uiso   1.00
C2219  C     0.28118   0.92550   0.77224   0.00000  Uiso   1.00
C2220  C     0.24595   0.83358   0.83433   0.00000  Uiso   1.00
C2221  C     0.24873   0.96309   0.76310   0.00000  Uiso   1.00
C2222  C     0.31360   0.74073   0.90019   0.00000  Uiso   1.00
C2223  C     0.32311   0.68980   0.90170   0.00000  Uiso   1.00
C2224  C     0.05217   0.92548   0.89445   0.00000  Uiso   1.00
C2225  C     0.08462   0.96308   0.90358   0.00000  Uiso   1.00
C2226  C     0.12790   0.71207   0.71786   0.00000  Uiso   1.00
C2227  C     0.10093   0.74143   0.68041   0.00000  Uiso   1.00
C2228  C     0.23210   0.93172   0.92729   0.00000  Uiso   1.00
C2229  C     0.27012   0.94319   0.96275   0.00000  Uiso   1.00
C2230  C     0.20544   0.71207   0.94880   0.00000  Uiso   1.00
C2231  C     0.16675   0.83337   0.74038   0.00000  Uiso   1.00
C2232  C     0.23240   0.74144   0.98625   0.00000  Uiso   1.00
C2233  C     0.10124   0.93172   0.73938   0.00000  Uiso   1.00
C2234  C     0.06322   0.94318   0.70391   0.00000  Uiso   1.00
C2235  C     0.16658   0.83337   0.92629   0.00000  Uiso   1.00
C2236  C     0.16675   0.83359   0.68858   0.00000  Uiso   1.00
C2237  C     0.16659   0.83359   0.97809   0.00000  Uiso   1.00
C2238  C     0.02019   0.79368   0.82805   0.00000  Uiso   1.00
C2239  C     0.31189   0.87684   0.83071   0.00000  Uiso   1.00
C2240  C     0.31314   0.79368   0.83862   0.00000  Uiso   1.00
Cu2241 Cu    0.16667   0.88022   0.83333   0.00000  Uiso   1.00
Cu2242 Cu    0.16667   0.78645   0.83333   0.00000  Uiso   1.00
H2243  H     0.04184   0.74874   0.74029   0.00000  Uiso   1.00
H2244  H     0.21805   0.94822   0.76535   0.00000  Uiso   1.00
H2245  H     0.29151   0.74868   0.92637   0.00000  Uiso   1.00
H2246  H     0.00916   0.75923   0.91428   0.00000  Uiso   1.00
H2247  H     0.01317   0.68263   0.87679   0.00000  Uiso   1.00
H2248  H     0.00158   0.67933   0.94016   0.00000  Uiso   1.00
H2249  H     0.29535   0.66992   0.88838   0.00000  Uiso   1.00
H2250  H     0.06459   0.89382   0.91430   0.00000  Uiso   1.00
H2251  H     0.02450   0.93634   0.91083   0.00000  Uiso   1.00
H2252  H     0.07910   0.99117   0.87581   0.00000  Uiso   1.00
H2253  H     0.08444   0.97807   0.94116   0.00000  Uiso   1.00
H2254  H     0.32418   0.75928   0.75237   0.00000  Uiso   1.00
H2255  H     0.11529   0.94822   0.90132   0.00000  Uiso   1.00
H2256  H     0.12706   0.67665   0.70342   0.00000  Uiso   1.00
H2257  H     0.16007   0.72349   0.71909   0.00000  Uiso   1.00
H2258  H     0.09693   0.77647   0.69551   0.00000  Uiso   1.00
H2259  H     0.11489   0.74459   0.97877   0.00000  Uiso   1.00
H2260  H     0.07048   0.72513   0.67129   0.00000  Uiso   1.00
H2261  H     0.23492   0.89434   0.92069   0.00000  Uiso   1.00
H2262  H     0.20420   0.93791   0.94571   0.00000  Uiso   1.00
H2263  H     0.27183   0.98043   0.97139   0.00000  Uiso   1.00
H2264  H     0.26964   0.92347   0.99767   0.00000  Uiso   1.00
H2265  H     0.32016   0.68265   0.78979   0.00000  Uiso   1.00
H2266  H     0.29781   0.93283   0.94608   0.00000  Uiso   1.00
H2267  H     0.20628   0.67665   0.96326   0.00000  Uiso   1.00
H2268  H     0.17327   0.72349   0.94757   0.00000  Uiso   1.00
H2269  H     0.23641   0.77647   0.97114   0.00000  Uiso   1.00
H2270  H     0.21845   0.74461   0.68788   0.00000  Uiso   1.00
H2271  H     0.26285   0.72514   0.99538   0.00000  Uiso   1.00
H2272  H     0.09841   0.89433   0.74598   0.00000  Uiso   1.00
H2273  H     0.12913   0.93790   0.72096   0.00000  Uiso   1.00
H2274  H     0.06151   0.98042   0.69526   0.00000  Uiso   1.00
H2275  H     0.06370   0.92345   0.66900   0.00000  Uiso   1.00
H2276  H     0.33178   0.67939   0.72643   0.00000  Uiso   1.00
H2277  H     0.03553   0.93284   0.72058   0.00000  Uiso   1.00
H2278  H     0.03799   0.66995   0.77822   0.00000  Uiso   1.00
H2279  H     0.26876   0.89383   0.75237   0.00000  Uiso   1.00
H2280  H     0.30885   0.93636   0.75587   0.00000  Uiso   1.00
H2281  H     0.25424   0.99118   0.79087   0.00000  Uiso   1.00
H2282  H     0.24891   0.97808   0.72552   0.00000  Uiso   1.00
N2283  N     0.16667   0.95069   0.83333   0.00000  Uiso   1.00
N2284  N     0.16667   0.71598   0.83333   0.00000  Uiso   1.00
O2285  O     0.10655   0.87291   0.83333   0.00000  Uiso   1.00
O2286  O     0.29126   0.91831   0.82387   0.00000  Uiso   1.00
O2287  O     0.29601   0.75278   0.85161   0.00000  Uiso   1.00
O2288  O     0.04208   0.91831   0.84281   0.00000  Uiso   1.00
O2289  O     0.11385   0.71496   0.76519   0.00000  Uiso   1.00
O2290  O     0.23277   0.95522   0.88171   0.00000  Uiso   1.00
O2291  O     0.21949   0.71496   0.90147   0.00000  Uiso   1.00
O2292  O     0.10056   0.95523   0.78496   0.00000  Uiso   1.00
O2293  O     0.22679   0.79375   0.83334   0.00000  Uiso   1.00
O2294  O     0.22679   0.87291   0.83334   0.00000  Uiso   1.00
O2295  O     0.10655   0.79375   0.83333   0.00000  Uiso   1.00
O2296  O     0.16667   0.87292   0.76280   0.00000  Uiso   1.00
O2297  O     0.16667   0.79375   0.90387   0.00000  Uiso   1.00
O2298  O     0.16667   0.87292   0.90387   0.00000  Uiso   1.00
O2299  O     0.16667   0.79375   0.76280   0.00000  Uiso   1.00
O2300  O     0.03732   0.75279   0.81504   0.00000  Uiso   1.00
C2301  C     0.42072   0.83358   0.83234   0.00000  Uiso   1.00
C2302  C     0.35478   0.87684   0.83597   0.00000  Uiso   1.00
C2303  C     0.62404   0.83475   0.83479   0.00000  Uiso   1.00
C2304  C     0.37596   0.83475   0.83188   0.00000  Uiso   1.00
C2305  C     0.47391   0.69137   0.79957   0.00000  Uiso   1.00
C2306  C     0.52888   0.97537   0.86394   0.00000  Uiso   1.00
C2307  C     0.52609   0.69137   0.86710   0.00000  Uiso   1.00
C2308  C     0.47112   0.97537   0.80273   0.00000  Uiso   1.00
C2309  C     0.35307   0.74077   0.76645   0.00000  Uiso   1.00
C2310  C     0.34356   0.68984   0.76489   0.00000  Uiso   1.00
C2311  C     0.61451   0.92550   0.77224   0.00000  Uiso   1.00
C2312  C     0.57928   0.83358   0.83433   0.00000  Uiso   1.00
C2313  C     0.58206   0.96309   0.76310   0.00000  Uiso   1.00
C2314  C     0.64693   0.74073   0.90019   0.00000  Uiso   1.00
C2315  C     0.65644   0.68980   0.90170   0.00000  Uiso   1.00
C2316  C     0.38550   0.92548   0.89445   0.00000  Uiso   1.00
C2317  C     0.41795   0.96308   0.90358   0.00000  Uiso   1.00
C2318  C     0.46123   0.71207   0.71786   0.00000  Uiso   1.00
C2319  C     0.43427   0.74143   0.68041   0.00000  Uiso   1.00
C2320  C     0.56543   0.93172   0.92729   0.00000  Uiso   1.00
C2321  C     0.60345   0.94319   0.96275   0.00000  Uiso   1.00
C2322  C     0.53878   0.71207   0.94880   0.00000  Uiso   1.00
C2323  C     0.50009   0.83337   0.74038   0.00000  Uiso   1.00
C2324  C     0.56574   0.74144   0.98625   0.00000  Uiso   1.00
C2325  C     0.43457   0.93172   0.73938   0.00000  Uiso   1.00
C2326  C     0.39655   0.94318   0.70391   0.00000  Uiso   1.00
C2327  C     0.49991   0.83337   0.92629   0.00000  Uiso   1.00
C2328  C     0.50008   0.83359   0.68858   0.00000  Uiso   1.00
C2329  C     0.49992   0.83359   0.97809   0.00000  Uiso   1.00
C2330  C     0.35352   0.79368   0.82805   0.00000  Uiso   1.00
C2331  C     0.64523   0.87684   0.83071   0.00000  Uiso   1.00
C2332  C     0.64648   0.79368   0.83862   0.00000  Uiso   1.00
Cu2333 Cu    0.50000   0.88022   0.83333   0.00000  Uiso   1.00
Cu2334 Cu    0.50000   0.78645   0.83333   0.00000  Uiso   1.00
H2335  H     0.37517   0.74874   0.74029   0.00000  Uiso   1.00
H2336  H     0.55138   0.94822   0.76535   0.00000  Uiso   1.00
H2337  H     0.62484   0.74868   0.92637   0.00000  Uiso   1.00
H2338  H     0.34249   0.75923   0.91428   0.00000  Uiso   1.00
H2339  H     0.34650   0.68263   0.87679   0.00000  Uiso   1.00
H2340  H     0.33491   0.67933   0.94016   0.00000  Uiso   1.00
H2341  H     0.62868   0.66992   0.88838   0.00000  Uiso   1.00
H2342  H     0.39793   0.89382   0.91430   0.00000  Uiso   1.00
H2343  H     0.35784   0.93634   0.91083   0.00000  Uiso   1.00
H2344  H     0.41243   0.99117   0.87581   0.00000  Uiso   1.00
H2345  H     0.41777   0.97807   0.94116   0.00000  Uiso   1.00
H2346  H     0.65752   0.75928   0.75237   0.00000  Uiso   1.00
H2347  H     0.44863   0.94822   0.90132   0.00000  Uiso   1.00
H2348  H     0.46039   0.67665   0.70342   0.00000  Uiso   1.00
H2349  H     0.49340   0.72349   0.71909   0.00000  Uiso   1.00
H2350  H     0.43026   0.77647   0.69551   0.00000  Uiso   1.00
H2351  H     0.44822   0.74459   0.97877   0.00000  Uiso   1.00
H2352  H     0.40382   0.72513   0.67129   0.00000  Uiso   1.00
H2353  H     0.56825   0.89434   0.92069   0.00000  Uiso   1.00
H2354  H     0.53754   0.93791   0.94571   0.00000  Uiso   1.00
H2355  H     0.60517   0.98043   0.97139   0.00000  Uiso   1.00
H2356  H     0.60297   0.92347   0.99767   0.00000  Uiso   1.00
H2357  H     0.65349   0.68265   0.78979   0.00000  Uiso   1.00
H2358  H     0.63114   0.93283   0.94608   0.00000  Uiso   1.00
H2359  H     0.53962   0.67665   0.96326   0.00000  Uiso   1.00
H2360  H     0.50660   0.72349   0.94757   0.00000  Uiso   1.00
H2361  H     0.56975   0.77647   0.97114   0.00000  Uiso   1.00
H2362  H     0.55178   0.74461   0.68788   0.00000  Uiso   1.00
H2363  H     0.59618   0.72514   0.99538   0.00000  Uiso   1.00
H2364  H     0.43175   0.89433   0.74598   0.00000  Uiso   1.00
H2365  H     0.46247   0.93790   0.72096   0.00000  Uiso   1.00
H2366  H     0.39484   0.98042   0.69526   0.00000  Uiso   1.00
H2367  H     0.39703   0.92345   0.66900   0.00000  Uiso   1.00
H2368  H     0.66511   0.67939   0.72643   0.00000  Uiso   1.00
H2369  H     0.36886   0.93284   0.72058   0.00000  Uiso   1.00
H2370  H     0.37132   0.66995   0.77822   0.00000  Uiso   1.00
H2371  H     0.60210   0.89383   0.75237   0.00000  Uiso   1.00
H2372  H     0.64218   0.93636   0.75587   0.00000  Uiso   1.00
H2373  H     0.58758   0.99118   0.79087   0.00000  Uiso   1.00
H2374  H     0.58224   0.97808   0.72552   0.00000  Uiso   1.00
N2375  N     0.50000   0.95069   0.83333   0.00000  Uiso   1.00
N2376  N     0.50000   0.71598   0.83333   0.00000  Uiso   1.00
O2377  O     0.43988   0.87291   0.83333   0.00000  Uiso   1.00
O2378  O     0.62459   0.91831   0.82387   0.00000  Uiso   1.00
O2379  O     0.62934   0.75278   0.85161   0.00000  Uiso   1.00
O2380  O     0.37541   0.91831   0.84281   0.00000  Uiso   1.00
O2381  O     0.44718   0.71496   0.76519   0.00000  Uiso   1.00
O2382  O     0.56610   0.95522   0.88171   0.00000  Uiso   1.00
O2383  O     0.55282   0.71496   0.90147   0.00000  Uiso   1.00
O2384  O     0.43389   0.95523   0.78496   0.00000  Uiso   1.00
O2385  O     0.56012   0.79375   0.83334   0.00000  Uiso   1.00
O2386  O     0.56012   0.87291   0.83334   0.00000  Uiso   1.00
O2387  O     0.43988   0.79375   0.83333   0.00000  Uiso   1.00
O2388  O     0.50000   0.87292   0.76280   0.00000  Uiso   1.00
O2389  O     0.50000   0.79375   0.90387   0.00000  Uiso   1.00
O2390  O     0.50000   0.87292   0.90387   0.00000  Uiso   1.00
O2391  O     0.50000   0.79375   0.76280   0.00000  Uiso   1.00
O2392  O     0.37066   0.75279   0.81504   0.00000  Uiso   1.00
C2393  C     0.75405   0.83358   0.83234   0.00000  Uiso   1.00
C2394  C     0.68811   0.87684   0.83597   0.00000  Uiso   1.00
C2395  C     0.95738   0.83475   0.83479   0.00000  Uiso   1.00
C2396  C     0.70929   0.83475   0.83188   0.00000  Uiso   1.00
C2397  C     0.80724   0.69137   0.79957   0.00000  Uiso   1.00
C2398  C     0.86222   0.97537   0.86394   0.00000  Uiso   1.00
C2399  C     0.85943   0.69137   0.86710   0.00000  Uiso   1.00
C2400  C     0.80445   0.97537   0.80273   0.00000  Uiso   1.00
C2401  C     0.68641   0.74077   0.76645   0.00000  Uiso   1.00
C2402  C     0.67690   0.68984   0.76489   0.00000  Uiso   1.00
C2403  C     0.94784   0.92550   0.77224   0.00000  Uiso   1.00
C2404  C     0.91262   0.83358   0.83433   0.00000  Uiso   1.00
C2405  C     0.91539   0.96309   0.76310   0.00000  Uiso   1.00
C2406  C     0.98027   0.74073   0.90019   0.00000  Uiso   1.00
C2407  C     0.98978   0.68980   0.90170   0.00000  Uiso   1.00
C2408  C     0.71884   0.92548   0.89445   0.00000  Uiso   1.00
C2409  C     0.75129   0.96308   0.90358   0.00000  Uiso   1.00
C2410  C     0.79456   0.71207   0.71786   0.00000  Uiso   1.00
C2411  C     0.76760   0.74143   0.68041   0.00000  Uiso   1.00
C2412  C     0.89876   0.93172   0.92729   0.00000  Uiso   1.00
C2413  C     0.93679   0.94319   0.96275   0.00000  Uiso   1.00
C2414  C     0.87211   0.71207   0.94880   0.00000  Uiso   1.00
C2415  C     0.83342   0.83337   0.74038   0.00000  Uiso   1.00
C2416  C     0.89907   0.74144   0.98625   0.00000  Uiso   1.00
C2417  C     0.76790   0.93172   0.73938   0.00000  Uiso   1.00
C2418  C     0.72988   0.94318   0.70391   0.00000  Uiso   1.00
C2419  C     0.83325   0.83337   0.92629   0.00000  Uiso   1.00
C2420  C     0.83341   0.83359   0.68858   0.00000  Uiso   1.00
C2421  C     0.83325   0.83359   0.97809   0.00000  Uiso   1.00
C2422  C     0.68686   0.79368   0.82805   0.00000  Uiso   1.00
C2423  C     0.97856   0.87684   0.83071   0.00000  Uiso   1.00
C2424  C     0.97981   0.79368   0.83862   0.00000  Uiso   1.00
Cu2425 Cu    0.83333   0.88022   0.83333   0.00000  Uiso   1.00
Cu2426 Cu    0.83333   0.78645   0.83333   0.00000  Uiso   1.00
H2427  H     0.70850   0.74874   0.74029   0.00000  Uiso   1.00
H2428  H     0.88472   0.94822   0.76535   0.00000  Uiso   1.00
H2429  H     0.95818   0.74868   0.92637   0.00000  Uiso   1.00
H2430  H     0.67583   0.75923   0.91428   0.00000  Uiso   1.00
H2431  H     0.67983   0.68263   0.87679   0.00000  Uiso   1.00
H2432  H     0.66824   0.67933   0.94016   0.00000  Uiso   1.00
H2433  H     0.96202   0.66992   0.88838   0.00000  Uiso   1.00
H2434  H     0.73126   0.89382   0.91430   0.00000  Uiso   1.00
H2435  H     0.69117   0.93634   0.91083   0.00000  Uiso   1.00
H2436  H     0.74576   0.99117   0.87581   0.00000  Uiso   1.00
H2437  H     0.75111   0.97807   0.94116   0.00000  Uiso   1.00
H2438  H     0.99085   0.75928   0.75237   0.00000  Uiso   1.00
H2439  H     0.78196   0.94822   0.90132   0.00000  Uiso   1.00
H2440  H     0.79373   0.67665   0.70342   0.00000  Uiso   1.00
H2441  H     0.82674   0.72349   0.71909   0.00000  Uiso   1.00
H2442  H     0.76360   0.77647   0.69551   0.00000  Uiso   1.00
H2443  H     0.78155   0.74459   0.97877   0.00000  Uiso   1.00
H2444  H     0.73715   0.72513   0.67129   0.00000  Uiso   1.00
H2445  H     0.90159   0.89434   0.92069   0.00000  Uiso   1.00
H2446  H     0.87087   0.93791   0.94571   0.00000  Uiso   1.00
H2447  H     0.93850   0.98043   0.97139   0.00000  Uiso   1.00
H2448  H     0.93630   0.92347   0.99767   0.00000  Uiso   1.00
H2449  H     0.98683   0.68265   0.78979   0.00000  Uiso   1.00
H2450  H     0.96447   0.93283   0.94608   0.00000  Uiso   1.00
H2451  H     0.87295   0.67665   0.96326   0.00000  Uiso   1.00
H2452  H     0.83994   0.72349   0.94757   0.00000  Uiso   1.00
H2453  H     0.90308   0.77647   0.97114   0.00000  Uiso   1.00
H2454  H     0.88511   0.74461   0.68788   0.00000  Uiso   1.00
H2455  H     0.92952   0.72514   0.99538   0.00000  Uiso   1.00
H2456  H     0.76508   0.89433   0.74598   0.00000  Uiso   1.00
H2457  H     0.79580   0.93790   0.72096   0.00000  Uiso   1.00
H2458  H     0.72818   0.98042   0.69526   0.00000  Uiso   1.00
H2459  H     0.73036   0.92345   0.66900   0.00000  Uiso   1.00
H2460  H     0.99844   0.67939   0.72643   0.00000  Uiso   1.00
H2461  H     0.70220   0.93284   0.72058   0.00000  Uiso   1.00
H2462  H     0.70465   0.66995   0.77822   0.00000  Uiso   1.00
H2463  H     0.93543   0.89383   0.75237   0.00000  Uiso   1.00
H2464  H     0.97552   0.93636   0.75587   0.00000  Uiso   1.00
H2465  H     0.92091   0.99118   0.79087   0.00000  Uiso   1.00
H2466  H     0.91557   0.97808   0.72552   0.00000  Uiso   1.00
N2467  N     0.83333   0.95069   0.83333   0.00000  Uiso   1.00
N2468  N     0.83333   0.71598   0.83333   0.00000  Uiso   1.00
O2469  O     0.77321   0.87291   0.83333   0.00000  Uiso   1.00
O2470  O     0.95793   0.91831   0.82387   0.00000  Uiso   1.00
O2471  O     0.96267   0.75278   0.85161   0.00000  Uiso   1.00
O2472  O     0.70874   0.91831   0.84281   0.00000  Uiso   1.00
O2473  O     0.78051   0.71496   0.76519   0.00000  Uiso   1.00
O2474  O     0.89944   0.95522   0.88171   0.00000  Uiso   1.00
O2475  O     0.88616   0.71496   0.90147   0.00000  Uiso   1.00
O2476  O     0.76723   0.95523   0.78496   0.00000  Uiso   1.00
O2477  O     0.89345   0.79375   0.83334   0.00000  Uiso   1.00
O2478  O     0.89345   0.87291   0.83334   0.00000  Uiso   1.00
O2479  O     0.77321   0.79375   0.83333   0.00000  Uiso   1.00
O2480  O     0.83333   0.87292   0.76280   0.00000  Uiso   1.00
O2481  O     0.83333   0.79375   0.90387   0.00000  Uiso   1.00
O2482  O     0.83333   0.87292   0.90387   0.00000  Uiso   1.00
O2483  O     0.83333   0.79375   0.76280   0.00000  Uiso   1.00
O2484  O     0.70399   0.75279   0.81504   0.00000  Uiso   1.00
loop_
_geom_bond_atom_site_label_1
_geom_bond_atom_site_label_2
_geom_bond_distance
_geom_bond_site_symmetry_2
_ccdc_geom_bond_type
C1     O87     1.315   .     A
C1     O77     1.302   .     A
C1     C4      1.473   .     S
C2     C4      1.417   .     A
C2     O80     1.383   .     S
C2     C215    1.403   1_455 S
C3     C12     1.473   .     S
C3     C31     1.417   .     A
C3     C32     1.399   .     A
C4     C30     1.399   .     A
C5     O81     1.383   .     S
C5     N76     1.377   .     A
C5     C560    1.437   1_545 S
C6     O82     1.391   .     S
C6     N75     1.384   .     A
C6     C283    1.437   .     S
C7     O83     1.383   .     S
C7     N76     1.377   .     A
C7     C558    1.437   1_545 S
C8     N75     1.384   .     A
C8     O84     1.391   .     S
C8     C281    1.437   .     S
C9     C10     1.509   .     S
C9     O92     1.418   .     S
C9     H35     1.101   .     S
C9     H230    1.119   1_455 S
C10    H70     1.104   .     S
C10    H241    1.105   1_455 S
C10    H252    1.110   1_455 S
C11    H71     1.117   .     S
C11    H72     1.107   .     S
C11    O78     1.415   .     S
C11    C13     1.526   .     S
C12    O85     1.315   .     A
C12    O86     1.302   .     A
C13    H36     1.107   .     S
C13    H74     1.109   .     S
C13    H73     1.109   .     S
C14    O79     1.418   .     S
C14    C15     1.509   .     S
C14    H37     1.101   .     S
C14    H130    1.119   .     S
C15    H41     1.104   .     S
C15    H131    1.105   .     S
C15    H132    1.110   .     S
C16    C17     1.526   .     S
C16    O80     1.415   .     S
C16    H43     1.107   .     S
C16    H42     1.117   .     S
C17    H45     1.109   .     S
C17    H47     1.107   .     S
C17    H44     1.109   .     S
C18    O81     1.419   .     S
C18    C19     1.526   .     S
C18    H48     1.099   .     S
C18    H49     1.107   .     S
C19    H52     1.109   .     S
C19    H50     1.109   .     S
C19    H1707   1.107   1_554 S
C20    O82     1.414   .     S
C20    H54     1.113   .     S
C20    H53     1.105   .     S
C20    C21     1.521   .     S
C21    H55     1.105   .     S
C21    H56     1.108   .     S
C21    H58     1.107   .     S
C22    H60     1.107   .     S
C22    H59     1.099   .     S
C22    O83     1.419   .     S
C22    C24     1.526   .     S
C23    C28     1.405   .     S
C23    O88     1.298   .     A
C23    O91     1.300   .     A
C24    H61     1.109   .     S
C24    H63     1.109   .     S
C24    H890    1.107   .     S
C25    O84     1.414   .     S
C25    H65     1.113   .     S
C25    C26     1.521   .     S
C25    H64     1.105   .     S
C26    H67     1.108   .     S
C26    H66     1.105   .     S
C26    H69     1.107   .     S
C27    C29     1.405   .     S
C27    O90     1.298   .     A
C27    O89     1.300   .     A
C28    C1685   1.188   1_554 S
C29    C856    1.188   .     S
C30    O92     1.378   .     S
C30    C216    1.395   1_455 S
C31    O78     1.383   .     S
C31    C94     1.403   .     S
C32    O79     1.378   .     S
C32    C122    1.395   .     S
Cu33   O88     1.925   .     S
Cu33   N75     2.043   .     S
Cu33   O86     1.992   .     S
Cu33   Cu34    2.719   .     S
Cu33   O90     1.925   .     S
Cu33   O77     1.992   .     S
Cu34   O91     1.925   .     S
Cu34   O89     1.925   .     S
Cu34   O87     1.992   .     S
Cu34   O85     1.992   .     S
Cu34   N76     2.043   .     S
H38    C198    1.119   1_455 S
H39    C199    1.105   1_455 S
H40    C199    1.110   1_455 S
H46    C101    1.119   .     S
H51    C847    1.107   .     S
H57    C102    1.105   .     S
H62    C1680   1.107   1_554 S
H68    C102    1.110   .     S
C93    O179    1.315   .     A
C93    O169    1.302   .     A
C93    C96     1.473   .     S
C94    C96     1.417   .     A
C94    O172    1.383   .     S
C95    C104    1.473   .     S
C95    C123    1.417   .     A
C95    C124    1.399   .     A
C96    C122    1.399   .     A
C97    O173    1.383   .     S
C97    N168    1.377   .     A
C97    C652    1.437   1_545 S
C98    O174    1.391   .     S
C98    N167    1.384   .     A
C98    C375    1.437   .     S
C99    O175    1.383   .     S
C99    N168    1.377   .     A
C99    C650    1.437   1_545 S
C100   N167    1.384   .     A
C100   O176    1.391   .     S
C100   C373    1.437   .     S
C101   C102    1.509   .     S
C101   O184    1.418   .     S
C101   H127    1.101   .     S
C102   H162    1.104   .     S
C103   H163    1.117   .     S
C103   H164    1.107   .     S
C103   O170    1.415   .     S
C103   C105    1.526   .     S
C104   O177    1.315   .     A
C104   O178    1.302   .     A
C105   H128    1.107   .     S
C105   H166    1.109   .     S
C105   H165    1.109   .     S
C106   O171    1.418   .     S
C106   C107    1.509   .     S
C106   H129    1.101   .     S
C106   H222    1.119   .     S
C107   H133    1.104   .     S
C107   H223    1.105   .     S
C107   H224    1.110   .     S
C108   C109    1.526   .     S
C108   O172    1.415   .     S
C108   H135    1.107   .     S
C108   H134    1.117   .     S
C109   H137    1.109   .     S
C109   H139    1.107   .     S
C109   H136    1.109   .     S
C110   O173    1.419   .     S
C110   C111    1.526   .     S
C110   H140    1.099   .     S
C110   H141    1.107   .     S
C111   H144    1.109   .     S
C111   H142    1.109   .     S
C111   H1799   1.107   1_554 S
C112   O174    1.414   .     S
C112   H146    1.113   .     S
C112   H145    1.105   .     S
C112   C113    1.521   .     S
C113   H147    1.105   .     S
C113   H148    1.108   .     S
C113   H150    1.107   .     S
C114   H152    1.107   .     S
C114   H151    1.099   .     S
C114   O175    1.419   .     S
C114   C116    1.526   .     S
C115   C120    1.405   .     S
C115   O180    1.298   .     A
C115   O183    1.300   .     A
C116   H153    1.109   .     S
C116   H155    1.109   .     S
C116   H982    1.107   .     S
C117   O176    1.414   .     S
C117   H157    1.113   .     S
C117   C118    1.521   .     S
C117   H156    1.105   .     S
C118   H159    1.108   .     S
C118   H158    1.105   .     S
C118   H161    1.107   .     S
C119   C121    1.405   .     S
C119   O182    1.298   .     A
C119   O181    1.300   .     A
C120   C1777   1.188   1_554 S
C121   C948    1.188   .     S
C122   O184    1.378   .     S
C123   O170    1.383   .     S
C123   C186    1.403   .     S
C124   O171    1.378   .     S
C124   C214    1.395   .     S
Cu125  O180    1.925   .     S
Cu125  N167    2.043   .     S
Cu125  O178    1.992   .     S
Cu125  Cu126   2.719   .     S
Cu125  O182    1.925   .     S
Cu125  O169    1.992   .     S
Cu126  O183    1.925   .     S
Cu126  O181    1.925   .     S
Cu126  O179    1.992   .     S
Cu126  O177    1.992   .     S
Cu126  N168    2.043   .     S
H138   C193    1.119   .     S
H143   C939    1.107   .     S
H149   C194    1.105   .     S
H154   C1772   1.107   1_554 S
H160   C194    1.110   .     S
C185   O271    1.315   .     A
C185   O261    1.302   .     A
C185   C188    1.473   .     S
C186   C188    1.417   .     A
C186   O264    1.383   .     S
C187   C196    1.473   .     S
C187   C215    1.417   .     A
C187   C216    1.399   .     A
C188   C214    1.399   .     A
C189   O265    1.383   .     S
C189   N260    1.377   .     A
C189   C744    1.437   1_545 S
C190   O266    1.391   .     S
C190   N259    1.384   .     A
C190   C467    1.437   .     S
C191   O267    1.383   .     S
C191   N260    1.377   .     A
C191   C742    1.437   1_545 S
C192   N259    1.384   .     A
C192   O268    1.391   .     S
C192   C465    1.437   .     S
C193   C194    1.509   .     S
C193   O276    1.418   .     S
C193   H219    1.101   .     S
C194   H254    1.104   .     S
C195   H255    1.117   .     S
C195   H256    1.107   .     S
C195   O262    1.415   .     S
C195   C197    1.526   .     S
C196   O269    1.315   .     A
C196   O270    1.302   .     A
C197   H220    1.107   .     S
C197   H258    1.109   .     S
C197   H257    1.109   .     S
C198   O263    1.418   .     S
C198   C199    1.509   .     S
C198   H221    1.101   .     S
C198   H38     1.119   1_655 S
C199   H225    1.104   .     S
C199   H39     1.105   1_655 S
C199   H40     1.110   1_655 S
C200   C201    1.526   .     S
C200   O264    1.415   .     S
C200   H227    1.107   .     S
C200   H226    1.117   .     S
C201   H229    1.109   .     S
C201   H231    1.107   .     S
C201   H228    1.109   .     S
C202   O265    1.419   .     S
C202   C203    1.526   .     S
C202   H232    1.099   .     S
C202   H233    1.107   .     S
C203   H236    1.109   .     S
C203   H234    1.109   .     S
C203   H1891   1.107   1_554 S
C204   O266    1.414   .     S
C204   H238    1.113   .     S
C204   H237    1.105   .     S
C204   C205    1.521   .     S
C205   H239    1.105   .     S
C205   H240    1.108   .     S
C205   H242    1.107   .     S
C206   H244    1.107   .     S
C206   H243    1.099   .     S
C206   O267    1.419   .     S
C206   C208    1.526   .     S
C207   C212    1.405   .     S
C207   O272    1.298   .     A
C207   O275    1.300   .     A
C208   H245    1.109   .     S
C208   H247    1.109   .     S
C208   H1074   1.107   .     S
C209   O268    1.414   .     S
C209   H249    1.113   .     S
C209   C210    1.521   .     S
C209   H248    1.105   .     S
C210   H251    1.108   .     S
C210   H250    1.105   .     S
C210   H253    1.107   .     S
C211   C213    1.405   .     S
C211   O274    1.298   .     A
C211   O273    1.300   .     A
C212   C1869   1.188   1_554 S
C213   C1040   1.188   .     S
C214   O276    1.378   .     S
C215   O262    1.383   .     S
C215   C2      1.403   1_655 S
C216   O263    1.378   .     S
C216   C30     1.395   1_655 S
Cu217  O272    1.925   .     S
Cu217  N259    2.043   .     S
Cu217  O270    1.992   .     S
Cu217  Cu218   2.719   .     S
Cu217  O274    1.925   .     S
Cu217  O261    1.992   .     S
Cu218  O275    1.925   .     S
Cu218  O273    1.925   .     S
Cu218  O271    1.992   .     S
Cu218  O269    1.992   .     S
Cu218  N260    2.043   .     S
H230   C9      1.119   1_655 S
H235   C1031   1.107   .     S
H241   C10     1.105   1_655 S
H246   C1864   1.107   1_554 S
H252   C10     1.110   1_655 S
C277   O363    1.315   .     A
C277   O353    1.302   .     A
C277   C280    1.473   .     S
C278   C280    1.417   .     A
C278   O356    1.383   .     S
C278   C491    1.403   1_455 S
C279   C288    1.473   .     S
C279   C307    1.417   .     A
C279   C308    1.399   .     A
C280   C306    1.399   .     A
C281   O357    1.383   .     S
C281   N352    1.377   .     A
C282   O358    1.391   .     S
C282   N351    1.384   .     A
C282   C559    1.437   .     S
C283   O359    1.383   .     S
C283   N352    1.377   .     A
C284   N351    1.384   .     A
C284   O360    1.391   .     S
C284   C557    1.437   .     S
C285   C286    1.509   .     S
C285   O368    1.418   .     S
C285   H311    1.101   .     S
C285   H506    1.119   1_455 S
C286   H346    1.104   .     S
C286   H517    1.105   1_455 S
C286   H528    1.110   1_455 S
C287   H347    1.117   .     S
C287   H348    1.107   .     S
C287   O354    1.415   .     S
C287   C289    1.526   .     S
C288   O361    1.315   .     A
C288   O362    1.302   .     A
C289   H312    1.107   .     S
C289   H350    1.109   .     S
C289   H349    1.109   .     S
C290   O355    1.418   .     S
C290   C291    1.509   .     S
C290   H313    1.101   .     S
C290   H406    1.119   .     S
C291   H317    1.104   .     S
C291   H407    1.105   .     S
C291   H408    1.110   .     S
C292   C293    1.526   .     S
C292   O356    1.415   .     S
C292   H319    1.107   .     S
C292   H318    1.117   .     S
C293   H321    1.109   .     S
C293   H323    1.107   .     S
C293   H320    1.109   .     S
C294   O357    1.419   .     S
C294   C295    1.526   .     S
C294   H324    1.099   .     S
C294   H325    1.107   .     S
C295   H328    1.109   .     S
C295   H326    1.109   .     S
C295   H1983   1.107   1_554 S
C296   O358    1.414   .     S
C296   H330    1.113   .     S
C296   H329    1.105   .     S
C296   C297    1.521   .     S
C297   H331    1.105   .     S
C297   H332    1.108   .     S
C297   H334    1.107   .     S
C298   H336    1.107   .     S
C298   H335    1.099   .     S
C298   O359    1.419   .     S
C298   C300    1.526   .     S
C299   C304    1.405   .     S
C299   O364    1.298   .     A
C299   O367    1.300   .     A
C300   H337    1.109   .     S
C300   H339    1.109   .     S
C300   H1166   1.107   .     S
C301   O360    1.414   .     S
C301   H341    1.113   .     S
C301   C302    1.521   .     S
C301   H340    1.105   .     S
C302   H343    1.108   .     S
C302   H342    1.105   .     S
C302   H345    1.107   .     S
C303   C305    1.405   .     S
C303   O366    1.298   .     A
C303   O365    1.300   .     A
C304   C1961   1.188   1_554 S
C305   C1132   1.188   .     S
C306   O368    1.378   .     S
C306   C492    1.395   1_455 S
C307   O354    1.383   .     S
C307   C370    1.403   .     S
C308   O355    1.378   .     S
C308   C398    1.395   .     S
Cu309  O364    1.925   .     S
Cu309  N351    2.043   .     S
Cu309  O362    1.992   .     S
Cu309  Cu310   2.719   .     S
Cu309  O366    1.925   .     S
Cu309  O353    1.992   .     S
Cu310  O367    1.925   .     S
Cu310  O365    1.925   .     S
Cu310  O363    1.992   .     S
Cu310  O361    1.992   .     S
Cu310  N352    2.043   .     S
H314   C474    1.119   1_455 S
H315   C475    1.105   1_455 S
H316   C475    1.110   1_455 S
H322   C377    1.119   .     S
H327   C1123   1.107   .     S
H333   C378    1.105   .     S
H338   C1956   1.107   1_554 S
H344   C378    1.110   .     S
C369   O455    1.315   .     A
C369   O445    1.302   .     A
C369   C372    1.473   .     S
C370   C372    1.417   .     A
C370   O448    1.383   .     S
C371   C380    1.473   .     S
C371   C399    1.417   .     A
C371   C400    1.399   .     A
C372   C398    1.399   .     A
C373   O449    1.383   .     S
C373   N444    1.377   .     A
C374   O450    1.391   .     S
C374   N443    1.384   .     A
C374   C651    1.437   .     S
C375   O451    1.383   .     S
C375   N444    1.377   .     A
C376   N443    1.384   .     A
C376   O452    1.391   .     S
C376   C649    1.437   .     S
C377   C378    1.509   .     S
C377   O460    1.418   .     S
C377   H403    1.101   .     S
C378   H438    1.104   .     S
C379   H439    1.117   .     S
C379   H440    1.107   .     S
C379   O446    1.415   .     S
C379   C381    1.526   .     S
C380   O453    1.315   .     A
C380   O454    1.302   .     A
C381   H404    1.107   .     S
C381   H442    1.109   .     S
C381   H441    1.109   .     S
C382   O447    1.418   .     S
C382   C383    1.509   .     S
C382   H405    1.101   .     S
C382   H498    1.119   .     S
C383   H409    1.104   .     S
C383   H499    1.105   .     S
C383   H500    1.110   .     S
C384   C385    1.526   .     S
C384   O448    1.415   .     S
C384   H411    1.107   .     S
C384   H410    1.117   .     S
C385   H413    1.109   .     S
C385   H415    1.107   .     S
C385   H412    1.109   .     S
C386   O449    1.419   .     S
C386   C387    1.526   .     S
C386   H416    1.099   .     S
C386   H417    1.107   .     S
C387   H420    1.109   .     S
C387   H418    1.109   .     S
C387   H2075   1.107   1_554 S
C388   O450    1.414   .     S
C388   H422    1.113   .     S
C388   H421    1.105   .     S
C388   C389    1.521   .     S
C389   H423    1.105   .     S
C389   H424    1.108   .     S
C389   H426    1.107   .     S
C390   H428    1.107   .     S
C390   H427    1.099   .     S
C390   O451    1.419   .     S
C390   C392    1.526   .     S
C391   C396    1.405   .     S
C391   O456    1.298   .     A
C391   O459    1.300   .     A
C392   H429    1.109   .     S
C392   H431    1.109   .     S
C392   H1258   1.107   .     S
C393   O452    1.414   .     S
C393   H433    1.113   .     S
C393   C394    1.521   .     S
C393   H432    1.105   .     S
C394   H435    1.108   .     S
C394   H434    1.105   .     S
C394   H437    1.107   .     S
C395   C397    1.405   .     S
C395   O458    1.298   .     A
C395   O457    1.300   .     A
C396   C2053   1.188   1_554 S
C397   C1224   1.188   .     S
C398   O460    1.378   .     S
C399   O446    1.383   .     S
C399   C462    1.403   .     S
C400   O447    1.378   .     S
C400   C490    1.395   .     S
Cu401  O456    1.925   .     S
Cu401  N443    2.043   .     S
Cu401  O454    1.992   .     S
Cu401  Cu402   2.719   .     S
Cu401  O458    1.925   .     S
Cu401  O445    1.992   .     S
Cu402  O459    1.925   .     S
Cu402  O457    1.925   .     S
Cu402  O455    1.992   .     S
Cu402  O453    1.992   .     S
Cu402  N444    2.043   .     S
H414   C469    1.119   .     S
H419   C1215   1.107   .     S
H425   C470    1.105   .     S
H430   C2048   1.107   1_554 S
H436   C470    1.110   .     S
C461   O547    1.315   .     A
C461   O537    1.302   .     A
C461   C464    1.473   .     S
C462   C464    1.417   .     A
C462   O540    1.383   .     S
C463   C472    1.473   .     S
C463   C491    1.417   .     A
C463   C492    1.399   .     A
C464   C490    1.399   .     A
C465   O541    1.383   .     S
C465   N536    1.377   .     A
C466   O542    1.391   .     S
C466   N535    1.384   .     A
C466   C743    1.437   .     S
C467   O543    1.383   .     S
C467   N536    1.377   .     A
C468   N535    1.384   .     A
C468   O544    1.391   .     S
C468   C741    1.437   .     S
C469   C470    1.509   .     S
C469   O552    1.418   .     S
C469   H495    1.101   .     S
C470   H530    1.104   .     S
C471   H531    1.117   .     S
C471   H532    1.107   .     S
C471   O538    1.415   .     S
C471   C473    1.526   .     S
C472   O545    1.315   .     A
C472   O546    1.302   .     A
C473   H496    1.107   .     S
C473   H534    1.109   .     S
C473   H533    1.109   .     S
C474   O539    1.418   .     S
C474   C475    1.509   .     S
C474   H497    1.101   .     S
C474   H314    1.119   1_655 S
C475   H501    1.104   .     S
C475   H315    1.105   1_655 S
C475   H316    1.110   1_655 S
C476   C477    1.526   .     S
C476   O540    1.415   .     S
C476   H503    1.107   .     S
C476   H502    1.117   .     S
C477   H505    1.109   .     S
C477   H507    1.107   .     S
C477   H504    1.109   .     S
C478   O541    1.419   .     S
C478   C479    1.526   .     S
C478   H508    1.099   .     S
C478   H509    1.107   .     S
C479   H512    1.109   .     S
C479   H510    1.109   .     S
C479   H2167   1.107   1_554 S
C480   O542    1.414   .     S
C480   H514    1.113   .     S
C480   H513    1.105   .     S
C480   C481    1.521   .     S
C481   H515    1.105   .     S
C481   H516    1.108   .     S
C481   H518    1.107   .     S
C482   H520    1.107   .     S
C482   H519    1.099   .     S
C482   O543    1.419   .     S
C482   C484    1.526   .     S
C483   C488    1.405   .     S
C483   O548    1.298   .     A
C483   O551    1.300   .     A
C484   H521    1.109   .     S
C484   H523    1.109   .     S
C484   H1350   1.107   .     S
C485   O544    1.414   .     S
C485   H525    1.113   .     S
C485   C486    1.521   .     S
C485   H524    1.105   .     S
C486   H527    1.108   .     S
C486   H526    1.105   .     S
C486   H529    1.107   .     S
C487   C489    1.405   .     S
C487   O550    1.298   .     A
C487   O549    1.300   .     A
C488   C2145   1.188   1_554 S
C489   C1316   1.188   .     S
C490   O552    1.378   .     S
C491   O538    1.383   .     S
C491   C278    1.403   1_655 S
C492   O539    1.378   .     S
C492   C306    1.395   1_655 S
Cu493  O548    1.925   .     S
Cu493  N535    2.043   .     S
Cu493  O546    1.992   .     S
Cu493  Cu494   2.719   .     S
Cu493  O550    1.925   .     S
Cu493  O537    1.992   .     S
Cu494  O551    1.925   .     S
Cu494  O549    1.925   .     S
Cu494  O547    1.992   .     S
Cu494  O545    1.992   .     S
Cu494  N536    2.043   .     S
H506   C285    1.119   1_655 S
H511   C1307   1.107   .     S
H517   C286    1.105   1_655 S
H522   C2140   1.107   1_554 S
H528   C286    1.110   1_655 S
C553   O639    1.315   .     A
C553   O629    1.302   .     A
C553   C556    1.473   .     S
C554   C556    1.417   .     A
C554   O632    1.383   .     S
C554   C767    1.403   1_455 S
C555   C564    1.473   .     S
C555   C583    1.417   .     A
C555   C584    1.399   .     A
C556   C582    1.399   .     A
C557   O633    1.383   .     S
C557   N628    1.377   .     A
C558   O634    1.391   .     S
C558   N627    1.384   .     A
C558   C7      1.437   1_565 S
C559   O635    1.383   .     S
C559   N628    1.377   .     A
C560   N627    1.384   .     A
C560   O636    1.391   .     S
C560   C5      1.437   1_565 S
C561   C562    1.509   .     S
C561   O644    1.418   .     S
C561   H587    1.101   .     S
C561   H782    1.119   1_455 S
C562   H622    1.104   .     S
C562   H793    1.105   1_455 S
C562   H804    1.110   1_455 S
C563   H623    1.117   .     S
C563   H624    1.107   .     S
C563   O630    1.415   .     S
C563   C565    1.526   .     S
C564   O637    1.315   .     A
C564   O638    1.302   .     A
C565   H588    1.107   .     S
C565   H626    1.109   .     S
C565   H625    1.109   .     S
C566   O631    1.418   .     S
C566   C567    1.509   .     S
C566   H589    1.101   .     S
C566   H682    1.119   .     S
C567   H593    1.104   .     S
C567   H683    1.105   .     S
C567   H684    1.110   .     S
C568   C569    1.526   .     S
C568   O632    1.415   .     S
C568   H595    1.107   .     S
C568   H594    1.117   .     S
C569   H597    1.109   .     S
C569   H599    1.107   .     S
C569   H596    1.109   .     S
C570   O633    1.419   .     S
C570   C571    1.526   .     S
C570   H600    1.099   .     S
C570   H601    1.107   .     S
C571   H604    1.109   .     S
C571   H602    1.109   .     S
C571   H2259   1.107   1_554 S
C572   O634    1.414   .     S
C572   H606    1.113   .     S
C572   H605    1.105   .     S
C572   C573    1.521   .     S
C573   H607    1.105   .     S
C573   H608    1.108   .     S
C573   H610    1.107   .     S
C574   H612    1.107   .     S
C574   H611    1.099   .     S
C574   O635    1.419   .     S
C574   C576    1.526   .     S
C575   C580    1.405   .     S
C575   O640    1.298   .     A
C575   O643    1.300   .     A
C576   H613    1.109   .     S
C576   H615    1.109   .     S
C576   H1442   1.107   .     S
C577   O636    1.414   .     S
C577   H617    1.113   .     S
C577   C578    1.521   .     S
C577   H616    1.105   .     S
C578   H619    1.108   .     S
C578   H618    1.105   .     S
C578   H621    1.107   .     S
C579   C581    1.405   .     S
C579   O642    1.298   .     A
C579   O641    1.300   .     A
C580   C2237   1.188   1_554 S
C581   C1408   1.188   .     S
C582   O644    1.378   .     S
C582   C768    1.395   1_455 S
C583   O630    1.383   .     S
C583   C646    1.403   .     S
C584   O631    1.378   .     S
C584   C674    1.395   .     S
Cu585  O640    1.925   .     S
Cu585  N627    2.043   .     S
Cu585  O638    1.992   .     S
Cu585  Cu586   2.719   .     S
Cu585  O642    1.925   .     S
Cu585  O629    1.992   .     S
Cu586  O643    1.925   .     S
Cu586  O641    1.925   .     S
Cu586  O639    1.992   .     S
Cu586  O637    1.992   .     S
Cu586  N628    2.043   .     S
H590   C750    1.119   1_455 S
H591   C751    1.105   1_455 S
H592   C751    1.110   1_455 S
H598   C653    1.119   .     S
H603   C1399   1.107   .     S
H609   C654    1.105   .     S
H614   C2232   1.107   1_554 S
H620   C654    1.110   .     S
C645   O731    1.315   .     A
C645   O721    1.302   .     A
C645   C648    1.473   .     S
C646   C648    1.417   .     A
C646   O724    1.383   .     S
C647   C656    1.473   .     S
C647   C675    1.417   .     A
C647   C676    1.399   .     A
C648   C674    1.399   .     A
C649   O725    1.383   .     S
C649   N720    1.377   .     A
C650   O726    1.391   .     S
C650   N719    1.384   .     A
C650   C99     1.437   1_565 S
C651   O727    1.383   .     S
C651   N720    1.377   .     A
C652   N719    1.384   .     A
C652   O728    1.391   .     S
C652   C97     1.437   1_565 S
C653   C654    1.509   .     S
C653   O736    1.418   .     S
C653   H679    1.101   .     S
C654   H714    1.104   .     S
C655   H715    1.117   .     S
C655   H716    1.107   .     S
C655   O722    1.415   .     S
C655   C657    1.526   .     S
C656   O729    1.315   .     A
C656   O730    1.302   .     A
C657   H680    1.107   .     S
C657   H718    1.109   .     S
C657   H717    1.109   .     S
C658   O723    1.418   .     S
C658   C659    1.509   .     S
C658   H681    1.101   .     S
C658   H774    1.119   .     S
C659   H685    1.104   .     S
C659   H775    1.105   .     S
C659   H776    1.110   .     S
C660   C661    1.526   .     S
C660   O724    1.415   .     S
C660   H687    1.107   .     S
C660   H686    1.117   .     S
C661   H689    1.109   .     S
C661   H691    1.107   .     S
C661   H688    1.109   .     S
C662   O725    1.419   .     S
C662   C663    1.526   .     S
C662   H692    1.099   .     S
C662   H693    1.107   .     S
C663   H696    1.109   .     S
C663   H694    1.109   .     S
C663   H2351   1.107   1_554 S
C664   O726    1.414   .     S
C664   H698    1.113   .     S
C664   H697    1.105   .     S
C664   C665    1.521   .     S
C665   H699    1.105   .     S
C665   H700    1.108   .     S
C665   H702    1.107   .     S
C666   H704    1.107   .     S
C666   H703    1.099   .     S
C666   O727    1.419   .     S
C666   C668    1.526   .     S
C667   C672    1.405   .     S
C667   O732    1.298   .     A
C667   O735    1.300   .     A
C668   H705    1.109   .     S
C668   H707    1.109   .     S
C668   H1534   1.107   .     S
C669   O728    1.414   .     S
C669   H709    1.113   .     S
C669   C670    1.521   .     S
C669   H708    1.105   .     S
C670   H711    1.108   .     S
C670   H710    1.105   .     S
C670   H713    1.107   .     S
C671   C673    1.405   .     S
C671   O734    1.298   .     A
C671   O733    1.300   .     A
C672   C2329   1.188   1_554 S
C673   C1500   1.188   .     S
C674   O736    1.378   .     S
C675   O722    1.383   .     S
C675   C738    1.403   .     S
C676   O723    1.378   .     S
C676   C766    1.395   .     S
Cu677  O732    1.925   .     S
Cu677  N719    2.043   .     S
Cu677  O730    1.992   .     S
Cu677  Cu678   2.719   .     S
Cu677  O734    1.925   .     S
Cu677  O721    1.992   .     S
Cu678  O735    1.925   .     S
Cu678  O733    1.925   .     S
Cu678  O731    1.992   .     S
Cu678  O729    1.992   .     S
Cu678  N720    2.043   .     S
H690   C745    1.119   .     S
H695   C1491   1.107   .     S
H701   C746    1.105   .     S
H706   C2324   1.107   1_554 S
H712   C746    1.110   .     S
C737   O823    1.315   .     A
C737   O813    1.302   .     A
C737   C740    1.473   .     S
C738   C740    1.417   .     A
C738   O816    1.383   .     S
C739   C748    1.473   .     S
C739   C767    1.417   .     A
C739   C768    1.399   .     A
C740   C766    1.399   .     A
C741   O817    1.383   .     S
C741   N812    1.377   .     A
C742   O818    1.391   .     S
C742   N811    1.384   .     A
C742   C191    1.437   1_565 S
C743   O819    1.383   .     S
C743   N812    1.377   .     A
C744   N811    1.384   .     A
C744   O820    1.391   .     S
C744   C189    1.437   1_565 S
C745   C746    1.509   .     S
C745   O828    1.418   .     S
C745   H771    1.101   .     S
C746   H806    1.104   .     S
C747   H807    1.117   .     S
C747   H808    1.107   .     S
C747   O814    1.415   .     S
C747   C749    1.526   .     S
C748   O821    1.315   .     A
C748   O822    1.302   .     A
C749   H772    1.107   .     S
C749   H810    1.109   .     S
C749   H809    1.109   .     S
C750   O815    1.418   .     S
C750   C751    1.509   .     S
C750   H773    1.101   .     S
C750   H590    1.119   1_655 S
C751   H777    1.104   .     S
C751   H591    1.105   1_655 S
C751   H592    1.110   1_655 S
C752   C753    1.526   .     S
C752   O816    1.415   .     S
C752   H779    1.107   .     S
C752   H778    1.117   .     S
C753   H781    1.109   .     S
C753   H783    1.107   .     S
C753   H780    1.109   .     S
C754   O817    1.419   .     S
C754   C755    1.526   .     S
C754   H784    1.099   .     S
C754   H785    1.107   .     S
C755   H788    1.109   .     S
C755   H786    1.109   .     S
C755   H2443   1.107   1_554 S
C756   O818    1.414   .     S
C756   H790    1.113   .     S
C756   H789    1.105   .     S
C756   C757    1.521   .     S
C757   H791    1.105   .     S
C757   H792    1.108   .     S
C757   H794    1.107   .     S
C758   H796    1.107   .     S
C758   H795    1.099   .     S
C758   O819    1.419   .     S
C758   C760    1.526   .     S
C759   C764    1.405   .     S
C759   O824    1.298   .     A
C759   O827    1.300   .     A
C760   H797    1.109   .     S
C760   H799    1.109   .     S
C760   H1626   1.107   .     S
C761   O820    1.414   .     S
C761   H801    1.113   .     S
C761   C762    1.521   .     S
C761   H800    1.105   .     S
C762   H803    1.108   .     S
C762   H802    1.105   .     S
C762   H805    1.107   .     S
C763   C765    1.405   .     S
C763   O826    1.298   .     A
C763   O825    1.300   .     A
C764   C2421   1.188   1_554 S
C765   C1592   1.188   .     S
C766   O828    1.378   .     S
C767   O814    1.383   .     S
C767   C554    1.403   1_655 S
C768   O815    1.378   .     S
C768   C582    1.395   1_655 S
Cu769  O824    1.925   .     S
Cu769  N811    2.043   .     S
Cu769  O822    1.992   .     S
Cu769  Cu770   2.719   .     S
Cu769  O826    1.925   .     S
Cu769  O813    1.992   .     S
Cu770  O827    1.925   .     S
Cu770  O825    1.925   .     S
Cu770  O823    1.992   .     S
Cu770  O821    1.992   .     S
Cu770  N812    2.043   .     S
H782   C561    1.119   1_655 S
H787   C1583   1.107   .     S
H793   C562    1.105   1_655 S
H798   C2416   1.107   1_554 S
H804   C562    1.110   1_655 S
C829   O915    1.315   .     A
C829   O905    1.302   .     A
C829   C832    1.473   .     S
C830   C832    1.417   .     A
C830   O908    1.383   .     S
C830   C1043   1.403   1_455 S
C831   C840    1.473   .     S
C831   C859    1.417   .     A
C831   C860    1.399   .     A
C832   C858    1.399   .     A
C833   O909    1.383   .     S
C833   N904    1.377   .     A
C833   C1388   1.437   1_545 S
C834   O910    1.391   .     S
C834   N903    1.384   .     A
C834   C1111   1.437   .     S
C835   O911    1.383   .     S
C835   N904    1.377   .     A
C835   C1386   1.437   1_545 S
C836   N903    1.384   .     A
C836   O912    1.391   .     S
C836   C1109   1.437   .     S
C837   C838    1.509   .     S
C837   O920    1.418   .     S
C837   H863    1.101   .     S
C837   H1058   1.119   1_455 S
C838   H898    1.104   .     S
C838   H1069   1.105   1_455 S
C838   H1080   1.110   1_455 S
C839   H899    1.117   .     S
C839   H900    1.107   .     S
C839   O906    1.415   .     S
C839   C841    1.526   .     S
C840   O913    1.315   .     A
C840   O914    1.302   .     A
C841   H864    1.107   .     S
C841   H902    1.109   .     S
C841   H901    1.109   .     S
C842   O907    1.418   .     S
C842   C843    1.509   .     S
C842   H865    1.101   .     S
C842   H958    1.119   .     S
C843   H869    1.104   .     S
C843   H959    1.105   .     S
C843   H960    1.110   .     S
C844   C845    1.526   .     S
C844   O908    1.415   .     S
C844   H871    1.107   .     S
C844   H870    1.117   .     S
C845   H873    1.109   .     S
C845   H875    1.107   .     S
C845   H872    1.109   .     S
C846   O909    1.419   .     S
C846   C847    1.526   .     S
C846   H876    1.099   .     S
C846   H877    1.107   .     S
C847   H880    1.109   .     S
C847   H878    1.109   .     S
C848   O910    1.414   .     S
C848   H882    1.113   .     S
C848   H881    1.105   .     S
C848   C849    1.521   .     S
C849   H883    1.105   .     S
C849   H884    1.108   .     S
C849   H886    1.107   .     S
C850   H888    1.107   .     S
C850   H887    1.099   .     S
C850   O911    1.419   .     S
C850   C852    1.526   .     S
C851   C856    1.405   .     S
C851   O916    1.298   .     A
C851   O919    1.300   .     A
C852   H889    1.109   .     S
C852   H891    1.109   .     S
C852   H1718   1.107   .     S
C853   O912    1.414   .     S
C853   H893    1.113   .     S
C853   C854    1.521   .     S
C853   H892    1.105   .     S
C854   H895    1.108   .     S
C854   H894    1.105   .     S
C854   H897    1.107   .     S
C855   C857    1.405   .     S
C855   O918    1.298   .     A
C855   O917    1.300   .     A
C857   C1684   1.188   .     S
C858   O920    1.378   .     S
C858   C1044   1.395   1_455 S
C859   O906    1.383   .     S
C859   C922    1.403   .     S
C860   O907    1.378   .     S
C860   C950    1.395   .     S
Cu861  O916    1.925   .     S
Cu861  N903    2.043   .     S
Cu861  O914    1.992   .     S
Cu861  Cu862   2.719   .     S
Cu861  O918    1.925   .     S
Cu861  O905    1.992   .     S
Cu862  O919    1.925   .     S
Cu862  O917    1.925   .     S
Cu862  O915    1.992   .     S
Cu862  O913    1.992   .     S
Cu862  N904    2.043   .     S
H866   C1026   1.119   1_455 S
H867   C1027   1.105   1_455 S
H868   C1027   1.110   1_455 S
H874   C929    1.119   .     S
H879   C1675   1.107   .     S
H885   C930    1.105   .     S
H896   C930    1.110   .     S
C921   O1007   1.315   .     A
C921   O997    1.302   .     A
C921   C924    1.473   .     S
C922   C924    1.417   .     A
C922   O1000   1.383   .     S
C923   C932    1.473   .     S
C923   C951    1.417   .     A
C923   C952    1.399   .     A
C924   C950    1.399   .     A
C925   O1001   1.383   .     S
C925   N996    1.377   .     A
C925   C1480   1.437   1_545 S
C926   O1002   1.391   .     S
C926   N995    1.384   .     A
C926   C1203   1.437   .     S
C927   O1003   1.383   .     S
C927   N996    1.377   .     A
C927   C1478   1.437   1_545 S
C928   N995    1.384   .     A
C928   O1004   1.391   .     S
C928   C1201   1.437   .     S
C929   C930    1.509   .     S
C929   O1012   1.418   .     S
C929   H955    1.101   .     S
C930   H990    1.104   .     S
C931   H991    1.117   .     S
C931   H992    1.107   .     S
C931   O998    1.415   .     S
C931   C933    1.526   .     S
C932   O1005   1.315   .     A
C932   O1006   1.302   .     A
C933   H956    1.107   .     S
C933   H994    1.109   .     S
C933   H993    1.109   .     S
C934   O999    1.418   .     S
C934   C935    1.509   .     S
C934   H957    1.101   .     S
C934   H1050   1.119   .     S
C935   H961    1.104   .     S
C935   H1051   1.105   .     S
C935   H1052   1.110   .     S
C936   C937    1.526   .     S
C936   O1000   1.415   .     S
C936   H963    1.107   .     S
C936   H962    1.117   .     S
C937   H965    1.109   .     S
C937   H967    1.107   .     S
C937   H964    1.109   .     S
C938   O1001   1.419   .     S
C938   C939    1.526   .     S
C938   H968    1.099   .     S
C938   H969    1.107   .     S
C939   H972    1.109   .     S
C939   H970    1.109   .     S
C940   O1002   1.414   .     S
C940   H974    1.113   .     S
C940   H973    1.105   .     S
C940   C941    1.521   .     S
C941   H975    1.105   .     S
C941   H976    1.108   .     S
C941   H978    1.107   .     S
C942   H980    1.107   .     S
C942   H979    1.099   .     S
C942   O1003   1.419   .     S
C942   C944    1.526   .     S
C943   C948    1.405   .     S
C943   O1008   1.298   .     A
C943   O1011   1.300   .     A
C944   H981    1.109   .     S
C944   H983    1.109   .     S
C944   H1810   1.107   .     S
C945   O1004   1.414   .     S
C945   H985    1.113   .     S
C945   C946    1.521   .     S
C945   H984    1.105   .     S
C946   H987    1.108   .     S
C946   H986    1.105   .     S
C946   H989    1.107   .     S
C947   C949    1.405   .     S
C947   O1010   1.298   .     A
C947   O1009   1.300   .     A
C949   C1776   1.188   .     S
C950   O1012   1.378   .     S
C951   O998    1.383   .     S
C951   C1014   1.403   .     S
C952   O999    1.378   .     S
C952   C1042   1.395   .     S
Cu953  O1008   1.925   .     S
Cu953  N995    2.043   .     S
Cu953  O1006   1.992   .     S
Cu953  Cu954   2.719   .     S
Cu953  O1010   1.925   .     S
Cu953  O997    1.992   .     S
Cu954  O1011   1.925   .     S
Cu954  O1009   1.925   .     S
Cu954  O1007   1.992   .     S
Cu954  O1005   1.992   .     S
Cu954  N996    2.043   .     S
H966   C1021   1.119   .     S
H971   C1767   1.107   .     S
H977   C1022   1.105   .     S
H988   C1022   1.110   .     S
C1013  O1099   1.315   .     A
C1013  O1089   1.302   .     A
C1013  C1016   1.473   .     S
C1014  C1016   1.417   .     A
C1014  O1092   1.383   .     S
C1015  C1024   1.473   .     S
C1015  C1043   1.417   .     A
C1015  C1044   1.399   .     A
C1016  C1042   1.399   .     A
C1017  O1093   1.383   .     S
C1017  N1088   1.377   .     A
C1017  C1572   1.437   1_545 S
C1018  O1094   1.391   .     S
C1018  N1087   1.384   .     A
C1018  C1295   1.437   .     S
C1019  O1095   1.383   .     S
C1019  N1088   1.377   .     A
C1019  C1570   1.437   1_545 S
C1020  N1087   1.384   .     A
C1020  O1096   1.391   .     S
C1020  C1293   1.437   .     S
C1021  C1022   1.509   .     S
C1021  O1104   1.418   .     S
C1021  H1047   1.101   .     S
C1022  H1082   1.104   .     S
C1023  H1083   1.117   .     S
C1023  H1084   1.107   .     S
C1023  O1090   1.415   .     S
C1023  C1025   1.526   .     S
C1024  O1097   1.315   .     A
C1024  O1098   1.302   .     A
C1025  H1048   1.107   .     S
C1025  H1086   1.109   .     S
C1025  H1085   1.109   .     S
C1026  O1091   1.418   .     S
C1026  C1027   1.509   .     S
C1026  H1049   1.101   .     S
C1026  H866    1.119   1_655 S
C1027  H1053   1.104   .     S
C1027  H867    1.105   1_655 S
C1027  H868    1.110   1_655 S
C1028  C1029   1.526   .     S
C1028  O1092   1.415   .     S
C1028  H1055   1.107   .     S
C1028  H1054   1.117   .     S
C1029  H1057   1.109   .     S
C1029  H1059   1.107   .     S
C1029  H1056   1.109   .     S
C1030  O1093   1.419   .     S
C1030  C1031   1.526   .     S
C1030  H1060   1.099   .     S
C1030  H1061   1.107   .     S
C1031  H1064   1.109   .     S
C1031  H1062   1.109   .     S
C1032  O1094   1.414   .     S
C1032  H1066   1.113   .     S
C1032  H1065   1.105   .     S
C1032  C1033   1.521   .     S
C1033  H1067   1.105   .     S
C1033  H1068   1.108   .     S
C1033  H1070   1.107   .     S
C1034  H1072   1.107   .     S
C1034  H1071   1.099   .     S
C1034  O1095   1.419   .     S
C1034  C1036   1.526   .     S
C1035  C1040   1.405   .     S
C1035  O1100   1.298   .     A
C1035  O1103   1.300   .     A
C1036  H1073   1.109   .     S
C1036  H1075   1.109   .     S
C1036  H1902   1.107   .     S
C1037  O1096   1.414   .     S
C1037  H1077   1.113   .     S
C1037  C1038   1.521   .     S
C1037  H1076   1.105   .     S
C1038  H1079   1.108   .     S
C1038  H1078   1.105   .     S
C1038  H1081   1.107   .     S
C1039  C1041   1.405   .     S
C1039  O1102   1.298   .     A
C1039  O1101   1.300   .     A
C1041  C1868   1.188   .     S
C1042  O1104   1.378   .     S
C1043  O1090   1.383   .     S
C1043  C830    1.403   1_655 S
C1044  O1091   1.378   .     S
C1044  C858    1.395   1_655 S
Cu1045 O1100   1.925   .     S
Cu1045 N1087   2.043   .     S
Cu1045 O1098   1.992   .     S
Cu1045 Cu1046  2.719   .     S
Cu1045 O1102   1.925   .     S
Cu1045 O1089   1.992   .     S
Cu1046 O1103   1.925   .     S
Cu1046 O1101   1.925   .     S
Cu1046 O1099   1.992   .     S
Cu1046 O1097   1.992   .     S
Cu1046 N1088   2.043   .     S
H1058  C837    1.119   1_655 S
H1063  C1859   1.107   .     S
H1069  C838    1.105   1_655 S
H1080  C838    1.110   1_655 S
C1105  O1191   1.315   .     A
C1105  O1181   1.302   .     A
C1105  C1108   1.473   .     S
C1106  C1108   1.417   .     A
C1106  O1184   1.383   .     S
C1106  C1319   1.403   1_455 S
C1107  C1116   1.473   .     S
C1107  C1135   1.417   .     A
C1107  C1136   1.399   .     A
C1108  C1134   1.399   .     A
C1109  O1185   1.383   .     S
C1109  N1180   1.377   .     A
C1110  O1186   1.391   .     S
C1110  N1179   1.384   .     A
C1110  C1387   1.437   .     S
C1111  O1187   1.383   .     S
C1111  N1180   1.377   .     A
C1112  N1179   1.384   .     A
C1112  O1188   1.391   .     S
C1112  C1385   1.437   .     S
C1113  C1114   1.509   .     S
C1113  O1196   1.418   .     S
C1113  H1139   1.101   .     S
C1113  H1334   1.119   1_455 S
C1114  H1174   1.104   .     S
C1114  H1345   1.105   1_455 S
C1114  H1356   1.110   1_455 S
C1115  H1175   1.117   .     S
C1115  H1176   1.107   .     S
C1115  O1182   1.415   .     S
C1115  C1117   1.526   .     S
C1116  O1189   1.315   .     A
C1116  O1190   1.302   .     A
C1117  H1140   1.107   .     S
C1117  H1178   1.109   .     S
C1117  H1177   1.109   .     S
C1118  O1183   1.418   .     S
C1118  C1119   1.509   .     S
C1118  H1141   1.101   .     S
C1118  H1234   1.119   .     S
C1119  H1145   1.104   .     S
C1119  H1235   1.105   .     S
C1119  H1236   1.110   .     S
C1120  C1121   1.526   .     S
C1120  O1184   1.415   .     S
C1120  H1147   1.107   .     S
C1120  H1146   1.117   .     S
C1121  H1149   1.109   .     S
C1121  H1151   1.107   .     S
C1121  H1148   1.109   .     S
C1122  O1185   1.419   .     S
C1122  C1123   1.526   .     S
C1122  H1152   1.099   .     S
C1122  H1153   1.107   .     S
C1123  H1156   1.109   .     S
C1123  H1154   1.109   .     S
C1124  O1186   1.414   .     S
C1124  H1158   1.113   .     S
C1124  H1157   1.105   .     S
C1124  C1125   1.521   .     S
C1125  H1159   1.105   .     S
C1125  H1160   1.108   .     S
C1125  H1162   1.107   .     S
C1126  H1164   1.107   .     S
C1126  H1163   1.099   .     S
C1126  O1187   1.419   .     S
C1126  C1128   1.526   .     S
C1127  C1132   1.405   .     S
C1127  O1192   1.298   .     A
C1127  O1195   1.300   .     A
C1128  H1165   1.109   .     S
C1128  H1167   1.109   .     S
C1128  H1994   1.107   .     S
C1129  O1188   1.414   .     S
C1129  H1169   1.113   .     S
C1129  C1130   1.521   .     S
C1129  H1168   1.105   .     S
C1130  H1171   1.108   .     S
C1130  H1170   1.105   .     S
C1130  H1173   1.107   .     S
C1131  C1133   1.405   .     S
C1131  O1194   1.298   .     A
C1131  O1193   1.300   .     A
C1133  C1960   1.188   .     S
C1134  O1196   1.378   .     S
C1134  C1320   1.395   1_455 S
C1135  O1182   1.383   .     S
C1135  C1198   1.403   .     S
C1136  O1183   1.378   .     S
C1136  C1226   1.395   .     S
Cu1137 O1192   1.925   .     S
Cu1137 N1179   2.043   .     S
Cu1137 O1190   1.992   .     S
Cu1137 Cu1138  2.719   .     S
Cu1137 O1194   1.925   .     S
Cu1137 O1181   1.992   .     S
Cu1138 O1195   1.925   .     S
Cu1138 O1193   1.925   .     S
Cu1138 O1191   1.992   .     S
Cu1138 O1189   1.992   .     S
Cu1138 N1180   2.043   .     S
H1142  C1302   1.119   1_455 S
H1143  C1303   1.105   1_455 S
H1144  C1303   1.110   1_455 S
H1150  C1205   1.119   .     S
H1155  C1951   1.107   .     S
H1161  C1206   1.105   .     S
H1172  C1206   1.110   .     S
C1197  O1283   1.315   .     A
C1197  O1273   1.302   .     A
C1197  C1200   1.473   .     S
C1198  C1200   1.417   .     A
C1198  O1276   1.383   .     S
C1199  C1208   1.473   .     S
C1199  C1227   1.417   .     A
C1199  C1228   1.399   .     A
C1200  C1226   1.399   .     A
C1201  O1277   1.383   .     S
C1201  N1272   1.377   .     A
C1202  O1278   1.391   .     S
C1202  N1271   1.384   .     A
C1202  C1479   1.437   .     S
C1203  O1279   1.383   .     S
C1203  N1272   1.377   .     A
C1204  N1271   1.384   .     A
C1204  O1280   1.391   .     S
C1204  C1477   1.437   .     S
C1205  C1206   1.509   .     S
C1205  O1288   1.418   .     S
C1205  H1231   1.101   .     S
C1206  H1266   1.104   .     S
C1207  H1267   1.117   .     S
C1207  H1268   1.107   .     S
C1207  O1274   1.415   .     S
C1207  C1209   1.526   .     S
C1208  O1281   1.315   .     A
C1208  O1282   1.302   .     A
C1209  H1232   1.107   .     S
C1209  H1270   1.109   .     S
C1209  H1269   1.109   .     S
C1210  O1275   1.418   .     S
C1210  C1211   1.509   .     S
C1210  H1233   1.101   .     S
C1210  H1326   1.119   .     S
C1211  H1237   1.104   .     S
C1211  H1327   1.105   .     S
C1211  H1328   1.110   .     S
C1212  C1213   1.526   .     S
C1212  O1276   1.415   .     S
C1212  H1239   1.107   .     S
C1212  H1238   1.117   .     S
C1213  H1241   1.109   .     S
C1213  H1243   1.107   .     S
C1213  H1240   1.109   .     S
C1214  O1277   1.419   .     S
C1214  C1215   1.526   .     S
C1214  H1244   1.099   .     S
C1214  H1245   1.107   .     S
C1215  H1248   1.109   .     S
C1215  H1246   1.109   .     S
C1216  O1278   1.414   .     S
C1216  H1250   1.113   .     S
C1216  H1249   1.105   .     S
C1216  C1217   1.521   .     S
C1217  H1251   1.105   .     S
C1217  H1252   1.108   .     S
C1217  H1254   1.107   .     S
C1218  H1256   1.107   .     S
C1218  H1255   1.099   .     S
C1218  O1279   1.419   .     S
C1218  C1220   1.526   .     S
C1219  C1224   1.405   .     S
C1219  O1284   1.298   .     A
C1219  O1287   1.300   .     A
C1220  H1257   1.109   .     S
C1220  H1259   1.109   .     S
C1220  H2086   1.107   .     S
C1221  O1280   1.414   .     S
C1221  H1261   1.113   .     S
C1221  C1222   1.521   .     S
C1221  H1260   1.105   .     S
C1222  H1263   1.108   .     S
C1222  H1262   1.105   .     S
C1222  H1265   1.107   .     S
C1223  C1225   1.405   .     S
C1223  O1286   1.298   .     A
C1223  O1285   1.300   .     A
C1225  C2052   1.188   .     S
C1226  O1288   1.378   .     S
C1227  O1274   1.383   .     S
C1227  C1290   1.403   .     S
C1228  O1275   1.378   .     S
C1228  C1318   1.395   .     S
Cu1229 O1284   1.925   .     S
Cu1229 N1271   2.043   .     S
Cu1229 O1282   1.992   .     S
Cu1229 Cu1230  2.719   .     S
Cu1229 O1286   1.925   .     S
Cu1229 O1273   1.992   .     S
Cu1230 O1287   1.925   .     S
Cu1230 O1285   1.925   .     S
Cu1230 O1283   1.992   .     S
Cu1230 O1281   1.992   .     S
Cu1230 N1272   2.043   .     S
H1242  C1297   1.119   .     S
H1247  C2043   1.107   .     S
H1253  C1298   1.105   .     S
H1264  C1298   1.110   .     S
C1289  O1375   1.315   .     A
C1289  O1365   1.302   .     A
C1289  C1292   1.473   .     S
C1290  C1292   1.417   .     A
C1290  O1368   1.383   .     S
C1291  C1300   1.473   .     S
C1291  C1319   1.417   .     A
C1291  C1320   1.399   .     A
C1292  C1318   1.399   .     A
C1293  O1369   1.383   .     S
C1293  N1364   1.377   .     A
C1294  O1370   1.391   .     S
C1294  N1363   1.384   .     A
C1294  C1571   1.437   .     S
C1295  O1371   1.383   .     S
C1295  N1364   1.377   .     A
C1296  N1363   1.384   .     A
C1296  O1372   1.391   .     S
C1296  C1569   1.437   .     S
C1297  C1298   1.509   .     S
C1297  O1380   1.418   .     S
C1297  H1323   1.101   .     S
C1298  H1358   1.104   .     S
C1299  H1359   1.117   .     S
C1299  H1360   1.107   .     S
C1299  O1366   1.415   .     S
C1299  C1301   1.526   .     S
C1300  O1373   1.315   .     A
C1300  O1374   1.302   .     A
C1301  H1324   1.107   .     S
C1301  H1362   1.109   .     S
C1301  H1361   1.109   .     S
C1302  O1367   1.418   .     S
C1302  C1303   1.509   .     S
C1302  H1325   1.101   .     S
C1302  H1142   1.119   1_655 S
C1303  H1329   1.104   .     S
C1303  H1143   1.105   1_655 S
C1303  H1144   1.110   1_655 S
C1304  C1305   1.526   .     S
C1304  O1368   1.415   .     S
C1304  H1331   1.107   .     S
C1304  H1330   1.117   .     S
C1305  H1333   1.109   .     S
C1305  H1335   1.107   .     S
C1305  H1332   1.109   .     S
C1306  O1369   1.419   .     S
C1306  C1307   1.526   .     S
C1306  H1336   1.099   .     S
C1306  H1337   1.107   .     S
C1307  H1340   1.109   .     S
C1307  H1338   1.109   .     S
C1308  O1370   1.414   .     S
C1308  H1342   1.113   .     S
C1308  H1341   1.105   .     S
C1308  C1309   1.521   .     S
C1309  H1343   1.105   .     S
C1309  H1344   1.108   .     S
C1309  H1346   1.107   .     S
C1310  H1348   1.107   .     S
C1310  H1347   1.099   .     S
C1310  O1371   1.419   .     S
C1310  C1312   1.526   .     S
C1311  C1316   1.405   .     S
C1311  O1376   1.298   .     A
C1311  O1379   1.300   .     A
C1312  H1349   1.109   .     S
C1312  H1351   1.109   .     S
C1312  H2178   1.107   .     S
C1313  O1372   1.414   .     S
C1313  H1353   1.113   .     S
C1313  C1314   1.521   .     S
C1313  H1352   1.105   .     S
C1314  H1355   1.108   .     S
C1314  H1354   1.105   .     S
C1314  H1357   1.107   .     S
C1315  C1317   1.405   .     S
C1315  O1378   1.298   .     A
C1315  O1377   1.300   .     A
C1317  C2144   1.188   .     S
C1318  O1380   1.378   .     S
C1319  O1366   1.383   .     S
C1319  C1106   1.403   1_655 S
C1320  O1367   1.378   .     S
C1320  C1134   1.395   1_655 S
Cu1321 O1376   1.925   .     S
Cu1321 N1363   2.043   .     S
Cu1321 O1374   1.992   .     S
Cu1321 Cu1322  2.719   .     S
Cu1321 O1378   1.925   .     S
Cu1321 O1365   1.992   .     S
Cu1322 O1379   1.925   .     S
Cu1322 O1377   1.925   .     S
Cu1322 O1375   1.992   .     S
Cu1322 O1373   1.992   .     S
Cu1322 N1364   2.043   .     S
H1334  C1113   1.119   1_655 S
H1339  C2135   1.107   .     S
H1345  C1114   1.105   1_655 S
H1356  C1114   1.110   1_655 S
C1381  O1467   1.315   .     A
C1381  O1457   1.302   .     A
C1381  C1384   1.473   .     S
C1382  C1384   1.417   .     A
C1382  O1460   1.383   .     S
C1382  C1595   1.403   1_455 S
C1383  C1392   1.473   .     S
C1383  C1411   1.417   .     A
C1383  C1412   1.399   .     A
C1384  C1410   1.399   .     A
C1385  O1461   1.383   .     S
C1385  N1456   1.377   .     A
C1386  O1462   1.391   .     S
C1386  N1455   1.384   .     A
C1386  C835    1.437   1_565 S
C1387  O1463   1.383   .     S
C1387  N1456   1.377   .     A
C1388  N1455   1.384   .     A
C1388  O1464   1.391   .     S
C1388  C833    1.437   1_565 S
C1389  C1390   1.509   .     S
C1389  O1472   1.418   .     S
C1389  H1415   1.101   .     S
C1389  H1610   1.119   1_455 S
C1390  H1450   1.104   .     S
C1390  H1621   1.105   1_455 S
C1390  H1632   1.110   1_455 S
C1391  H1451   1.117   .     S
C1391  H1452   1.107   .     S
C1391  O1458   1.415   .     S
C1391  C1393   1.526   .     S
C1392  O1465   1.315   .     A
C1392  O1466   1.302   .     A
C1393  H1416   1.107   .     S
C1393  H1454   1.109   .     S
C1393  H1453   1.109   .     S
C1394  O1459   1.418   .     S
C1394  C1395   1.509   .     S
C1394  H1417   1.101   .     S
C1394  H1510   1.119   .     S
C1395  H1421   1.104   .     S
C1395  H1511   1.105   .     S
C1395  H1512   1.110   .     S
C1396  C1397   1.526   .     S
C1396  O1460   1.415   .     S
C1396  H1423   1.107   .     S
C1396  H1422   1.117   .     S
C1397  H1425   1.109   .     S
C1397  H1427   1.107   .     S
C1397  H1424   1.109   .     S
C1398  O1461   1.419   .     S
C1398  C1399   1.526   .     S
C1398  H1428   1.099   .     S
C1398  H1429   1.107   .     S
C1399  H1432   1.109   .     S
C1399  H1430   1.109   .     S
C1400  O1462   1.414   .     S
C1400  H1434   1.113   .     S
C1400  H1433   1.105   .     S
C1400  C1401   1.521   .     S
C1401  H1435   1.105   .     S
C1401  H1436   1.108   .     S
C1401  H1438   1.107   .     S
C1402  H1440   1.107   .     S
C1402  H1439   1.099   .     S
C1402  O1463   1.419   .     S
C1402  C1404   1.526   .     S
C1403  C1408   1.405   .     S
C1403  O1468   1.298   .     A
C1403  O1471   1.300   .     A
C1404  H1441   1.109   .     S
C1404  H1443   1.109   .     S
C1404  H2270   1.107   .     S
C1405  O1464   1.414   .     S
C1405  H1445   1.113   .     S
C1405  C1406   1.521   .     S
C1405  H1444   1.105   .     S
C1406  H1447   1.108   .     S
C1406  H1446   1.105   .     S
C1406  H1449   1.107   .     S
C1407  C1409   1.405   .     S
C1407  O1470   1.298   .     A
C1407  O1469   1.300   .     A
C1409  C2236   1.188   .     S
C1410  O1472   1.378   .     S
C1410  C1596   1.395   1_455 S
C1411  O1458   1.383   .     S
C1411  C1474   1.403   .     S
C1412  O1459   1.378   .     S
C1412  C1502   1.395   .     S
Cu1413 O1468   1.925   .     S
Cu1413 N1455   2.043   .     S
Cu1413 O1466   1.992   .     S
Cu1413 Cu1414  2.719   .     S
Cu1413 O1470   1.925   .     S
Cu1413 O1457   1.992   .     S
Cu1414 O1471   1.925   .     S
Cu1414 O1469   1.925   .     S
Cu1414 O1467   1.992   .     S
Cu1414 O1465   1.992   .     S
Cu1414 N1456   2.043   .     S
H1418  C1578   1.119   1_455 S
H1419  C1579   1.105   1_455 S
H1420  C1579   1.110   1_455 S
H1426  C1481   1.119   .     S
H1431  C2227   1.107   .     S
H1437  C1482   1.105   .     S
H1448  C1482   1.110   .     S
C1473  O1559   1.315   .     A
C1473  O1549   1.302   .     A
C1473  C1476   1.473   .     S
C1474  C1476   1.417   .     A
C1474  O1552   1.383   .     S
C1475  C1484   1.473   .     S
C1475  C1503   1.417   .     A
C1475  C1504   1.399   .     A
C1476  C1502   1.399   .     A
C1477  O1553   1.383   .     S
C1477  N1548   1.377   .     A
C1478  O1554   1.391   .     S
C1478  N1547   1.384   .     A
C1478  C927    1.437   1_565 S
C1479  O1555   1.383   .     S
C1479  N1548   1.377   .     A
C1480  N1547   1.384   .     A
C1480  O1556   1.391   .     S
C1480  C925    1.437   1_565 S
C1481  C1482   1.509   .     S
C1481  O1564   1.418   .     S
C1481  H1507   1.101   .     S
C1482  H1542   1.104   .     S
C1483  H1543   1.117   .     S
C1483  H1544   1.107   .     S
C1483  O1550   1.415   .     S
C1483  C1485   1.526   .     S
C1484  O1557   1.315   .     A
C1484  O1558   1.302   .     A
C1485  H1508   1.107   .     S
C1485  H1546   1.109   .     S
C1485  H1545   1.109   .     S
C1486  O1551   1.418   .     S
C1486  C1487   1.509   .     S
C1486  H1509   1.101   .     S
C1486  H1602   1.119   .     S
C1487  H1513   1.104   .     S
C1487  H1603   1.105   .     S
C1487  H1604   1.110   .     S
C1488  C1489   1.526   .     S
C1488  O1552   1.415   .     S
C1488  H1515   1.107   .     S
C1488  H1514   1.117   .     S
C1489  H1517   1.109   .     S
C1489  H1519   1.107   .     S
C1489  H1516   1.109   .     S
C1490  O1553   1.419   .     S
C1490  C1491   1.526   .     S
C1490  H1520   1.099   .     S
C1490  H1521   1.107   .     S
C1491  H1524   1.109   .     S
C1491  H1522   1.109   .     S
C1492  O1554   1.414   .     S
C1492  H1526   1.113   .     S
C1492  H1525   1.105   .     S
C1492  C1493   1.521   .     S
C1493  H1527   1.105   .     S
C1493  H1528   1.108   .     S
C1493  H1530   1.107   .     S
C1494  H1532   1.107   .     S
C1494  H1531   1.099   .     S
C1494  O1555   1.419   .     S
C1494  C1496   1.526   .     S
C1495  C1500   1.405   .     S
C1495  O1560   1.298   .     A
C1495  O1563   1.300   .     A
C1496  H1533   1.109   .     S
C1496  H1535   1.109   .     S
C1496  H2362   1.107   .     S
C1497  O1556   1.414   .     S
C1497  H1537   1.113   .     S
C1497  C1498   1.521   .     S
C1497  H1536   1.105   .     S
C1498  H1539   1.108   .     S
C1498  H1538   1.105   .     S
C1498  H1541   1.107   .     S
C1499  C1501   1.405   .     S
C1499  O1562   1.298   .     A
C1499  O1561   1.300   .     A
C1501  C2328   1.188   .     S
C1502  O1564   1.378   .     S
C1503  O1550   1.383   .     S
C1503  C1566   1.403   .     S
C1504  O1551   1.378   .     S
C1504  C1594   1.395   .     S
Cu1505 O1560   1.925   .     S
Cu1505 N1547   2.043   .     S
Cu1505 O1558   1.992   .     S
Cu1505 Cu1506  2.719   .     S
Cu1505 O1562   1.925   .     S
Cu1505 O1549   1.992   .     S
Cu1506 O1563   1.925   .     S
Cu1506 O1561   1.925   .     S
Cu1506 O1559   1.992   .     S
Cu1506 O1557   1.992   .     S
Cu1506 N1548   2.043   .     S
H1518  C1573   1.119   .     S
H1523  C2319   1.107   .     S
H1529  C1574   1.105   .     S
H1540  C1574   1.110   .     S
C1565  O1651   1.315   .     A
C1565  O1641   1.302   .     A
C1565  C1568   1.473   .     S
C1566  C1568   1.417   .     A
C1566  O1644   1.383   .     S
C1567  C1576   1.473   .     S
C1567  C1595   1.417   .     A
C1567  C1596   1.399   .     A
C1568  C1594   1.399   .     A
C1569  O1645   1.383   .     S
C1569  N1640   1.377   .     A
C1570  O1646   1.391   .     S
C1570  N1639   1.384   .     A
C1570  C1019   1.437   1_565 S
C1571  O1647   1.383   .     S
C1571  N1640   1.377   .     A
C1572  N1639   1.384   .     A
C1572  O1648   1.391   .     S
C1572  C1017   1.437   1_565 S
C1573  C1574   1.509   .     S
C1573  O1656   1.418   .     S
C1573  H1599   1.101   .     S
C1574  H1634   1.104   .     S
C1575  H1635   1.117   .     S
C1575  H1636   1.107   .     S
C1575  O1642   1.415   .     S
C1575  C1577   1.526   .     S
C1576  O1649   1.315   .     A
C1576  O1650   1.302   .     A
C1577  H1600   1.107   .     S
C1577  H1638   1.109   .     S
C1577  H1637   1.109   .     S
C1578  O1643   1.418   .     S
C1578  C1579   1.509   .     S
C1578  H1601   1.101   .     S
C1578  H1418   1.119   1_655 S
C1579  H1605   1.104   .     S
C1579  H1419   1.105   1_655 S
C1579  H1420   1.110   1_655 S
C1580  C1581   1.526   .     S
C1580  O1644   1.415   .     S
C1580  H1607   1.107   .     S
C1580  H1606   1.117   .     S
C1581  H1609   1.109   .     S
C1581  H1611   1.107   .     S
C1581  H1608   1.109   .     S
C1582  O1645   1.419   .     S
C1582  C1583   1.526   .     S
C1582  H1612   1.099   .     S
C1582  H1613   1.107   .     S
C1583  H1616   1.109   .     S
C1583  H1614   1.109   .     S
C1584  O1646   1.414   .     S
C1584  H1618   1.113   .     S
C1584  H1617   1.105   .     S
C1584  C1585   1.521   .     S
C1585  H1619   1.105   .     S
C1585  H1620   1.108   .     S
C1585  H1622   1.107   .     S
C1586  H1624   1.107   .     S
C1586  H1623   1.099   .     S
C1586  O1647   1.419   .     S
C1586  C1588   1.526   .     S
C1587  C1592   1.405   .     S
C1587  O1652   1.298   .     A
C1587  O1655   1.300   .     A
C1588  H1625   1.109   .     S
C1588  H1627   1.109   .     S
C1588  H2454   1.107   .     S
C1589  O1648   1.414   .     S
C1589  H1629   1.113   .     S
C1589  C1590   1.521   .     S
C1589  H1628   1.105   .     S
C1590  H1631   1.108   .     S
C1590  H1630   1.105   .     S
C1590  H1633   1.107   .     S
C1591  C1593   1.405   .     S
C1591  O1654   1.298   .     A
C1591  O1653   1.300   .     A
C1593  C2420   1.188   .     S
C1594  O1656   1.378   .     S
C1595  O1642   1.383   .     S
C1595  C1382   1.403   1_655 S
C1596  O1643   1.378   .     S
C1596  C1410   1.395   1_655 S
Cu1597 O1652   1.925   .     S
Cu1597 N1639   2.043   .     S
Cu1597 O1650   1.992   .     S
Cu1597 Cu1598  2.719   .     S
Cu1597 O1654   1.925   .     S
Cu1597 O1641   1.992   .     S
Cu1598 O1655   1.925   .     S
Cu1598 O1653   1.925   .     S
Cu1598 O1651   1.992   .     S
Cu1598 O1649   1.992   .     S
Cu1598 N1640   2.043   .     S
H1610  C1389   1.119   1_655 S
H1615  C2411   1.107   .     S
H1621  C1390   1.105   1_655 S
H1632  C1390   1.110   1_655 S
C1657  O1743   1.315   .     A
C1657  O1733   1.302   .     A
C1657  C1660   1.473   .     S
C1658  C1660   1.417   .     A
C1658  O1736   1.383   .     S
C1658  C1871   1.403   1_455 S
C1659  C1668   1.473   .     S
C1659  C1687   1.417   .     A
C1659  C1688   1.399   .     A
C1660  C1686   1.399   .     A
C1661  O1737   1.383   .     S
C1661  N1732   1.377   .     A
C1661  C2216   1.437   1_545 S
C1662  O1738   1.391   .     S
C1662  N1731   1.384   .     A
C1662  C1939   1.437   .     S
C1663  O1739   1.383   .     S
C1663  N1732   1.377   .     A
C1663  C2214   1.437   1_545 S
C1664  N1731   1.384   .     A
C1664  O1740   1.391   .     S
C1664  C1937   1.437   .     S
C1665  C1666   1.509   .     S
C1665  O1748   1.418   .     S
C1665  H1691   1.101   .     S
C1665  H1886   1.119   1_455 S
C1666  H1726   1.104   .     S
C1666  H1897   1.105   1_455 S
C1666  H1908   1.110   1_455 S
C1667  H1727   1.117   .     S
C1667  H1728   1.107   .     S
C1667  O1734   1.415   .     S
C1667  C1669   1.526   .     S
C1668  O1741   1.315   .     A
C1668  O1742   1.302   .     A
C1669  H1692   1.107   .     S
C1669  H1730   1.109   .     S
C1669  H1729   1.109   .     S
C1670  O1735   1.418   .     S
C1670  C1671   1.509   .     S
C1670  H1693   1.101   .     S
C1670  H1786   1.119   .     S
C1671  H1697   1.104   .     S
C1671  H1787   1.105   .     S
C1671  H1788   1.110   .     S
C1672  C1673   1.526   .     S
C1672  O1736   1.415   .     S
C1672  H1699   1.107   .     S
C1672  H1698   1.117   .     S
C1673  H1701   1.109   .     S
C1673  H1703   1.107   .     S
C1673  H1700   1.109   .     S
C1674  O1737   1.419   .     S
C1674  C1675   1.526   .     S
C1674  H1704   1.099   .     S
C1674  H1705   1.107   .     S
C1675  H1708   1.109   .     S
C1675  H1706   1.109   .     S
C1676  O1738   1.414   .     S
C1676  H1710   1.113   .     S
C1676  H1709   1.105   .     S
C1676  C1677   1.521   .     S
C1677  H1711   1.105   .     S
C1677  H1712   1.108   .     S
C1677  H1714   1.107   .     S
C1678  H1716   1.107   .     S
C1678  H1715   1.099   .     S
C1678  O1739   1.419   .     S
C1678  C1680   1.526   .     S
C1679  C1684   1.405   .     S
C1679  O1744   1.298   .     A
C1679  O1747   1.300   .     A
C1680  H1717   1.109   .     S
C1680  H1719   1.109   .     S
C1680  H62     1.107   1_556 S
C1681  O1740   1.414   .     S
C1681  H1721   1.113   .     S
C1681  C1682   1.521   .     S
C1681  H1720   1.105   .     S
C1682  H1723   1.108   .     S
C1682  H1722   1.105   .     S
C1682  H1725   1.107   .     S
C1683  C1685   1.405   .     S
C1683  O1746   1.298   .     A
C1683  O1745   1.300   .     A
C1685  C28     1.188   1_556 S
C1686  O1748   1.378   .     S
C1686  C1872   1.395   1_455 S
C1687  O1734   1.383   .     S
C1687  C1750   1.403   .     S
C1688  O1735   1.378   .     S
C1688  C1778   1.395   .     S
Cu1689 O1744   1.925   .     S
Cu1689 N1731   2.043   .     S
Cu1689 O1742   1.992   .     S
Cu1689 Cu1690  2.719   .     S
Cu1689 O1746   1.925   .     S
Cu1689 O1733   1.992   .     S
Cu1690 O1747   1.925   .     S
Cu1690 O1745   1.925   .     S
Cu1690 O1743   1.992   .     S
Cu1690 O1741   1.992   .     S
Cu1690 N1732   2.043   .     S
H1694  C1854   1.119   1_455 S
H1695  C1855   1.105   1_455 S
H1696  C1855   1.110   1_455 S
H1702  C1757   1.119   .     S
H1707  C19     1.107   1_556 S
H1713  C1758   1.105   .     S
H1724  C1758   1.110   .     S
C1749  O1835   1.315   .     A
C1749  O1825   1.302   .     A
C1749  C1752   1.473   .     S
C1750  C1752   1.417   .     A
C1750  O1828   1.383   .     S
C1751  C1760   1.473   .     S
C1751  C1779   1.417   .     A
C1751  C1780   1.399   .     A
C1752  C1778   1.399   .     A
C1753  O1829   1.383   .     S
C1753  N1824   1.377   .     A
C1753  C2308   1.437   1_545 S
C1754  O1830   1.391   .     S
C1754  N1823   1.384   .     A
C1754  C2031   1.437   .     S
C1755  O1831   1.383   .     S
C1755  N1824   1.377   .     A
C1755  C2306   1.437   1_545 S
C1756  N1823   1.384   .     A
C1756  O1832   1.391   .     S
C1756  C2029   1.437   .     S
C1757  C1758   1.509   .     S
C1757  O1840   1.418   .     S
C1757  H1783   1.101   .     S
C1758  H1818   1.104   .     S
C1759  H1819   1.117   .     S
C1759  H1820   1.107   .     S
C1759  O1826   1.415   .     S
C1759  C1761   1.526   .     S
C1760  O1833   1.315   .     A
C1760  O1834   1.302   .     A
C1761  H1784   1.107   .     S
C1761  H1822   1.109   .     S
C1761  H1821   1.109   .     S
C1762  O1827   1.418   .     S
C1762  C1763   1.509   .     S
C1762  H1785   1.101   .     S
C1762  H1878   1.119   .     S
C1763  H1789   1.104   .     S
C1763  H1879   1.105   .     S
C1763  H1880   1.110   .     S
C1764  C1765   1.526   .     S
C1764  O1828   1.415   .     S
C1764  H1791   1.107   .     S
C1764  H1790   1.117   .     S
C1765  H1793   1.109   .     S
C1765  H1795   1.107   .     S
C1765  H1792   1.109   .     S
C1766  O1829   1.419   .     S
C1766  C1767   1.526   .     S
C1766  H1796   1.099   .     S
C1766  H1797   1.107   .     S
C1767  H1800   1.109   .     S
C1767  H1798   1.109   .     S
C1768  O1830   1.414   .     S
C1768  H1802   1.113   .     S
C1768  H1801   1.105   .     S
C1768  C1769   1.521   .     S
C1769  H1803   1.105   .     S
C1769  H1804   1.108   .     S
C1769  H1806   1.107   .     S
C1770  H1808   1.107   .     S
C1770  H1807   1.099   .     S
C1770  O1831   1.419   .     S
C1770  C1772   1.526   .     S
C1771  C1776   1.405   .     S
C1771  O1836   1.298   .     A
C1771  O1839   1.300   .     A
C1772  H1809   1.109   .     S
C1772  H1811   1.109   .     S
C1772  H154    1.107   1_556 S
C1773  O1832   1.414   .     S
C1773  H1813   1.113   .     S
C1773  C1774   1.521   .     S
C1773  H1812   1.105   .     S
C1774  H1815   1.108   .     S
C1774  H1814   1.105   .     S
C1774  H1817   1.107   .     S
C1775  C1777   1.405   .     S
C1775  O1838   1.298   .     A
C1775  O1837   1.300   .     A
C1777  C120    1.188   1_556 S
C1778  O1840   1.378   .     S
C1779  O1826   1.383   .     S
C1779  C1842   1.403   .     S
C1780  O1827   1.378   .     S
C1780  C1870   1.395   .     S
Cu1781 O1836   1.925   .     S
Cu1781 N1823   2.043   .     S
Cu1781 O1834   1.992   .     S
Cu1781 Cu1782  2.719   .     S
Cu1781 O1838   1.925   .     S
Cu1781 O1825   1.992   .     S
Cu1782 O1839   1.925   .     S
Cu1782 O1837   1.925   .     S
Cu1782 O1835   1.992   .     S
Cu1782 O1833   1.992   .     S
Cu1782 N1824   2.043   .     S
H1794  C1849   1.119   .     S
H1799  C111    1.107   1_556 S
H1805  C1850   1.105   .     S
H1816  C1850   1.110   .     S
C1841  O1927   1.315   .     A
C1841  O1917   1.302   .     A
C1841  C1844   1.473   .     S
C1842  C1844   1.417   .     A
C1842  O1920   1.383   .     S
C1843  C1852   1.473   .     S
C1843  C1871   1.417   .     A
C1843  C1872   1.399   .     A
C1844  C1870   1.399   .     A
C1845  O1921   1.383   .     S
C1845  N1916   1.377   .     A
C1845  C2400   1.437   1_545 S
C1846  O1922   1.391   .     S
C1846  N1915   1.384   .     A
C1846  C2123   1.437   .     S
C1847  O1923   1.383   .     S
C1847  N1916   1.377   .     A
C1847  C2398   1.437   1_545 S
C1848  N1915   1.384   .     A
C1848  O1924   1.391   .     S
C1848  C2121   1.437   .     S
C1849  C1850   1.509   .     S
C1849  O1932   1.418   .     S
C1849  H1875   1.101   .     S
C1850  H1910   1.104   .     S
C1851  H1911   1.117   .     S
C1851  H1912   1.107   .     S
C1851  O1918   1.415   .     S
C1851  C1853   1.526   .     S
C1852  O1925   1.315   .     A
C1852  O1926   1.302   .     A
C1853  H1876   1.107   .     S
C1853  H1914   1.109   .     S
C1853  H1913   1.109   .     S
C1854  O1919   1.418   .     S
C1854  C1855   1.509   .     S
C1854  H1877   1.101   .     S
C1854  H1694   1.119   1_655 S
C1855  H1881   1.104   .     S
C1855  H1695   1.105   1_655 S
C1855  H1696   1.110   1_655 S
C1856  C1857   1.526   .     S
C1856  O1920   1.415   .     S
C1856  H1883   1.107   .     S
C1856  H1882   1.117   .     S
C1857  H1885   1.109   .     S
C1857  H1887   1.107   .     S
C1857  H1884   1.109   .     S
C1858  O1921   1.419   .     S
C1858  C1859   1.526   .     S
C1858  H1888   1.099   .     S
C1858  H1889   1.107   .     S
C1859  H1892   1.109   .     S
C1859  H1890   1.109   .     S
C1860  O1922   1.414   .     S
C1860  H1894   1.113   .     S
C1860  H1893   1.105   .     S
C1860  C1861   1.521   .     S
C1861  H1895   1.105   .     S
C1861  H1896   1.108   .     S
C1861  H1898   1.107   .     S
C1862  H1900   1.107   .     S
C1862  H1899   1.099   .     S
C1862  O1923   1.419   .     S
C1862  C1864   1.526   .     S
C1863  C1868   1.405   .     S
C1863  O1928   1.298   .     A
C1863  O1931   1.300   .     A
C1864  H1901   1.109   .     S
C1864  H1903   1.109   .     S
C1864  H246    1.107   1_556 S
C1865  O1924   1.414   .     S
C1865  H1905   1.113   .     S
C1865  C1866   1.521   .     S
C1865  H1904   1.105   .     S
C1866  H1907   1.108   .     S
C1866  H1906   1.105   .     S
C1866  H1909   1.107   .     S
C1867  C1869   1.405   .     S
C1867  O1930   1.298   .     A
C1867  O1929   1.300   .     A
C1869  C212    1.188   1_556 S
C1870  O1932   1.378   .     S
C1871  O1918   1.383   .     S
C1871  C1658   1.403   1_655 S
C1872  O1919   1.378   .     S
C1872  C1686   1.395   1_655 S
Cu1873 O1928   1.925   .     S
Cu1873 N1915   2.043   .     S
Cu1873 O1926   1.992   .     S
Cu1873 Cu1874  2.719   .     S
Cu1873 O1930   1.925   .     S
Cu1873 O1917   1.992   .     S
Cu1874 O1931   1.925   .     S
Cu1874 O1929   1.925   .     S
Cu1874 O1927   1.992   .     S
Cu1874 O1925   1.992   .     S
Cu1874 N1916   2.043   .     S
H1886  C1665   1.119   1_655 S
H1891  C203    1.107   1_556 S
H1897  C1666   1.105   1_655 S
H1908  C1666   1.110   1_655 S
C1933  O2019   1.315   .     A
C1933  O2009   1.302   .     A
C1933  C1936   1.473   .     S
C1934  C1936   1.417   .     A
C1934  O2012   1.383   .     S
C1934  C2147   1.403   1_455 S
C1935  C1944   1.473   .     S
C1935  C1963   1.417   .     A
C1935  C1964   1.399   .     A
C1936  C1962   1.399   .     A
C1937  O2013   1.383   .     S
C1937  N2008   1.377   .     A
C1938  O2014   1.391   .     S
C1938  N2007   1.384   .     A
C1938  C2215   1.437   .     S
C1939  O2015   1.383   .     S
C1939  N2008   1.377   .     A
C1940  N2007   1.384   .     A
C1940  O2016   1.391   .     S
C1940  C2213   1.437   .     S
C1941  C1942   1.509   .     S
C1941  O2024   1.418   .     S
C1941  H1967   1.101   .     S
C1941  H2162   1.119   1_455 S
C1942  H2002   1.104   .     S
C1942  H2173   1.105   1_455 S
C1942  H2184   1.110   1_455 S
C1943  H2003   1.117   .     S
C1943  H2004   1.107   .     S
C1943  O2010   1.415   .     S
C1943  C1945   1.526   .     S
C1944  O2017   1.315   .     A
C1944  O2018   1.302   .     A
C1945  H1968   1.107   .     S
C1945  H2006   1.109   .     S
C1945  H2005   1.109   .     S
C1946  O2011   1.418   .     S
C1946  C1947   1.509   .     S
C1946  H1969   1.101   .     S
C1946  H2062   1.119   .     S
C1947  H1973   1.104   .     S
C1947  H2063   1.105   .     S
C1947  H2064   1.110   .     S
C1948  C1949   1.526   .     S
C1948  O2012   1.415   .     S
C1948  H1975   1.107   .     S
C1948  H1974   1.117   .     S
C1949  H1977   1.109   .     S
C1949  H1979   1.107   .     S
C1949  H1976   1.109   .     S
C1950  O2013   1.419   .     S
C1950  C1951   1.526   .     S
C1950  H1980   1.099   .     S
C1950  H1981   1.107   .     S
C1951  H1984   1.109   .     S
C1951  H1982   1.109   .     S
C1952  O2014   1.414   .     S
C1952  H1986   1.113   .     S
C1952  H1985   1.105   .     S
C1952  C1953   1.521   .     S
C1953  H1987   1.105   .     S
C1953  H1988   1.108   .     S
C1953  H1990   1.107   .     S
C1954  H1992   1.107   .     S
C1954  H1991   1.099   .     S
C1954  O2015   1.419   .     S
C1954  C1956   1.526   .     S
C1955  C1960   1.405   .     S
C1955  O2020   1.298   .     A
C1955  O2023   1.300   .     A
C1956  H1993   1.109   .     S
C1956  H1995   1.109   .     S
C1956  H338    1.107   1_556 S
C1957  O2016   1.414   .     S
C1957  H1997   1.113   .     S
C1957  C1958   1.521   .     S
C1957  H1996   1.105   .     S
C1958  H1999   1.108   .     S
C1958  H1998   1.105   .     S
C1958  H2001   1.107   .     S
C1959  C1961   1.405   .     S
C1959  O2022   1.298   .     A
C1959  O2021   1.300   .     A
C1961  C304    1.188   1_556 S
C1962  O2024   1.378   .     S
C1962  C2148   1.395   1_455 S
C1963  O2010   1.383   .     S
C1963  C2026   1.403   .     S
C1964  O2011   1.378   .     S
C1964  C2054   1.395   .     S
Cu1965 O2020   1.925   .     S
Cu1965 N2007   2.043   .     S
Cu1965 O2018   1.992   .     S
Cu1965 Cu1966  2.719   .     S
Cu1965 O2022   1.925   .     S
Cu1965 O2009   1.992   .     S
Cu1966 O2023   1.925   .     S
Cu1966 O2021   1.925   .     S
Cu1966 O2019   1.992   .     S
Cu1966 O2017   1.992   .     S
Cu1966 N2008   2.043   .     S
H1970  C2130   1.119   1_455 S
H1971  C2131   1.105   1_455 S
H1972  C2131   1.110   1_455 S
H1978  C2033   1.119   .     S
H1983  C295    1.107   1_556 S
H1989  C2034   1.105   .     S
H2000  C2034   1.110   .     S
C2025  O2111   1.315   .     A
C2025  O2101   1.302   .     A
C2025  C2028   1.473   .     S
C2026  C2028   1.417   .     A
C2026  O2104   1.383   .     S
C2027  C2036   1.473   .     S
C2027  C2055   1.417   .     A
C2027  C2056   1.399   .     A
C2028  C2054   1.399   .     A
C2029  O2105   1.383   .     S
C2029  N2100   1.377   .     A
C2030  O2106   1.391   .     S
C2030  N2099   1.384   .     A
C2030  C2307   1.437   .     S
C2031  O2107   1.383   .     S
C2031  N2100   1.377   .     A
C2032  N2099   1.384   .     A
C2032  O2108   1.391   .     S
C2032  C2305   1.437   .     S
C2033  C2034   1.509   .     S
C2033  O2116   1.418   .     S
C2033  H2059   1.101   .     S
C2034  H2094   1.104   .     S
C2035  H2095   1.117   .     S
C2035  H2096   1.107   .     S
C2035  O2102   1.415   .     S
C2035  C2037   1.526   .     S
C2036  O2109   1.315   .     A
C2036  O2110   1.302   .     A
C2037  H2060   1.107   .     S
C2037  H2098   1.109   .     S
C2037  H2097   1.109   .     S
C2038  O2103   1.418   .     S
C2038  C2039   1.509   .     S
C2038  H2061   1.101   .     S
C2038  H2154   1.119   .     S
C2039  H2065   1.104   .     S
C2039  H2155   1.105   .     S
C2039  H2156   1.110   .     S
C2040  C2041   1.526   .     S
C2040  O2104   1.415   .     S
C2040  H2067   1.107   .     S
C2040  H2066   1.117   .     S
C2041  H2069   1.109   .     S
C2041  H2071   1.107   .     S
C2041  H2068   1.109   .     S
C2042  O2105   1.419   .     S
C2042  C2043   1.526   .     S
C2042  H2072   1.099   .     S
C2042  H2073   1.107   .     S
C2043  H2076   1.109   .     S
C2043  H2074   1.109   .     S
C2044  O2106   1.414   .     S
C2044  H2078   1.113   .     S
C2044  H2077   1.105   .     S
C2044  C2045   1.521   .     S
C2045  H2079   1.105   .     S
C2045  H2080   1.108   .     S
C2045  H2082   1.107   .     S
C2046  H2084   1.107   .     S
C2046  H2083   1.099   .     S
C2046  O2107   1.419   .     S
C2046  C2048   1.526   .     S
C2047  C2052   1.405   .     S
C2047  O2112   1.298   .     A
C2047  O2115   1.300   .     A
C2048  H2085   1.109   .     S
C2048  H2087   1.109   .     S
C2048  H430    1.107   1_556 S
C2049  O2108   1.414   .     S
C2049  H2089   1.113   .     S
C2049  C2050   1.521   .     S
C2049  H2088   1.105   .     S
C2050  H2091   1.108   .     S
C2050  H2090   1.105   .     S
C2050  H2093   1.107   .     S
C2051  C2053   1.405   .     S
C2051  O2114   1.298   .     A
C2051  O2113   1.300   .     A
C2053  C396    1.188   1_556 S
C2054  O2116   1.378   .     S
C2055  O2102   1.383   .     S
C2055  C2118   1.403   .     S
C2056  O2103   1.378   .     S
C2056  C2146   1.395   .     S
Cu2057 O2112   1.925   .     S
Cu2057 N2099   2.043   .     S
Cu2057 O2110   1.992   .     S
Cu2057 Cu2058  2.719   .     S
Cu2057 O2114   1.925   .     S
Cu2057 O2101   1.992   .     S
Cu2058 O2115   1.925   .     S
Cu2058 O2113   1.925   .     S
Cu2058 O2111   1.992   .     S
Cu2058 O2109   1.992   .     S
Cu2058 N2100   2.043   .     S
H2070  C2125   1.119   .     S
H2075  C387    1.107   1_556 S
H2081  C2126   1.105   .     S
H2092  C2126   1.110   .     S
C2117  O2203   1.315   .     A
C2117  O2193   1.302   .     A
C2117  C2120   1.473   .     S
C2118  C2120   1.417   .     A
C2118  O2196   1.383   .     S
C2119  C2128   1.473   .     S
C2119  C2147   1.417   .     A
C2119  C2148   1.399   .     A
C2120  C2146   1.399   .     A
C2121  O2197   1.383   .     S
C2121  N2192   1.377   .     A
C2122  O2198   1.391   .     S
C2122  N2191   1.384   .     A
C2122  C2399   1.437   .     S
C2123  O2199   1.383   .     S
C2123  N2192   1.377   .     A
C2124  N2191   1.384   .     A
C2124  O2200   1.391   .     S
C2124  C2397   1.437   .     S
C2125  C2126   1.509   .     S
C2125  O2208   1.418   .     S
C2125  H2151   1.101   .     S
C2126  H2186   1.104   .     S
C2127  H2187   1.117   .     S
C2127  H2188   1.107   .     S
C2127  O2194   1.415   .     S
C2127  C2129   1.526   .     S
C2128  O2201   1.315   .     A
C2128  O2202   1.302   .     A
C2129  H2152   1.107   .     S
C2129  H2190   1.109   .     S
C2129  H2189   1.109   .     S
C2130  O2195   1.418   .     S
C2130  C2131   1.509   .     S
C2130  H2153   1.101   .     S
C2130  H1970   1.119   1_655 S
C2131  H2157   1.104   .     S
C2131  H1971   1.105   1_655 S
C2131  H1972   1.110   1_655 S
C2132  C2133   1.526   .     S
C2132  O2196   1.415   .     S
C2132  H2159   1.107   .     S
C2132  H2158   1.117   .     S
C2133  H2161   1.109   .     S
C2133  H2163   1.107   .     S
C2133  H2160   1.109   .     S
C2134  O2197   1.419   .     S
C2134  C2135   1.526   .     S
C2134  H2164   1.099   .     S
C2134  H2165   1.107   .     S
C2135  H2168   1.109   .     S
C2135  H2166   1.109   .     S
C2136  O2198   1.414   .     S
C2136  H2170   1.113   .     S
C2136  H2169   1.105   .     S
C2136  C2137   1.521   .     S
C2137  H2171   1.105   .     S
C2137  H2172   1.108   .     S
C2137  H2174   1.107   .     S
C2138  H2176   1.107   .     S
C2138  H2175   1.099   .     S
C2138  O2199   1.419   .     S
C2138  C2140   1.526   .     S
C2139  C2144   1.405   .     S
C2139  O2204   1.298   .     A
C2139  O2207   1.300   .     A
C2140  H2177   1.109   .     S
C2140  H2179   1.109   .     S
C2140  H522    1.107   1_556 S
C2141  O2200   1.414   .     S
C2141  H2181   1.113   .     S
C2141  C2142   1.521   .     S
C2141  H2180   1.105   .     S
C2142  H2183   1.108   .     S
C2142  H2182   1.105   .     S
C2142  H2185   1.107   .     S
C2143  C2145   1.405   .     S
C2143  O2206   1.298   .     A
C2143  O2205   1.300   .     A
C2145  C488    1.188   1_556 S
C2146  O2208   1.378   .     S
C2147  O2194   1.383   .     S
C2147  C1934   1.403   1_655 S
C2148  O2195   1.378   .     S
C2148  C1962   1.395   1_655 S
Cu2149 O2204   1.925   .     S
Cu2149 N2191   2.043   .     S
Cu2149 O2202   1.992   .     S
Cu2149 Cu2150  2.719   .     S
Cu2149 O2206   1.925   .     S
Cu2149 O2193   1.992   .     S
Cu2150 O2207   1.925   .     S
Cu2150 O2205   1.925   .     S
Cu2150 O2203   1.992   .     S
Cu2150 O2201   1.992   .     S
Cu2150 N2192   2.043   .     S
H2162  C1941   1.119   1_655 S
H2167  C479    1.107   1_556 S
H2173  C1942   1.105   1_655 S
H2184  C1942   1.110   1_655 S
C2209  O2295   1.315   .     A
C2209  O2285   1.302   .     A
C2209  C2212   1.473   .     S
C2210  C2212   1.417   .     A
C2210  O2288   1.383   .     S
C2210  C2423   1.403   1_455 S
C2211  C2220   1.473   .     S
C2211  C2239   1.417   .     A
C2211  C2240   1.399   .     A
C2212  C2238   1.399   .     A
C2213  O2289   1.383   .     S
C2213  N2284   1.377   .     A
C2214  O2290   1.391   .     S
C2214  N2283   1.384   .     A
C2214  C1663   1.437   1_565 S
C2215  O2291   1.383   .     S
C2215  N2284   1.377   .     A
C2216  N2283   1.384   .     A
C2216  O2292   1.391   .     S
C2216  C1661   1.437   1_565 S
C2217  C2218   1.509   .     S
C2217  O2300   1.418   .     S
C2217  H2243   1.101   .     S
C2217  H2438   1.119   1_455 S
C2218  H2278   1.104   .     S
C2218  H2449   1.105   1_455 S
C2218  H2460   1.110   1_455 S
C2219  H2279   1.117   .     S
C2219  H2280   1.107   .     S
C2219  O2286   1.415   .     S
C2219  C2221   1.526   .     S
C2220  O2293   1.315   .     A
C2220  O2294   1.302   .     A
C2221  H2244   1.107   .     S
C2221  H2282   1.109   .     S
C2221  H2281   1.109   .     S
C2222  O2287   1.418   .     S
C2222  C2223   1.509   .     S
C2222  H2245   1.101   .     S
C2222  H2338   1.119   .     S
C2223  H2249   1.104   .     S
C2223  H2339   1.105   .     S
C2223  H2340   1.110   .     S
C2224  C2225   1.526   .     S
C2224  O2288   1.415   .     S
C2224  H2251   1.107   .     S
C2224  H2250   1.117   .     S
C2225  H2253   1.109   .     S
C2225  H2255   1.107   .     S
C2225  H2252   1.109   .     S
C2226  O2289   1.419   .     S
C2226  C2227   1.526   .     S
C2226  H2256   1.099   .     S
C2226  H2257   1.107   .     S
C2227  H2260   1.109   .     S
C2227  H2258   1.109   .     S
C2228  O2290   1.414   .     S
C2228  H2262   1.113   .     S
C2228  H2261   1.105   .     S
C2228  C2229   1.521   .     S
C2229  H2263   1.105   .     S
C2229  H2264   1.108   .     S
C2229  H2266   1.107   .     S
C2230  H2268   1.107   .     S
C2230  H2267   1.099   .     S
C2230  O2291   1.419   .     S
C2230  C2232   1.526   .     S
C2231  C2236   1.405   .     S
C2231  O2296   1.298   .     A
C2231  O2299   1.300   .     A
C2232  H2269   1.109   .     S
C2232  H2271   1.109   .     S
C2232  H614    1.107   1_556 S
C2233  O2292   1.414   .     S
C2233  H2273   1.113   .     S
C2233  C2234   1.521   .     S
C2233  H2272   1.105   .     S
C2234  H2275   1.108   .     S
C2234  H2274   1.105   .     S
C2234  H2277   1.107   .     S
C2235  C2237   1.405   .     S
C2235  O2298   1.298   .     A
C2235  O2297   1.300   .     A
C2237  C580    1.188   1_556 S
C2238  O2300   1.378   .     S
C2238  C2424   1.395   1_455 S
C2239  O2286   1.383   .     S
C2239  C2302   1.403   .     S
C2240  O2287   1.378   .     S
C2240  C2330   1.395   .     S
Cu2241 O2296   1.925   .     S
Cu2241 N2283   2.043   .     S
Cu2241 O2294   1.992   .     S
Cu2241 Cu2242  2.719   .     S
Cu2241 O2298   1.925   .     S
Cu2241 O2285   1.992   .     S
Cu2242 O2299   1.925   .     S
Cu2242 O2297   1.925   .     S
Cu2242 O2295   1.992   .     S
Cu2242 O2293   1.992   .     S
Cu2242 N2284   2.043   .     S
H2246  C2406   1.119   1_455 S
H2247  C2407   1.105   1_455 S
H2248  C2407   1.110   1_455 S
H2254  C2309   1.119   .     S
H2259  C571    1.107   1_556 S
H2265  C2310   1.105   .     S
H2276  C2310   1.110   .     S
C2301  O2387   1.315   .     A
C2301  O2377   1.302   .     A
C2301  C2304   1.473   .     S
C2302  C2304   1.417   .     A
C2302  O2380   1.383   .     S
C2303  C2312   1.473   .     S
C2303  C2331   1.417   .     A
C2303  C2332   1.399   .     A
C2304  C2330   1.399   .     A
C2305  O2381   1.383   .     S
C2305  N2376   1.377   .     A
C2306  O2382   1.391   .     S
C2306  N2375   1.384   .     A
C2306  C1755   1.437   1_565 S
C2307  O2383   1.383   .     S
C2307  N2376   1.377   .     A
C2308  N2375   1.384   .     A
C2308  O2384   1.391   .     S
C2308  C1753   1.437   1_565 S
C2309  C2310   1.509   .     S
C2309  O2392   1.418   .     S
C2309  H2335   1.101   .     S
C2310  H2370   1.104   .     S
C2311  H2371   1.117   .     S
C2311  H2372   1.107   .     S
C2311  O2378   1.415   .     S
C2311  C2313   1.526   .     S
C2312  O2385   1.315   .     A
C2312  O2386   1.302   .     A
C2313  H2336   1.107   .     S
C2313  H2374   1.109   .     S
C2313  H2373   1.109   .     S
C2314  O2379   1.418   .     S
C2314  C2315   1.509   .     S
C2314  H2337   1.101   .     S
C2314  H2430   1.119   .     S
C2315  H2341   1.104   .     S
C2315  H2431   1.105   .     S
C2315  H2432   1.110   .     S
C2316  C2317   1.526   .     S
C2316  O2380   1.415   .     S
C2316  H2343   1.107   .     S
C2316  H2342   1.117   .     S
C2317  H2345   1.109   .     S
C2317  H2347   1.107   .     S
C2317  H2344   1.109   .     S
C2318  O2381   1.419   .     S
C2318  C2319   1.526   .     S
C2318  H2348   1.099   .     S
C2318  H2349   1.107   .     S
C2319  H2352   1.109   .     S
C2319  H2350   1.109   .     S
C2320  O2382   1.414   .     S
C2320  H2354   1.113   .     S
C2320  H2353   1.105   .     S
C2320  C2321   1.521   .     S
C2321  H2355   1.105   .     S
C2321  H2356   1.108   .     S
C2321  H2358   1.107   .     S
C2322  H2360   1.107   .     S
C2322  H2359   1.099   .     S
C2322  O2383   1.419   .     S
C2322  C2324   1.526   .     S
C2323  C2328   1.405   .     S
C2323  O2388   1.298   .     A
C2323  O2391   1.300   .     A
C2324  H2361   1.109   .     S
C2324  H2363   1.109   .     S
C2324  H706    1.107   1_556 S
C2325  O2384   1.414   .     S
C2325  H2365   1.113   .     S
C2325  C2326   1.521   .     S
C2325  H2364   1.105   .     S
C2326  H2367   1.108   .     S
C2326  H2366   1.105   .     S
C2326  H2369   1.107   .     S
C2327  C2329   1.405   .     S
C2327  O2390   1.298   .     A
C2327  O2389   1.300   .     A
C2329  C672    1.188   1_556 S
C2330  O2392   1.378   .     S
C2331  O2378   1.383   .     S
C2331  C2394   1.403   .     S
C2332  O2379   1.378   .     S
C2332  C2422   1.395   .     S
Cu2333 O2388   1.925   .     S
Cu2333 N2375   2.043   .     S
Cu2333 O2386   1.992   .     S
Cu2333 Cu2334  2.719   .     S
Cu2333 O2390   1.925   .     S
Cu2333 O2377   1.992   .     S
Cu2334 O2391   1.925   .     S
Cu2334 O2389   1.925   .     S
Cu2334 O2387   1.992   .     S
Cu2334 O2385   1.992   .     S
Cu2334 N2376   2.043   .     S
H2346  C2401   1.119   .     S
H2351  C663    1.107   1_556 S
H2357  C2402   1.105   .     S
H2368  C2402   1.110   .     S
C2393  O2479   1.315   .     A
C2393  O2469   1.302   .     A
C2393  C2396   1.473   .     S
C2394  C2396   1.417   .     A
C2394  O2472   1.383   .     S
C2395  C2404   1.473   .     S
C2395  C2423   1.417   .     A
C2395  C2424   1.399   .     A
C2396  C2422   1.399   .     A
C2397  O2473   1.383   .     S
C2397  N2468   1.377   .     A
C2398  O2474   1.391   .     S
C2398  N2467   1.384   .     A
C2398  C1847   1.437   1_565 S
C2399  O2475   1.383   .     S
C2399  N2468   1.377   .     A
C2400  N2467   1.384   .     A
C2400  O2476   1.391   .     S
C2400  C1845   1.437   1_565 S
C2401  C2402   1.509   .     S
C2401  O2484   1.418   .     S
C2401  H2427   1.101   .     S
C2402  H2462   1.104   .     S
C2403  H2463   1.117   .     S
C2403  H2464   1.107   .     S
C2403  O2470   1.415   .     S
C2403  C2405   1.526   .     S
C2404  O2477   1.315   .     A
C2404  O2478   1.302   .     A
C2405  H2428   1.107   .     S
C2405  H2466   1.109   .     S
C2405  H2465   1.109   .     S
C2406  O2471   1.418   .     S
C2406  C2407   1.509   .     S
C2406  H2429   1.101   .     S
C2406  H2246   1.119   1_655 S
C2407  H2433   1.104   .     S
C2407  H2247   1.105   1_655 S
C2407  H2248   1.110   1_655 S
C2408  C2409   1.526   .     S
C2408  O2472   1.415   .     S
C2408  H2435   1.107   .     S
C2408  H2434   1.117   .     S
C2409  H2437   1.109   .     S
C2409  H2439   1.107   .     S
C2409  H2436   1.109   .     S
C2410  O2473   1.419   .     S
C2410  C2411   1.526   .     S
C2410  H2440   1.099   .     S
C2410  H2441   1.107   .     S
C2411  H2444   1.109   .     S
C2411  H2442   1.109   .     S
C2412  O2474   1.414   .     S
C2412  H2446   1.113   .     S
C2412  H2445   1.105   .     S
C2412  C2413   1.521   .     S
C2413  H2447   1.105   .     S
C2413  H2448   1.108   .     S
C2413  H2450   1.107   .     S
C2414  H2452   1.107   .     S
C2414  H2451   1.099   .     S
C2414  O2475   1.419   .     S
C2414  C2416   1.526   .     S
C2415  C2420   1.405   .     S
C2415  O2480   1.298   .     A
C2415  O2483   1.300   .     A
C2416  H2453   1.109   .     S
C2416  H2455   1.109   .     S
C2416  H798    1.107   1_556 S
C2417  O2476   1.414   .     S
C2417  H2457   1.113   .     S
C2417  C2418   1.521   .     S
C2417  H2456   1.105   .     S
C2418  H2459   1.108   .     S
C2418  H2458   1.105   .     S
C2418  H2461   1.107   .     S
C2419  C2421   1.405   .     S
C2419  O2482   1.298   .     A
C2419  O2481   1.300   .     A
C2421  C764    1.188   1_556 S
C2422  O2484   1.378   .     S
C2423  O2470   1.383   .     S
C2423  C2210   1.403   1_655 S
C2424  O2471   1.378   .     S
C2424  C2238   1.395   1_655 S
Cu2425 O2480   1.925   .     S
Cu2425 N2467   2.043   .     S
Cu2425 O2478   1.992   .     S
Cu2425 Cu2426  2.719   .     S
Cu2425 O2482   1.925   .     S
Cu2425 O2469   1.992   .     S
Cu2426 O2483   1.925   .     S
Cu2426 O2481   1.925   .     S
Cu2426 O2479   1.992   .     S
Cu2426 O2477   1.992   .     S
Cu2426 N2468   2.043   .     S
H2438  C2217   1.119   1_655 S
H2443  C755    1.107   1_556 S
H2449  C2218   1.105   1_655 S
H2460  C2218   1.110   1_655 S
