data_str_m1_o1_o17_pcu_sym.136
_audit_creation_date              2020-01-03
_audit_creation_method            'Materials Studio'
_symmetry_space_group_name_H-M    'P1'
_symmetry_Int_Tables_number       1
_symmetry_cell_setting            triclinic
loop_
_symmetry_equiv_pos_as_xyz
  x,y,z
_cell_length_a                    36.7880
_cell_length_b                    36.7607
_cell_length_c                    34.1931
_cell_angle_alpha                 90.0349
_cell_angle_beta                  90.0446
_cell_angle_gamma                 90.1528
loop_
_atom_site_label
_atom_site_type_symbol
_atom_site_fract_x
_atom_site_fract_y
_atom_site_fract_z
_atom_site_U_iso_or_equiv
_atom_site_adp_type
_atom_site_occupancy
Zn1    Zn    0.20659   0.00000   0.21735   0.00000  Uiso   1.00
Zn2    Zn    0.29340   0.00000   0.78265   0.00000  Uiso   1.00
Zn3    Zn   -0.00000   0.20660   0.21735   0.00000  Uiso   1.00
Zn4    Zn   -0.00000   0.29341   0.78265   0.00000  Uiso   1.00
Zn5    Zn    0.29340   0.00000   0.21735   0.00000  Uiso   1.00
Zn6    Zn    0.20659   0.00000   0.78265   0.00000  Uiso   1.00
Zn7    Zn   -0.00000   0.29341   0.21735   0.00000  Uiso   1.00
Zn8    Zn    0.00000   0.20660   0.78265   0.00000  Uiso   1.00
Zn9    Zn    0.45659   0.25000   0.71735   0.00000  Uiso   1.00
Zn10   Zn    0.04340   0.25000   0.28265   0.00000  Uiso   1.00
Zn11   Zn    0.25000   0.45660   0.71735   0.00000  Uiso   1.00
Zn12   Zn    0.25000   0.04341   0.28265   0.00000  Uiso   1.00
Zn13   Zn    0.04340   0.25000   0.71735   0.00000  Uiso   1.00
Zn14   Zn    0.45659   0.25000   0.28265   0.00000  Uiso   1.00
Zn15   Zn    0.25000   0.04341   0.71735   0.00000  Uiso   1.00
Zn16   Zn    0.25000   0.45660   0.28265   0.00000  Uiso   1.00
C17    C     0.01490   0.27959   0.41824   0.00000  Uiso   1.00
C18    C     0.48516   0.22034   0.58177   0.00000  Uiso   1.00
C19    C     0.22131   0.01650   0.41820   0.00000  Uiso   1.00
C20    C     0.27864   0.48354   0.58181   0.00000  Uiso   1.00
C21    C     0.48522   0.22032   0.41818   0.00000  Uiso   1.00
C22    C     0.01483   0.27962   0.58182   0.00000  Uiso   1.00
C23    C     0.27867   0.48362   0.41823   0.00000  Uiso   1.00
C24    C     0.22130   0.01645   0.58180   0.00000  Uiso   1.00
C25    C     0.23344   0.02865   0.91819   0.00000  Uiso   1.00
C26    C     0.26649   0.47138   0.08179   0.00000  Uiso   1.00
C27    C     0.47192   0.23243   0.91817   0.00000  Uiso   1.00
C28    C     0.02813   0.26753   0.08183   0.00000  Uiso   1.00
C29    C     0.26658   0.47142   0.91820   0.00000  Uiso   1.00
C30    C     0.23339   0.02864   0.08180   0.00000  Uiso   1.00
C31    C     0.02811   0.26758   0.91823   0.00000  Uiso   1.00
C32    C     0.47195   0.23237   0.08176   0.00000  Uiso   1.00
C33    C     0.00005   0.24996   0.39807   0.00000  Uiso   1.00
C34    C     0.49998   0.24999   0.60193   0.00000  Uiso   1.00
C35    C     0.24998   0.00004   0.39809   0.00000  Uiso   1.00
C36    C     0.24997   0.49998   0.60193   0.00000  Uiso   1.00
C37    C     0.25002   0.00004   0.89807   0.00000  Uiso   1.00
C38    C     0.24995   0.00002   0.10192   0.00000  Uiso   1.00
C39    C     0.00000   0.25002   0.89808   0.00000  Uiso   1.00
C40    C     0.00003   0.24996   0.10192   0.00000  Uiso   1.00
O41    O     0.25000   0.00000   0.25000   0.00000  Uiso   1.00
O42    O     0.25000   0.00000   0.75000   0.00000  Uiso   1.00
O43    O    -0.00000   0.25000   0.25000   0.00000  Uiso   1.00
O44    O    -0.00000   0.25000   0.75000   0.00000  Uiso   1.00
O45    O     0.25000   0.46964   0.33755   0.00000  Uiso   1.00
O46    O     0.25000   0.03037   0.66245   0.00000  Uiso   1.00
O47    O     0.03036   0.25000   0.33755   0.00000  Uiso   1.00
O48    O     0.46963   0.25000   0.66245   0.00000  Uiso   1.00
O49    O     0.25000   0.03037   0.33755   0.00000  Uiso   1.00
O50    O     0.25000   0.46964   0.66245   0.00000  Uiso   1.00
O51    O     0.46963   0.25000   0.33755   0.00000  Uiso   1.00
O52    O     0.03036   0.25000   0.66245   0.00000  Uiso   1.00
O53    O    -0.00000   0.21964   0.83755   0.00000  Uiso   1.00
O54    O    -0.00000   0.28037   0.16245   0.00000  Uiso   1.00
O55    O     0.28036   0.00000   0.83755   0.00000  Uiso   1.00
O56    O     0.21963   0.00000   0.16245   0.00000  Uiso   1.00
O57    O    -0.00000   0.28037   0.83755   0.00000  Uiso   1.00
O58    O    -0.00000   0.21964   0.16245   0.00000  Uiso   1.00
O59    O     0.21963   0.00000   0.83755   0.00000  Uiso   1.00
O60    O     0.28036   0.00000   0.16245   0.00000  Uiso   1.00
O61    O     0.20724   0.07308   0.27302   0.00000  Uiso   1.00
O62    O     0.29275   0.42693   0.72698   0.00000  Uiso   1.00
O63    O     0.42692   0.20725   0.27302   0.00000  Uiso   1.00
O64    O     0.07307   0.29276   0.72698   0.00000  Uiso   1.00
O65    O     0.29275   0.42693   0.27302   0.00000  Uiso   1.00
O66    O     0.20724   0.07308   0.72698   0.00000  Uiso   1.00
O67    O     0.07307   0.29276   0.27302   0.00000  Uiso   1.00
O68    O     0.42692   0.20725   0.72698   0.00000  Uiso   1.00
O69    O     0.20724   0.42693   0.72698   0.00000  Uiso   1.00
O70    O     0.29275   0.07308   0.27302   0.00000  Uiso   1.00
O71    O     0.42692   0.29276   0.72698   0.00000  Uiso   1.00
O72    O     0.07307   0.20725   0.27302   0.00000  Uiso   1.00
O73    O     0.29275   0.07308   0.72698   0.00000  Uiso   1.00
O74    O     0.20724   0.42693   0.27302   0.00000  Uiso   1.00
O75    O     0.07307   0.20725   0.72698   0.00000  Uiso   1.00
O76    O     0.42692   0.29276   0.27302   0.00000  Uiso   1.00
O77    O     0.45724   0.32308   0.77302   0.00000  Uiso   1.00
O78    O     0.04275   0.17693   0.22698   0.00000  Uiso   1.00
O79    O     0.17692   0.45725   0.77302   0.00000  Uiso   1.00
O80    O     0.32307   0.04276   0.22698   0.00000  Uiso   1.00
O81    O     0.04275   0.17693   0.77302   0.00000  Uiso   1.00
O82    O     0.45724   0.32308   0.22698   0.00000  Uiso   1.00
O83    O     0.32307   0.04276   0.77302   0.00000  Uiso   1.00
O84    O     0.17692   0.45725   0.22698   0.00000  Uiso   1.00
O85    O     0.45724   0.17693   0.22698   0.00000  Uiso   1.00
O86    O     0.04275   0.32308   0.77302   0.00000  Uiso   1.00
O87    O     0.17692   0.04276   0.22698   0.00000  Uiso   1.00
O88    O     0.32307   0.45725   0.77302   0.00000  Uiso   1.00
O89    O     0.04275   0.32308   0.22698   0.00000  Uiso   1.00
O90    O     0.45724   0.17693   0.77302   0.00000  Uiso   1.00
O91    O     0.32307   0.45725   0.22698   0.00000  Uiso   1.00
O92    O     0.17692   0.04276   0.77302   0.00000  Uiso   1.00
C93    C     0.47140   0.18999   0.47954   0.00000  Uiso   1.00
C94    C     0.02869   0.30992   0.52047   0.00000  Uiso   1.00
C95    C     0.30808   0.46818   0.47963   0.00000  Uiso   1.00
C96    C     0.19190   0.03193   0.52039   0.00000  Uiso   1.00
C97    C     0.02871   0.30991   0.47966   0.00000  Uiso   1.00
C98    C     0.47139   0.19000   0.52035   0.00000  Uiso   1.00
C99    C     0.19190   0.03194   0.47958   0.00000  Uiso   1.00
C100   C     0.30807   0.46815   0.52044   0.00000  Uiso   1.00
C101   C     0.28207   0.44204   0.97958   0.00000  Uiso   1.00
C102   C     0.21784   0.05800   0.02040   0.00000  Uiso   1.00
C103   C     0.05701   0.28413   0.97965   0.00000  Uiso   1.00
C104   C     0.44307   0.21578   0.02035   0.00000  Uiso   1.00
C105   C     0.21786   0.05801   0.97959   0.00000  Uiso   1.00
C106   C     0.28204   0.44202   0.02039   0.00000  Uiso   1.00
C107   C     0.44306   0.21581   0.97952   0.00000  Uiso   1.00
C108   C     0.05702   0.28411   0.02047   0.00000  Uiso   1.00
C109   C     0.24998   0.00001   0.35579   0.00000  Uiso   1.00
C110   C     0.24999   0.49999   0.64421   0.00000  Uiso   1.00
C111   C     0.00001   0.24998   0.35579   0.00000  Uiso   1.00
C112   C     0.49999   0.24999   0.64422   0.00000  Uiso   1.00
C113   C     0.00000   0.25001   0.85578   0.00000  Uiso   1.00
C114   C     0.00001   0.24999   0.14422   0.00000  Uiso   1.00
C115   C     0.25001   0.00002   0.85579   0.00000  Uiso   1.00
C116   C     0.24998   0.00002   0.14421   0.00000  Uiso   1.00
C117   C     0.18011   0.07018   0.24985   0.00000  Uiso   1.00
C118   C     0.32026   0.43017   0.74977   0.00000  Uiso   1.00
C119   C     0.43008   0.17987   0.25010   0.00000  Uiso   1.00
C120   C     0.06995   0.32009   0.74994   0.00000  Uiso   1.00
C121   C     0.32010   0.43001   0.25015   0.00000  Uiso   1.00
C122   C     0.17993   0.07001   0.74996   0.00000  Uiso   1.00
C123   C     0.07003   0.32003   0.24998   0.00000  Uiso   1.00
C124   C     0.43001   0.17994   0.74995   0.00000  Uiso   1.00
C125   C     0.17995   0.42998   0.74996   0.00000  Uiso   1.00
C126   C     0.32003   0.07003   0.25002   0.00000  Uiso   1.00
C127   C     0.42987   0.31998   0.75008   0.00000  Uiso   1.00
C128   C     0.06988   0.17978   0.25017   0.00000  Uiso   1.00
C129   C     0.32009   0.06997   0.74993   0.00000  Uiso   1.00
C130   C     0.17997   0.42998   0.25001   0.00000  Uiso   1.00
C131   C     0.06999   0.17991   0.74995   0.00000  Uiso   1.00
C132   C     0.42997   0.32006   0.24998   0.00000  Uiso   1.00
C133   C     0.13234   0.39452   0.21546   0.00000  Uiso   1.00
C134   C     0.36817   0.10509   0.78424   0.00000  Uiso   1.00
C135   C     0.10283   0.12952   0.21691   0.00000  Uiso   1.00
C136   C     0.39787   0.37119   0.78266   0.00000  Uiso   1.00
C137   C     0.36807   0.10513   0.21572   0.00000  Uiso   1.00
C138   C     0.13171   0.39512   0.78420   0.00000  Uiso   1.00
C139   C     0.41082   0.38413   0.23900   0.00000  Uiso   1.00
C140   C     0.10545   0.13221   0.78442   0.00000  Uiso   1.00
C141   C     0.13229   0.10550   0.78446   0.00000  Uiso   1.00
C142   C     0.38414   0.41096   0.23943   0.00000  Uiso   1.00
C143   C     0.10481   0.36843   0.78416   0.00000  Uiso   1.00
C144   C     0.39516   0.13163   0.21589   0.00000  Uiso   1.00
C145   C     0.37182   0.39852   0.78221   0.00000  Uiso   1.00
C146   C     0.13040   0.10363   0.21626   0.00000  Uiso   1.00
C147   C     0.39486   0.13201   0.78428   0.00000  Uiso   1.00
C148   C     0.10542   0.36779   0.21543   0.00000  Uiso   1.00
C149   C     0.38262   0.14420   0.71512   0.00000  Uiso   1.00
C150   C     0.11758   0.35559   0.28462   0.00000  Uiso   1.00
C151   C     0.35295   0.37968   0.71661   0.00000  Uiso   1.00
C152   C     0.14689   0.12011   0.28332   0.00000  Uiso   1.00
C153   C     0.11763   0.35547   0.71530   0.00000  Uiso   1.00
C154   C     0.38268   0.14419   0.28493   0.00000  Uiso   1.00
C155   C     0.14402   0.11721   0.71517   0.00000  Uiso   1.00
C156   C     0.33943   0.36610   0.26153   0.00000  Uiso   1.00
C157   C     0.36610   0.33931   0.26115   0.00000  Uiso   1.00
C158   C     0.11719   0.14399   0.71515   0.00000  Uiso   1.00
C159   C     0.35570   0.11748   0.28483   0.00000  Uiso   1.00
C160   C     0.14458   0.38218   0.71534   0.00000  Uiso   1.00
C161   C     0.11959   0.14629   0.28377   0.00000  Uiso   1.00
C162   C     0.37905   0.35231   0.71702   0.00000  Uiso   1.00
C163   C     0.14433   0.38251   0.28472   0.00000  Uiso   1.00
C164   C     0.35581   0.11732   0.71512   0.00000  Uiso   1.00
C165   C     0.48545   0.21988   0.45895   0.00000  Uiso   1.00
C166   C     0.01464   0.28004   0.54105   0.00000  Uiso   1.00
C167   C     0.27910   0.48383   0.45900   0.00000  Uiso   1.00
C168   C     0.22087   0.01626   0.54102   0.00000  Uiso   1.00
C169   C     0.01468   0.28002   0.45901   0.00000  Uiso   1.00
C170   C     0.48541   0.21990   0.54100   0.00000  Uiso   1.00
C171   C     0.22088   0.01629   0.45898   0.00000  Uiso   1.00
C172   C     0.27908   0.48378   0.54104   0.00000  Uiso   1.00
C173   C     0.26634   0.47098   0.95897   0.00000  Uiso   1.00
C174   C     0.23360   0.02907   0.04102   0.00000  Uiso   1.00
C175   C     0.02857   0.26736   0.95901   0.00000  Uiso   1.00
C176   C     0.47150   0.23256   0.04098   0.00000  Uiso   1.00
C177   C     0.23363   0.02909   0.95898   0.00000  Uiso   1.00
C178   C     0.26628   0.47095   0.04101   0.00000  Uiso   1.00
C179   C     0.47148   0.23260   0.95895   0.00000  Uiso   1.00
C180   C     0.02859   0.26733   0.04105   0.00000  Uiso   1.00
C181   C     0.09809   0.34813   0.24999   0.00000  Uiso   1.00
C182   C     0.40211   0.15170   0.74975   0.00000  Uiso   1.00
C183   C     0.15231   0.09853   0.24967   0.00000  Uiso   1.00
C184   C     0.34886   0.40262   0.74941   0.00000  Uiso   1.00
C185   C     0.40233   0.15147   0.25037   0.00000  Uiso   1.00
C186   C     0.09782   0.34837   0.74978   0.00000  Uiso   1.00
C187   C     0.34826   0.40205   0.25052   0.00000  Uiso   1.00
C188   C     0.15176   0.09799   0.74987   0.00000  Uiso   1.00
C189   C     0.09792   0.15167   0.74984   0.00000  Uiso   1.00
C190   C     0.40194   0.34815   0.24991   0.00000  Uiso   1.00
C191   C     0.15177   0.40201   0.74984   0.00000  Uiso   1.00
C192   C     0.34822   0.09799   0.25016   0.00000  Uiso   1.00
C193   C     0.40173   0.34798   0.75006   0.00000  Uiso   1.00
C194   C     0.09756   0.15129   0.25035   0.00000  Uiso   1.00
C195   C     0.34839   0.09783   0.74977   0.00000  Uiso   1.00
C196   C     0.15183   0.40197   0.25009   0.00000  Uiso   1.00
C197   C     0.00006   0.24995   0.47950   0.00000  Uiso   1.00
C198   C     0.00004   0.24996   0.52051   0.00000  Uiso   1.00
C199   C     0.24999   0.00005   0.47949   0.00000  Uiso   1.00
C200   C     0.24998   0.00003   0.52053   0.00000  Uiso   1.00
C201   C     0.24997   0.00003   0.97948   0.00000  Uiso   1.00
C202   C     0.24995   0.00002   0.02051   0.00000  Uiso   1.00
C203   C     0.00003   0.24997   0.97948   0.00000  Uiso   1.00
C204   C     0.00004   0.24995   0.02051   0.00000  Uiso   1.00
H205   H     0.46046   0.16662   0.46416   0.00000  Uiso   1.00
H206   H     0.03963   0.33329   0.53585   0.00000  Uiso   1.00
H207   H     0.33072   0.45599   0.46422   0.00000  Uiso   1.00
H208   H     0.16927   0.04413   0.53580   0.00000  Uiso   1.00
H209   H     0.03966   0.33328   0.46431   0.00000  Uiso   1.00
H210   H     0.46044   0.16663   0.53569   0.00000  Uiso   1.00
H211   H     0.16927   0.04415   0.46416   0.00000  Uiso   1.00
H212   H     0.33070   0.45594   0.53586   0.00000  Uiso   1.00
H213   H     0.29437   0.41944   0.96417   0.00000  Uiso   1.00
H214   H     0.20555   0.08060   0.03582   0.00000  Uiso   1.00
H215   H     0.07921   0.29722   0.96426   0.00000  Uiso   1.00
H216   H     0.42087   0.20270   0.03573   0.00000  Uiso   1.00
H217   H     0.20558   0.08061   0.96417   0.00000  Uiso   1.00
H218   H     0.29431   0.41942   0.03581   0.00000  Uiso   1.00
H219   H     0.42085   0.20273   0.96409   0.00000  Uiso   1.00
H220   H     0.07923   0.29719   0.03590   0.00000  Uiso   1.00
N221   N     0.14126   0.41239   0.17940   0.00000  Uiso   1.00
O222   O     0.17133   0.40451   0.16130   0.00000  Uiso   1.00
O223   O     0.11986   0.43733   0.16529   0.00000  Uiso   1.00
N224   N     0.36016   0.08651   0.82010   0.00000  Uiso   1.00
O225   O     0.33122   0.09487   0.83996   0.00000  Uiso   1.00
O226   O     0.38207   0.06159   0.83319   0.00000  Uiso   1.00
N227   N     0.08118   0.13433   0.18235   0.00000  Uiso   1.00
O228   O     0.09444   0.15174   0.15236   0.00000  Uiso   1.00
O229   O     0.05096   0.11611   0.17861   0.00000  Uiso   1.00
N230   N     0.41980   0.36683   0.81708   0.00000  Uiso   1.00
O231   O     0.41342   0.34016   0.84107   0.00000  Uiso   1.00
O232   O     0.44475   0.39076   0.82549   0.00000  Uiso   1.00
N233   N     0.35977   0.08680   0.17973   0.00000  Uiso   1.00
O234   O     0.32948   0.09360   0.16152   0.00000  Uiso   1.00
O235   O     0.38324   0.06469   0.16416   0.00000  Uiso   1.00
N236   N     0.13971   0.41379   0.82005   0.00000  Uiso   1.00
O237   O     0.16905   0.40601   0.83955   0.00000  Uiso   1.00
O238   O     0.11745   0.43825   0.83347   0.00000  Uiso   1.00
N239   N     0.44730   0.39421   0.22891   0.00000  Uiso   1.00
O240   O     0.45749   0.39379   0.19249   0.00000  Uiso   1.00
O241   O     0.46838   0.40885   0.25525   0.00000  Uiso   1.00
N242   N     0.08745   0.14085   0.82043   0.00000  Uiso   1.00
O243   O     0.09573   0.17052   0.83918   0.00000  Uiso   1.00
O244   O     0.06254   0.11923   0.83427   0.00000  Uiso   1.00
N245   N     0.14097   0.08752   0.82050   0.00000  Uiso   1.00
O246   O     0.17116   0.09503   0.83862   0.00000  Uiso   1.00
O247   O     0.11884   0.06340   0.83502   0.00000  Uiso   1.00
N248   N     0.39419   0.44753   0.22970   0.00000  Uiso   1.00
O249   O     0.39914   0.45665   0.19324   0.00000  Uiso   1.00
O250   O     0.40105   0.47097   0.25744   0.00000  Uiso   1.00
N251   N     0.08605   0.36057   0.81994   0.00000  Uiso   1.00
O252   O     0.09516   0.33239   0.84069   0.00000  Uiso   1.00
O253   O     0.06022   0.38190   0.83206   0.00000  Uiso   1.00
N254   N     0.41380   0.13969   0.18009   0.00000  Uiso   1.00
O255   O     0.40279   0.16636   0.15804   0.00000  Uiso   1.00
O256   O     0.44154   0.12017   0.16939   0.00000  Uiso   1.00
N257   N     0.36841   0.42135   0.81603   0.00000  Uiso   1.00
O258   O     0.35052   0.40986   0.84642   0.00000  Uiso   1.00
O259   O     0.38735   0.45123   0.81841   0.00000  Uiso   1.00
N260   N     0.13658   0.08338   0.18088   0.00000  Uiso   1.00
O261   O     0.16680   0.08802   0.16120   0.00000  Uiso   1.00
O262   O     0.11139   0.06138   0.16763   0.00000  Uiso   1.00
N263   N     0.41303   0.14056   0.82027   0.00000  Uiso   1.00
O264   O     0.40391   0.16941   0.83995   0.00000  Uiso   1.00
O265   O     0.43828   0.11921   0.83367   0.00000  Uiso   1.00
N266   N     0.08693   0.35956   0.17949   0.00000  Uiso   1.00
O267   O     0.09283   0.32881   0.16169   0.00000  Uiso   1.00
O268   O     0.06414   0.38282   0.16456   0.00000  Uiso   1.00
N269   N     0.39132   0.16228   0.67914   0.00000  Uiso   1.00
O270   O     0.42228   0.15622   0.66199   0.00000  Uiso   1.00
O271   O     0.36884   0.18572   0.66416   0.00000  Uiso   1.00
N272   N     0.10864   0.33770   0.32063   0.00000  Uiso   1.00
O273   O     0.07839   0.34529   0.33853   0.00000  Uiso   1.00
O274   O     0.12996   0.31269   0.33465   0.00000  Uiso   1.00
N275   N     0.33217   0.38534   0.68148   0.00000  Uiso   1.00
O276   O     0.33693   0.41457   0.66068   0.00000  Uiso   1.00
O277   O     0.30918   0.36069   0.66973   0.00000  Uiso   1.00
N278   N     0.16739   0.11393   0.31843   0.00000  Uiso   1.00
O279   O     0.15860   0.08748   0.34198   0.00000  Uiso   1.00
O280   O     0.19521   0.13455   0.32641   0.00000  Uiso   1.00
N281   N     0.10889   0.33738   0.67931   0.00000  Uiso   1.00
O282   O     0.07860   0.34461   0.66131   0.00000  Uiso   1.00
O283   O     0.13097   0.31332   0.66476   0.00000  Uiso   1.00
N284   N     0.39154   0.16218   0.32096   0.00000  Uiso   1.00
O285   O     0.42263   0.15619   0.33789   0.00000  Uiso   1.00
O286   O     0.36897   0.18532   0.33632   0.00000  Uiso   1.00
N287   N     0.16151   0.10793   0.67903   0.00000  Uiso   1.00
O288   O     0.15391   0.07732   0.66174   0.00000  Uiso   1.00
O289   O     0.18555   0.12973   0.66382   0.00000  Uiso   1.00
N290   N     0.30311   0.35612   0.27234   0.00000  Uiso   1.00
O291   O     0.29354   0.35691   0.30897   0.00000  Uiso   1.00
O292   O     0.28185   0.34067   0.24679   0.00000  Uiso   1.00
N293   N     0.35617   0.30288   0.27163   0.00000  Uiso   1.00
O294   O     0.35455   0.29358   0.30827   0.00000  Uiso   1.00
O295   O     0.34416   0.28062   0.24491   0.00000  Uiso   1.00
N296   N     0.10798   0.16153   0.67901   0.00000  Uiso   1.00
O297   O     0.07706   0.15457   0.66208   0.00000  Uiso   1.00
O298   O     0.13022   0.18491   0.66334   0.00000  Uiso   1.00
N299   N     0.33764   0.10869   0.32080   0.00000  Uiso   1.00
O300   O     0.34398   0.07782   0.33805   0.00000  Uiso   1.00
O301   O     0.31341   0.13065   0.33518   0.00000  Uiso   1.00
N302   N     0.16292   0.39057   0.67944   0.00000  Uiso   1.00
O303   O     0.15594   0.42078   0.66117   0.00000  Uiso   1.00
O304   O     0.18696   0.36827   0.66531   0.00000  Uiso   1.00
N305   N     0.11314   0.16625   0.31918   0.00000  Uiso   1.00
O306   O     0.08322   0.16106   0.33884   0.00000  Uiso   1.00
O307   O     0.13778   0.18860   0.33257   0.00000  Uiso   1.00
N308   N     0.38363   0.33046   0.68270   0.00000  Uiso   1.00
O309   O     0.40857   0.33871   0.65720   0.00000  Uiso   1.00
O310   O     0.36267   0.30243   0.67667   0.00000  Uiso   1.00
N311   N     0.16229   0.39134   0.32079   0.00000  Uiso   1.00
O312   O     0.15694   0.42276   0.33730   0.00000  Uiso   1.00
O313   O     0.18441   0.36816   0.33687   0.00000  Uiso   1.00
N314   N     0.33794   0.10830   0.67908   0.00000  Uiso   1.00
O315   O     0.34484   0.07760   0.66172   0.00000  Uiso   1.00
O316   O     0.31391   0.13022   0.66427   0.00000  Uiso   1.00
H317   H     0.02606   0.30242   0.40211   0.00000  Uiso   1.00
H318   H     0.47401   0.19752   0.59790   0.00000  Uiso   1.00
H319   H     0.19918   0.02887   0.40201   0.00000  Uiso   1.00
H320   H     0.30077   0.47115   0.59799   0.00000  Uiso   1.00
H321   H     0.47406   0.19750   0.40200   0.00000  Uiso   1.00
H322   H     0.02598   0.30245   0.59800   0.00000  Uiso   1.00
H323   H     0.30081   0.47126   0.40207   0.00000  Uiso   1.00
H324   H     0.19917   0.02883   0.59796   0.00000  Uiso   1.00
H325   H     0.22098   0.05074   0.90202   0.00000  Uiso   1.00
H326   H     0.27893   0.44928   0.09795   0.00000  Uiso   1.00
H327   H     0.45021   0.21920   0.90198   0.00000  Uiso   1.00
H328   H     0.04984   0.28077   0.09801   0.00000  Uiso   1.00
H329   H     0.27905   0.44933   0.90203   0.00000  Uiso   1.00
H330   H     0.22093   0.05073   0.09797   0.00000  Uiso   1.00
H331   H     0.04981   0.28082   0.90209   0.00000  Uiso   1.00
H332   H     0.45025   0.21913   0.09790   0.00000  Uiso   1.00
Zn333  Zn    0.70659   0.00000   0.21735   0.00000  Uiso   1.00
Zn334  Zn    0.79340   0.00000   0.78265   0.00000  Uiso   1.00
Zn335  Zn    0.50000   0.20660   0.21735   0.00000  Uiso   1.00
Zn336  Zn    0.50000   0.29341   0.78265   0.00000  Uiso   1.00
Zn337  Zn    0.79340   0.00000   0.21735   0.00000  Uiso   1.00
Zn338  Zn    0.70659   0.00000   0.78265   0.00000  Uiso   1.00
Zn339  Zn    0.50000   0.29341   0.21735   0.00000  Uiso   1.00
Zn340  Zn    0.50000   0.20660   0.78265   0.00000  Uiso   1.00
Zn341  Zn    0.95659   0.25000   0.71735   0.00000  Uiso   1.00
Zn342  Zn    0.54340   0.25000   0.28265   0.00000  Uiso   1.00
Zn343  Zn    0.75000   0.45660   0.71735   0.00000  Uiso   1.00
Zn344  Zn    0.75000   0.04341   0.28265   0.00000  Uiso   1.00
Zn345  Zn    0.54340   0.25000   0.71735   0.00000  Uiso   1.00
Zn346  Zn    0.95659   0.25000   0.28265   0.00000  Uiso   1.00
Zn347  Zn    0.75000   0.04341   0.71735   0.00000  Uiso   1.00
Zn348  Zn    0.75000   0.45660   0.28265   0.00000  Uiso   1.00
C349   C     0.51490   0.27959   0.41824   0.00000  Uiso   1.00
C350   C     0.98516   0.22034   0.58177   0.00000  Uiso   1.00
C351   C     0.72131   0.01650   0.41820   0.00000  Uiso   1.00
C352   C     0.77864   0.48354   0.58181   0.00000  Uiso   1.00
C353   C     0.98522   0.22032   0.41818   0.00000  Uiso   1.00
C354   C     0.51483   0.27962   0.58182   0.00000  Uiso   1.00
C355   C     0.77867   0.48362   0.41823   0.00000  Uiso   1.00
C356   C     0.72130   0.01645   0.58180   0.00000  Uiso   1.00
C357   C     0.73344   0.02865   0.91819   0.00000  Uiso   1.00
C358   C     0.76649   0.47138   0.08179   0.00000  Uiso   1.00
C359   C     0.97192   0.23243   0.91817   0.00000  Uiso   1.00
C360   C     0.52813   0.26753   0.08183   0.00000  Uiso   1.00
C361   C     0.76658   0.47142   0.91820   0.00000  Uiso   1.00
C362   C     0.73339   0.02864   0.08180   0.00000  Uiso   1.00
C363   C     0.52811   0.26758   0.91823   0.00000  Uiso   1.00
C364   C     0.97195   0.23237   0.08176   0.00000  Uiso   1.00
C365   C     0.50005   0.24996   0.39807   0.00000  Uiso   1.00
C366   C     0.99998   0.24999   0.60193   0.00000  Uiso   1.00
C367   C     0.74998   0.00004   0.39809   0.00000  Uiso   1.00
C368   C     0.74997   0.49998   0.60193   0.00000  Uiso   1.00
C369   C     0.75002   0.00004   0.89807   0.00000  Uiso   1.00
C370   C     0.74995   0.00002   0.10192   0.00000  Uiso   1.00
C371   C     0.50000   0.25002   0.89808   0.00000  Uiso   1.00
C372   C     0.50003   0.24996   0.10192   0.00000  Uiso   1.00
O373   O     0.75000   0.00000   0.25000   0.00000  Uiso   1.00
O374   O     0.75000   0.00000   0.75000   0.00000  Uiso   1.00
O375   O     0.50000   0.25000   0.25000   0.00000  Uiso   1.00
O376   O     0.50000   0.25000   0.75000   0.00000  Uiso   1.00
O377   O     0.75000   0.46964   0.33755   0.00000  Uiso   1.00
O378   O     0.75000   0.03037   0.66245   0.00000  Uiso   1.00
O379   O     0.53036   0.25000   0.33755   0.00000  Uiso   1.00
O380   O     0.96963   0.25000   0.66245   0.00000  Uiso   1.00
O381   O     0.75000   0.03037   0.33755   0.00000  Uiso   1.00
O382   O     0.75000   0.46964   0.66245   0.00000  Uiso   1.00
O383   O     0.96963   0.25000   0.33755   0.00000  Uiso   1.00
O384   O     0.53036   0.25000   0.66245   0.00000  Uiso   1.00
O385   O     0.50000   0.21964   0.83755   0.00000  Uiso   1.00
O386   O     0.50000   0.28037   0.16245   0.00000  Uiso   1.00
O387   O     0.78036   0.00000   0.83755   0.00000  Uiso   1.00
O388   O     0.71963   0.00000   0.16245   0.00000  Uiso   1.00
O389   O     0.50000   0.28037   0.83755   0.00000  Uiso   1.00
O390   O     0.50000   0.21964   0.16245   0.00000  Uiso   1.00
O391   O     0.71963   0.00000   0.83755   0.00000  Uiso   1.00
O392   O     0.78036   0.00000   0.16245   0.00000  Uiso   1.00
O393   O     0.70724   0.07308   0.27302   0.00000  Uiso   1.00
O394   O     0.79275   0.42693   0.72698   0.00000  Uiso   1.00
O395   O     0.92692   0.20725   0.27302   0.00000  Uiso   1.00
O396   O     0.57307   0.29276   0.72698   0.00000  Uiso   1.00
O397   O     0.79275   0.42693   0.27302   0.00000  Uiso   1.00
O398   O     0.70724   0.07308   0.72698   0.00000  Uiso   1.00
O399   O     0.57307   0.29276   0.27302   0.00000  Uiso   1.00
O400   O     0.92692   0.20725   0.72698   0.00000  Uiso   1.00
O401   O     0.70724   0.42693   0.72698   0.00000  Uiso   1.00
O402   O     0.79275   0.07308   0.27302   0.00000  Uiso   1.00
O403   O     0.92692   0.29276   0.72698   0.00000  Uiso   1.00
O404   O     0.57307   0.20725   0.27302   0.00000  Uiso   1.00
O405   O     0.79275   0.07308   0.72698   0.00000  Uiso   1.00
O406   O     0.70724   0.42693   0.27302   0.00000  Uiso   1.00
O407   O     0.57307   0.20725   0.72698   0.00000  Uiso   1.00
O408   O     0.92692   0.29276   0.27302   0.00000  Uiso   1.00
O409   O     0.95724   0.32308   0.77302   0.00000  Uiso   1.00
O410   O     0.54275   0.17693   0.22698   0.00000  Uiso   1.00
O411   O     0.67692   0.45725   0.77302   0.00000  Uiso   1.00
O412   O     0.82307   0.04276   0.22698   0.00000  Uiso   1.00
O413   O     0.54275   0.17693   0.77302   0.00000  Uiso   1.00
O414   O     0.95724   0.32308   0.22698   0.00000  Uiso   1.00
O415   O     0.82307   0.04276   0.77302   0.00000  Uiso   1.00
O416   O     0.67692   0.45725   0.22698   0.00000  Uiso   1.00
O417   O     0.95724   0.17693   0.22698   0.00000  Uiso   1.00
O418   O     0.54275   0.32308   0.77302   0.00000  Uiso   1.00
O419   O     0.67692   0.04276   0.22698   0.00000  Uiso   1.00
O420   O     0.82307   0.45725   0.77302   0.00000  Uiso   1.00
O421   O     0.54275   0.32308   0.22698   0.00000  Uiso   1.00
O422   O     0.95724   0.17693   0.77302   0.00000  Uiso   1.00
O423   O     0.82307   0.45725   0.22698   0.00000  Uiso   1.00
O424   O     0.67692   0.04276   0.77302   0.00000  Uiso   1.00
C425   C     0.97140   0.18999   0.47954   0.00000  Uiso   1.00
C426   C     0.52869   0.30992   0.52047   0.00000  Uiso   1.00
C427   C     0.80808   0.46818   0.47963   0.00000  Uiso   1.00
C428   C     0.69190   0.03193   0.52039   0.00000  Uiso   1.00
C429   C     0.52871   0.30991   0.47966   0.00000  Uiso   1.00
C430   C     0.97139   0.19000   0.52035   0.00000  Uiso   1.00
C431   C     0.69190   0.03194   0.47958   0.00000  Uiso   1.00
C432   C     0.80807   0.46815   0.52044   0.00000  Uiso   1.00
C433   C     0.78207   0.44204   0.97958   0.00000  Uiso   1.00
C434   C     0.71784   0.05800   0.02040   0.00000  Uiso   1.00
C435   C     0.55701   0.28413   0.97965   0.00000  Uiso   1.00
C436   C     0.94307   0.21578   0.02035   0.00000  Uiso   1.00
C437   C     0.71786   0.05801   0.97959   0.00000  Uiso   1.00
C438   C     0.78204   0.44202   0.02039   0.00000  Uiso   1.00
C439   C     0.94306   0.21581   0.97952   0.00000  Uiso   1.00
C440   C     0.55702   0.28411   0.02047   0.00000  Uiso   1.00
C441   C     0.74998   0.00001   0.35579   0.00000  Uiso   1.00
C442   C     0.74999   0.49999   0.64421   0.00000  Uiso   1.00
C443   C     0.50001   0.24998   0.35579   0.00000  Uiso   1.00
C444   C     0.99999   0.24999   0.64422   0.00000  Uiso   1.00
C445   C     0.50000   0.25001   0.85578   0.00000  Uiso   1.00
C446   C     0.50001   0.24999   0.14422   0.00000  Uiso   1.00
C447   C     0.75001   0.00002   0.85579   0.00000  Uiso   1.00
C448   C     0.74998   0.00002   0.14421   0.00000  Uiso   1.00
C449   C     0.68011   0.07018   0.24985   0.00000  Uiso   1.00
C450   C     0.82026   0.43017   0.74977   0.00000  Uiso   1.00
C451   C     0.93008   0.17987   0.25010   0.00000  Uiso   1.00
C452   C     0.56995   0.32009   0.74994   0.00000  Uiso   1.00
C453   C     0.82010   0.43001   0.25015   0.00000  Uiso   1.00
C454   C     0.67993   0.07001   0.74996   0.00000  Uiso   1.00
C455   C     0.57003   0.32003   0.24998   0.00000  Uiso   1.00
C456   C     0.93001   0.17994   0.74995   0.00000  Uiso   1.00
C457   C     0.67995   0.42998   0.74996   0.00000  Uiso   1.00
C458   C     0.82003   0.07003   0.25002   0.00000  Uiso   1.00
C459   C     0.92987   0.31998   0.75008   0.00000  Uiso   1.00
C460   C     0.56988   0.17978   0.25017   0.00000  Uiso   1.00
C461   C     0.82009   0.06997   0.74993   0.00000  Uiso   1.00
C462   C     0.67997   0.42998   0.25001   0.00000  Uiso   1.00
C463   C     0.56999   0.17991   0.74995   0.00000  Uiso   1.00
C464   C     0.92997   0.32006   0.24998   0.00000  Uiso   1.00
C465   C     0.63234   0.39452   0.21546   0.00000  Uiso   1.00
C466   C     0.86817   0.10509   0.78424   0.00000  Uiso   1.00
C467   C     0.60283   0.12952   0.21691   0.00000  Uiso   1.00
C468   C     0.89787   0.37119   0.78266   0.00000  Uiso   1.00
C469   C     0.86807   0.10513   0.21572   0.00000  Uiso   1.00
C470   C     0.63171   0.39512   0.78420   0.00000  Uiso   1.00
C471   C     0.91082   0.38413   0.23900   0.00000  Uiso   1.00
C472   C     0.60545   0.13221   0.78442   0.00000  Uiso   1.00
C473   C     0.63229   0.10550   0.78446   0.00000  Uiso   1.00
C474   C     0.88414   0.41096   0.23943   0.00000  Uiso   1.00
C475   C     0.60481   0.36843   0.78416   0.00000  Uiso   1.00
C476   C     0.89516   0.13163   0.21589   0.00000  Uiso   1.00
C477   C     0.87182   0.39852   0.78221   0.00000  Uiso   1.00
C478   C     0.63040   0.10363   0.21626   0.00000  Uiso   1.00
C479   C     0.89486   0.13201   0.78428   0.00000  Uiso   1.00
C480   C     0.60542   0.36779   0.21543   0.00000  Uiso   1.00
C481   C     0.88262   0.14420   0.71512   0.00000  Uiso   1.00
C482   C     0.61758   0.35559   0.28462   0.00000  Uiso   1.00
C483   C     0.85295   0.37968   0.71661   0.00000  Uiso   1.00
C484   C     0.64689   0.12011   0.28332   0.00000  Uiso   1.00
C485   C     0.61763   0.35547   0.71530   0.00000  Uiso   1.00
C486   C     0.88268   0.14419   0.28493   0.00000  Uiso   1.00
C487   C     0.64402   0.11721   0.71517   0.00000  Uiso   1.00
C488   C     0.83943   0.36610   0.26153   0.00000  Uiso   1.00
C489   C     0.86610   0.33931   0.26115   0.00000  Uiso   1.00
C490   C     0.61719   0.14399   0.71515   0.00000  Uiso   1.00
C491   C     0.85570   0.11748   0.28483   0.00000  Uiso   1.00
C492   C     0.64458   0.38218   0.71534   0.00000  Uiso   1.00
C493   C     0.61959   0.14629   0.28377   0.00000  Uiso   1.00
C494   C     0.87905   0.35231   0.71702   0.00000  Uiso   1.00
C495   C     0.64433   0.38251   0.28472   0.00000  Uiso   1.00
C496   C     0.85581   0.11732   0.71512   0.00000  Uiso   1.00
C497   C     0.98545   0.21988   0.45895   0.00000  Uiso   1.00
C498   C     0.51464   0.28004   0.54105   0.00000  Uiso   1.00
C499   C     0.77910   0.48383   0.45900   0.00000  Uiso   1.00
C500   C     0.72087   0.01626   0.54102   0.00000  Uiso   1.00
C501   C     0.51468   0.28002   0.45901   0.00000  Uiso   1.00
C502   C     0.98541   0.21990   0.54100   0.00000  Uiso   1.00
C503   C     0.72088   0.01629   0.45898   0.00000  Uiso   1.00
C504   C     0.77908   0.48378   0.54104   0.00000  Uiso   1.00
C505   C     0.76634   0.47098   0.95897   0.00000  Uiso   1.00
C506   C     0.73360   0.02907   0.04102   0.00000  Uiso   1.00
C507   C     0.52857   0.26736   0.95901   0.00000  Uiso   1.00
C508   C     0.97150   0.23256   0.04098   0.00000  Uiso   1.00
C509   C     0.73363   0.02909   0.95898   0.00000  Uiso   1.00
C510   C     0.76628   0.47095   0.04101   0.00000  Uiso   1.00
C511   C     0.97148   0.23260   0.95895   0.00000  Uiso   1.00
C512   C     0.52859   0.26733   0.04105   0.00000  Uiso   1.00
C513   C     0.59809   0.34813   0.24999   0.00000  Uiso   1.00
C514   C     0.90211   0.15170   0.74975   0.00000  Uiso   1.00
C515   C     0.65231   0.09853   0.24967   0.00000  Uiso   1.00
C516   C     0.84886   0.40262   0.74941   0.00000  Uiso   1.00
C517   C     0.90233   0.15147   0.25037   0.00000  Uiso   1.00
C518   C     0.59782   0.34837   0.74978   0.00000  Uiso   1.00
C519   C     0.84826   0.40205   0.25052   0.00000  Uiso   1.00
C520   C     0.65176   0.09799   0.74987   0.00000  Uiso   1.00
C521   C     0.59792   0.15167   0.74984   0.00000  Uiso   1.00
C522   C     0.90194   0.34815   0.24991   0.00000  Uiso   1.00
C523   C     0.65177   0.40201   0.74984   0.00000  Uiso   1.00
C524   C     0.84822   0.09799   0.25016   0.00000  Uiso   1.00
C525   C     0.90173   0.34798   0.75006   0.00000  Uiso   1.00
C526   C     0.59756   0.15129   0.25035   0.00000  Uiso   1.00
C527   C     0.84839   0.09783   0.74977   0.00000  Uiso   1.00
C528   C     0.65183   0.40197   0.25009   0.00000  Uiso   1.00
C529   C     0.50006   0.24995   0.47950   0.00000  Uiso   1.00
C530   C     0.50004   0.24996   0.52051   0.00000  Uiso   1.00
C531   C     0.74999   0.00005   0.47949   0.00000  Uiso   1.00
C532   C     0.74998   0.00003   0.52053   0.00000  Uiso   1.00
C533   C     0.74997   0.00003   0.97948   0.00000  Uiso   1.00
C534   C     0.74995   0.00002   0.02051   0.00000  Uiso   1.00
C535   C     0.50003   0.24997   0.97948   0.00000  Uiso   1.00
C536   C     0.50004   0.24995   0.02051   0.00000  Uiso   1.00
H537   H     0.96046   0.16662   0.46416   0.00000  Uiso   1.00
H538   H     0.53963   0.33329   0.53585   0.00000  Uiso   1.00
H539   H     0.83072   0.45599   0.46422   0.00000  Uiso   1.00
H540   H     0.66927   0.04413   0.53580   0.00000  Uiso   1.00
H541   H     0.53966   0.33328   0.46431   0.00000  Uiso   1.00
H542   H     0.96044   0.16663   0.53569   0.00000  Uiso   1.00
H543   H     0.66927   0.04415   0.46416   0.00000  Uiso   1.00
H544   H     0.83070   0.45594   0.53586   0.00000  Uiso   1.00
H545   H     0.79437   0.41944   0.96417   0.00000  Uiso   1.00
H546   H     0.70555   0.08060   0.03582   0.00000  Uiso   1.00
H547   H     0.57921   0.29722   0.96426   0.00000  Uiso   1.00
H548   H     0.92087   0.20270   0.03573   0.00000  Uiso   1.00
H549   H     0.70558   0.08061   0.96417   0.00000  Uiso   1.00
H550   H     0.79431   0.41942   0.03581   0.00000  Uiso   1.00
H551   H     0.92085   0.20273   0.96409   0.00000  Uiso   1.00
H552   H     0.57923   0.29719   0.03590   0.00000  Uiso   1.00
N553   N     0.64126   0.41239   0.17940   0.00000  Uiso   1.00
O554   O     0.67133   0.40451   0.16130   0.00000  Uiso   1.00
O555   O     0.61986   0.43733   0.16529   0.00000  Uiso   1.00
N556   N     0.86016   0.08651   0.82010   0.00000  Uiso   1.00
O557   O     0.83122   0.09487   0.83996   0.00000  Uiso   1.00
O558   O     0.88207   0.06159   0.83319   0.00000  Uiso   1.00
N559   N     0.58118   0.13433   0.18235   0.00000  Uiso   1.00
O560   O     0.59444   0.15174   0.15236   0.00000  Uiso   1.00
O561   O     0.55096   0.11611   0.17861   0.00000  Uiso   1.00
N562   N     0.91980   0.36683   0.81708   0.00000  Uiso   1.00
O563   O     0.91342   0.34016   0.84107   0.00000  Uiso   1.00
O564   O     0.94475   0.39076   0.82549   0.00000  Uiso   1.00
N565   N     0.85977   0.08680   0.17973   0.00000  Uiso   1.00
O566   O     0.82948   0.09360   0.16152   0.00000  Uiso   1.00
O567   O     0.88324   0.06469   0.16416   0.00000  Uiso   1.00
N568   N     0.63971   0.41379   0.82005   0.00000  Uiso   1.00
O569   O     0.66905   0.40601   0.83955   0.00000  Uiso   1.00
O570   O     0.61745   0.43825   0.83347   0.00000  Uiso   1.00
N571   N     0.94730   0.39421   0.22891   0.00000  Uiso   1.00
O572   O     0.95749   0.39379   0.19249   0.00000  Uiso   1.00
O573   O     0.96838   0.40885   0.25525   0.00000  Uiso   1.00
N574   N     0.58745   0.14085   0.82043   0.00000  Uiso   1.00
O575   O     0.59573   0.17052   0.83918   0.00000  Uiso   1.00
O576   O     0.56254   0.11923   0.83427   0.00000  Uiso   1.00
N577   N     0.64097   0.08752   0.82050   0.00000  Uiso   1.00
O578   O     0.67116   0.09503   0.83862   0.00000  Uiso   1.00
O579   O     0.61884   0.06340   0.83502   0.00000  Uiso   1.00
N580   N     0.89419   0.44753   0.22970   0.00000  Uiso   1.00
O581   O     0.89914   0.45665   0.19324   0.00000  Uiso   1.00
O582   O     0.90105   0.47097   0.25744   0.00000  Uiso   1.00
N583   N     0.58605   0.36057   0.81994   0.00000  Uiso   1.00
O584   O     0.59516   0.33239   0.84069   0.00000  Uiso   1.00
O585   O     0.56022   0.38190   0.83206   0.00000  Uiso   1.00
N586   N     0.91380   0.13969   0.18009   0.00000  Uiso   1.00
O587   O     0.90279   0.16636   0.15804   0.00000  Uiso   1.00
O588   O     0.94154   0.12017   0.16939   0.00000  Uiso   1.00
N589   N     0.86841   0.42135   0.81603   0.00000  Uiso   1.00
O590   O     0.85052   0.40986   0.84642   0.00000  Uiso   1.00
O591   O     0.88735   0.45123   0.81841   0.00000  Uiso   1.00
N592   N     0.63658   0.08338   0.18088   0.00000  Uiso   1.00
O593   O     0.66680   0.08802   0.16120   0.00000  Uiso   1.00
O594   O     0.61139   0.06138   0.16763   0.00000  Uiso   1.00
N595   N     0.91303   0.14056   0.82027   0.00000  Uiso   1.00
O596   O     0.90391   0.16941   0.83995   0.00000  Uiso   1.00
O597   O     0.93828   0.11921   0.83367   0.00000  Uiso   1.00
N598   N     0.58693   0.35956   0.17949   0.00000  Uiso   1.00
O599   O     0.59283   0.32881   0.16169   0.00000  Uiso   1.00
O600   O     0.56414   0.38282   0.16456   0.00000  Uiso   1.00
N601   N     0.89132   0.16228   0.67914   0.00000  Uiso   1.00
O602   O     0.92228   0.15622   0.66199   0.00000  Uiso   1.00
O603   O     0.86884   0.18572   0.66416   0.00000  Uiso   1.00
N604   N     0.60864   0.33770   0.32063   0.00000  Uiso   1.00
O605   O     0.57839   0.34529   0.33853   0.00000  Uiso   1.00
O606   O     0.62996   0.31269   0.33465   0.00000  Uiso   1.00
N607   N     0.83217   0.38534   0.68148   0.00000  Uiso   1.00
O608   O     0.83693   0.41457   0.66068   0.00000  Uiso   1.00
O609   O     0.80918   0.36069   0.66973   0.00000  Uiso   1.00
N610   N     0.66739   0.11393   0.31843   0.00000  Uiso   1.00
O611   O     0.65860   0.08748   0.34198   0.00000  Uiso   1.00
O612   O     0.69521   0.13455   0.32641   0.00000  Uiso   1.00
N613   N     0.60889   0.33738   0.67931   0.00000  Uiso   1.00
O614   O     0.57860   0.34461   0.66131   0.00000  Uiso   1.00
O615   O     0.63097   0.31332   0.66476   0.00000  Uiso   1.00
N616   N     0.89154   0.16218   0.32096   0.00000  Uiso   1.00
O617   O     0.92263   0.15619   0.33789   0.00000  Uiso   1.00
O618   O     0.86897   0.18532   0.33632   0.00000  Uiso   1.00
N619   N     0.66151   0.10793   0.67903   0.00000  Uiso   1.00
O620   O     0.65391   0.07732   0.66174   0.00000  Uiso   1.00
O621   O     0.68555   0.12973   0.66382   0.00000  Uiso   1.00
N622   N     0.80311   0.35612   0.27234   0.00000  Uiso   1.00
O623   O     0.79354   0.35691   0.30897   0.00000  Uiso   1.00
O624   O     0.78185   0.34067   0.24679   0.00000  Uiso   1.00
N625   N     0.85617   0.30288   0.27163   0.00000  Uiso   1.00
O626   O     0.85455   0.29358   0.30827   0.00000  Uiso   1.00
O627   O     0.84416   0.28062   0.24491   0.00000  Uiso   1.00
N628   N     0.60798   0.16153   0.67901   0.00000  Uiso   1.00
O629   O     0.57706   0.15457   0.66208   0.00000  Uiso   1.00
O630   O     0.63022   0.18491   0.66334   0.00000  Uiso   1.00
N631   N     0.83764   0.10869   0.32080   0.00000  Uiso   1.00
O632   O     0.84398   0.07782   0.33805   0.00000  Uiso   1.00
O633   O     0.81341   0.13065   0.33518   0.00000  Uiso   1.00
N634   N     0.66292   0.39057   0.67944   0.00000  Uiso   1.00
O635   O     0.65594   0.42078   0.66117   0.00000  Uiso   1.00
O636   O     0.68696   0.36827   0.66531   0.00000  Uiso   1.00
N637   N     0.61314   0.16625   0.31918   0.00000  Uiso   1.00
O638   O     0.58322   0.16106   0.33884   0.00000  Uiso   1.00
O639   O     0.63778   0.18860   0.33257   0.00000  Uiso   1.00
N640   N     0.88363   0.33046   0.68270   0.00000  Uiso   1.00
O641   O     0.90857   0.33871   0.65720   0.00000  Uiso   1.00
O642   O     0.86267   0.30243   0.67667   0.00000  Uiso   1.00
N643   N     0.66229   0.39134   0.32079   0.00000  Uiso   1.00
O644   O     0.65694   0.42276   0.33730   0.00000  Uiso   1.00
O645   O     0.68441   0.36816   0.33687   0.00000  Uiso   1.00
N646   N     0.83794   0.10830   0.67908   0.00000  Uiso   1.00
O647   O     0.84484   0.07760   0.66172   0.00000  Uiso   1.00
O648   O     0.81391   0.13022   0.66427   0.00000  Uiso   1.00
H649   H     0.52606   0.30242   0.40211   0.00000  Uiso   1.00
H650   H     0.97401   0.19752   0.59790   0.00000  Uiso   1.00
H651   H     0.69918   0.02887   0.40201   0.00000  Uiso   1.00
H652   H     0.80077   0.47115   0.59799   0.00000  Uiso   1.00
H653   H     0.97406   0.19750   0.40200   0.00000  Uiso   1.00
H654   H     0.52598   0.30245   0.59800   0.00000  Uiso   1.00
H655   H     0.80081   0.47126   0.40207   0.00000  Uiso   1.00
H656   H     0.69917   0.02883   0.59796   0.00000  Uiso   1.00
H657   H     0.72098   0.05074   0.90202   0.00000  Uiso   1.00
H658   H     0.77893   0.44928   0.09795   0.00000  Uiso   1.00
H659   H     0.95021   0.21920   0.90198   0.00000  Uiso   1.00
H660   H     0.54984   0.28077   0.09801   0.00000  Uiso   1.00
H661   H     0.77905   0.44933   0.90203   0.00000  Uiso   1.00
H662   H     0.72093   0.05073   0.09797   0.00000  Uiso   1.00
H663   H     0.54981   0.28082   0.90209   0.00000  Uiso   1.00
H664   H     0.95025   0.21913   0.09790   0.00000  Uiso   1.00
Zn665  Zn    0.20659   0.50000   0.21735   0.00000  Uiso   1.00
Zn666  Zn    0.29340   0.50000   0.78265   0.00000  Uiso   1.00
Zn667  Zn   -0.00000   0.70660   0.21735   0.00000  Uiso   1.00
Zn668  Zn   -0.00000   0.79341   0.78265   0.00000  Uiso   1.00
Zn669  Zn    0.29340   0.50000   0.21735   0.00000  Uiso   1.00
Zn670  Zn    0.20659   0.50000   0.78265   0.00000  Uiso   1.00
Zn671  Zn   -0.00000   0.79341   0.21735   0.00000  Uiso   1.00
Zn672  Zn    0.00000   0.70660   0.78265   0.00000  Uiso   1.00
Zn673  Zn    0.45659   0.75000   0.71735   0.00000  Uiso   1.00
Zn674  Zn    0.04340   0.75000   0.28265   0.00000  Uiso   1.00
Zn675  Zn    0.25000   0.95660   0.71735   0.00000  Uiso   1.00
Zn676  Zn    0.25000   0.54341   0.28265   0.00000  Uiso   1.00
Zn677  Zn    0.04340   0.75000   0.71735   0.00000  Uiso   1.00
Zn678  Zn    0.45659   0.75000   0.28265   0.00000  Uiso   1.00
Zn679  Zn    0.25000   0.54341   0.71735   0.00000  Uiso   1.00
Zn680  Zn    0.25000   0.95660   0.28265   0.00000  Uiso   1.00
C681   C     0.01490   0.77959   0.41824   0.00000  Uiso   1.00
C682   C     0.48516   0.72034   0.58177   0.00000  Uiso   1.00
C683   C     0.22131   0.51650   0.41820   0.00000  Uiso   1.00
C684   C     0.27864   0.98354   0.58181   0.00000  Uiso   1.00
C685   C     0.48522   0.72032   0.41818   0.00000  Uiso   1.00
C686   C     0.01483   0.77962   0.58182   0.00000  Uiso   1.00
C687   C     0.27867   0.98362   0.41823   0.00000  Uiso   1.00
C688   C     0.22130   0.51645   0.58180   0.00000  Uiso   1.00
C689   C     0.23344   0.52865   0.91819   0.00000  Uiso   1.00
C690   C     0.26649   0.97138   0.08179   0.00000  Uiso   1.00
C691   C     0.47192   0.73243   0.91817   0.00000  Uiso   1.00
C692   C     0.02813   0.76753   0.08183   0.00000  Uiso   1.00
C693   C     0.26658   0.97142   0.91820   0.00000  Uiso   1.00
C694   C     0.23339   0.52864   0.08180   0.00000  Uiso   1.00
C695   C     0.02811   0.76758   0.91823   0.00000  Uiso   1.00
C696   C     0.47195   0.73237   0.08176   0.00000  Uiso   1.00
C697   C     0.00005   0.74996   0.39807   0.00000  Uiso   1.00
C698   C     0.49998   0.74999   0.60193   0.00000  Uiso   1.00
C699   C     0.24998   0.50004   0.39809   0.00000  Uiso   1.00
C700   C     0.24997   0.99998   0.60193   0.00000  Uiso   1.00
C701   C     0.25002   0.50004   0.89807   0.00000  Uiso   1.00
C702   C     0.24995   0.50002   0.10192   0.00000  Uiso   1.00
C703   C     0.00000   0.75002   0.89808   0.00000  Uiso   1.00
C704   C     0.00003   0.74996   0.10192   0.00000  Uiso   1.00
O705   O     0.25000   0.50000   0.25000   0.00000  Uiso   1.00
O706   O     0.25000   0.50000   0.75000   0.00000  Uiso   1.00
O707   O    -0.00000   0.75000   0.25000   0.00000  Uiso   1.00
O708   O    -0.00000   0.75000   0.75000   0.00000  Uiso   1.00
O709   O     0.25000   0.96964   0.33755   0.00000  Uiso   1.00
O710   O     0.25000   0.53037   0.66245   0.00000  Uiso   1.00
O711   O     0.03036   0.75000   0.33755   0.00000  Uiso   1.00
O712   O     0.46963   0.75000   0.66245   0.00000  Uiso   1.00
O713   O     0.25000   0.53037   0.33755   0.00000  Uiso   1.00
O714   O     0.25000   0.96964   0.66245   0.00000  Uiso   1.00
O715   O     0.46963   0.75000   0.33755   0.00000  Uiso   1.00
O716   O     0.03036   0.75000   0.66245   0.00000  Uiso   1.00
O717   O    -0.00000   0.71964   0.83755   0.00000  Uiso   1.00
O718   O    -0.00000   0.78037   0.16245   0.00000  Uiso   1.00
O719   O     0.28036   0.50000   0.83755   0.00000  Uiso   1.00
O720   O     0.21963   0.50000   0.16245   0.00000  Uiso   1.00
O721   O    -0.00000   0.78037   0.83755   0.00000  Uiso   1.00
O722   O    -0.00000   0.71964   0.16245   0.00000  Uiso   1.00
O723   O     0.21963   0.50000   0.83755   0.00000  Uiso   1.00
O724   O     0.28036   0.50000   0.16245   0.00000  Uiso   1.00
O725   O     0.20724   0.57308   0.27302   0.00000  Uiso   1.00
O726   O     0.29275   0.92693   0.72698   0.00000  Uiso   1.00
O727   O     0.42692   0.70725   0.27302   0.00000  Uiso   1.00
O728   O     0.07307   0.79276   0.72698   0.00000  Uiso   1.00
O729   O     0.29275   0.92693   0.27302   0.00000  Uiso   1.00
O730   O     0.20724   0.57308   0.72698   0.00000  Uiso   1.00
O731   O     0.07307   0.79276   0.27302   0.00000  Uiso   1.00
O732   O     0.42692   0.70725   0.72698   0.00000  Uiso   1.00
O733   O     0.20724   0.92693   0.72698   0.00000  Uiso   1.00
O734   O     0.29275   0.57308   0.27302   0.00000  Uiso   1.00
O735   O     0.42692   0.79276   0.72698   0.00000  Uiso   1.00
O736   O     0.07307   0.70725   0.27302   0.00000  Uiso   1.00
O737   O     0.29275   0.57308   0.72698   0.00000  Uiso   1.00
O738   O     0.20724   0.92693   0.27302   0.00000  Uiso   1.00
O739   O     0.07307   0.70725   0.72698   0.00000  Uiso   1.00
O740   O     0.42692   0.79276   0.27302   0.00000  Uiso   1.00
O741   O     0.45724   0.82308   0.77302   0.00000  Uiso   1.00
O742   O     0.04275   0.67693   0.22698   0.00000  Uiso   1.00
O743   O     0.17692   0.95725   0.77302   0.00000  Uiso   1.00
O744   O     0.32307   0.54276   0.22698   0.00000  Uiso   1.00
O745   O     0.04275   0.67693   0.77302   0.00000  Uiso   1.00
O746   O     0.45724   0.82308   0.22698   0.00000  Uiso   1.00
O747   O     0.32307   0.54276   0.77302   0.00000  Uiso   1.00
O748   O     0.17692   0.95725   0.22698   0.00000  Uiso   1.00
O749   O     0.45724   0.67693   0.22698   0.00000  Uiso   1.00
O750   O     0.04275   0.82308   0.77302   0.00000  Uiso   1.00
O751   O     0.17692   0.54276   0.22698   0.00000  Uiso   1.00
O752   O     0.32307   0.95725   0.77302   0.00000  Uiso   1.00
O753   O     0.04275   0.82308   0.22698   0.00000  Uiso   1.00
O754   O     0.45724   0.67693   0.77302   0.00000  Uiso   1.00
O755   O     0.32307   0.95725   0.22698   0.00000  Uiso   1.00
O756   O     0.17692   0.54276   0.77302   0.00000  Uiso   1.00
C757   C     0.47140   0.68999   0.47954   0.00000  Uiso   1.00
C758   C     0.02869   0.80992   0.52047   0.00000  Uiso   1.00
C759   C     0.30808   0.96818   0.47963   0.00000  Uiso   1.00
C760   C     0.19190   0.53193   0.52039   0.00000  Uiso   1.00
C761   C     0.02871   0.80991   0.47966   0.00000  Uiso   1.00
C762   C     0.47139   0.69000   0.52035   0.00000  Uiso   1.00
C763   C     0.19190   0.53194   0.47958   0.00000  Uiso   1.00
C764   C     0.30807   0.96815   0.52044   0.00000  Uiso   1.00
C765   C     0.28207   0.94204   0.97958   0.00000  Uiso   1.00
C766   C     0.21784   0.55800   0.02040   0.00000  Uiso   1.00
C767   C     0.05701   0.78413   0.97965   0.00000  Uiso   1.00
C768   C     0.44307   0.71578   0.02035   0.00000  Uiso   1.00
C769   C     0.21786   0.55801   0.97959   0.00000  Uiso   1.00
C770   C     0.28204   0.94202   0.02039   0.00000  Uiso   1.00
C771   C     0.44306   0.71581   0.97952   0.00000  Uiso   1.00
C772   C     0.05702   0.78411   0.02047   0.00000  Uiso   1.00
C773   C     0.24998   0.50001   0.35579   0.00000  Uiso   1.00
C774   C     0.24999   0.99999   0.64421   0.00000  Uiso   1.00
C775   C     0.00001   0.74998   0.35579   0.00000  Uiso   1.00
C776   C     0.49999   0.74999   0.64422   0.00000  Uiso   1.00
C777   C     0.00000   0.75001   0.85578   0.00000  Uiso   1.00
C778   C     0.00001   0.74999   0.14422   0.00000  Uiso   1.00
C779   C     0.25001   0.50002   0.85579   0.00000  Uiso   1.00
C780   C     0.24998   0.50002   0.14421   0.00000  Uiso   1.00
C781   C     0.18011   0.57018   0.24985   0.00000  Uiso   1.00
C782   C     0.32026   0.93017   0.74977   0.00000  Uiso   1.00
C783   C     0.43008   0.67987   0.25010   0.00000  Uiso   1.00
C784   C     0.06995   0.82009   0.74994   0.00000  Uiso   1.00
C785   C     0.32010   0.93001   0.25015   0.00000  Uiso   1.00
C786   C     0.17993   0.57001   0.74996   0.00000  Uiso   1.00
C787   C     0.07003   0.82003   0.24998   0.00000  Uiso   1.00
C788   C     0.43001   0.67994   0.74995   0.00000  Uiso   1.00
C789   C     0.17995   0.92998   0.74996   0.00000  Uiso   1.00
C790   C     0.32003   0.57003   0.25002   0.00000  Uiso   1.00
C791   C     0.42987   0.81998   0.75008   0.00000  Uiso   1.00
C792   C     0.06988   0.67978   0.25017   0.00000  Uiso   1.00
C793   C     0.32009   0.56997   0.74993   0.00000  Uiso   1.00
C794   C     0.17997   0.92998   0.25001   0.00000  Uiso   1.00
C795   C     0.06999   0.67991   0.74995   0.00000  Uiso   1.00
C796   C     0.42997   0.82006   0.24998   0.00000  Uiso   1.00
C797   C     0.13234   0.89452   0.21546   0.00000  Uiso   1.00
C798   C     0.36817   0.60509   0.78424   0.00000  Uiso   1.00
C799   C     0.10283   0.62952   0.21691   0.00000  Uiso   1.00
C800   C     0.39787   0.87119   0.78266   0.00000  Uiso   1.00
C801   C     0.36807   0.60513   0.21572   0.00000  Uiso   1.00
C802   C     0.13171   0.89512   0.78420   0.00000  Uiso   1.00
C803   C     0.41082   0.88413   0.23900   0.00000  Uiso   1.00
C804   C     0.10545   0.63221   0.78442   0.00000  Uiso   1.00
C805   C     0.13229   0.60550   0.78446   0.00000  Uiso   1.00
C806   C     0.38414   0.91096   0.23943   0.00000  Uiso   1.00
C807   C     0.10481   0.86843   0.78416   0.00000  Uiso   1.00
C808   C     0.39516   0.63163   0.21589   0.00000  Uiso   1.00
C809   C     0.37182   0.89852   0.78221   0.00000  Uiso   1.00
C810   C     0.13040   0.60363   0.21626   0.00000  Uiso   1.00
C811   C     0.39486   0.63201   0.78428   0.00000  Uiso   1.00
C812   C     0.10542   0.86779   0.21543   0.00000  Uiso   1.00
C813   C     0.38262   0.64420   0.71512   0.00000  Uiso   1.00
C814   C     0.11758   0.85559   0.28462   0.00000  Uiso   1.00
C815   C     0.35295   0.87968   0.71661   0.00000  Uiso   1.00
C816   C     0.14689   0.62011   0.28332   0.00000  Uiso   1.00
C817   C     0.11763   0.85547   0.71530   0.00000  Uiso   1.00
C818   C     0.38268   0.64419   0.28493   0.00000  Uiso   1.00
C819   C     0.14402   0.61721   0.71517   0.00000  Uiso   1.00
C820   C     0.33943   0.86610   0.26153   0.00000  Uiso   1.00
C821   C     0.36610   0.83931   0.26115   0.00000  Uiso   1.00
C822   C     0.11719   0.64399   0.71515   0.00000  Uiso   1.00
C823   C     0.35570   0.61748   0.28483   0.00000  Uiso   1.00
C824   C     0.14458   0.88218   0.71534   0.00000  Uiso   1.00
C825   C     0.11959   0.64629   0.28377   0.00000  Uiso   1.00
C826   C     0.37905   0.85231   0.71702   0.00000  Uiso   1.00
C827   C     0.14433   0.88251   0.28472   0.00000  Uiso   1.00
C828   C     0.35581   0.61732   0.71512   0.00000  Uiso   1.00
C829   C     0.48545   0.71988   0.45895   0.00000  Uiso   1.00
C830   C     0.01464   0.78004   0.54105   0.00000  Uiso   1.00
C831   C     0.27910   0.98383   0.45900   0.00000  Uiso   1.00
C832   C     0.22087   0.51626   0.54102   0.00000  Uiso   1.00
C833   C     0.01468   0.78002   0.45901   0.00000  Uiso   1.00
C834   C     0.48541   0.71990   0.54100   0.00000  Uiso   1.00
C835   C     0.22088   0.51629   0.45898   0.00000  Uiso   1.00
C836   C     0.27908   0.98378   0.54104   0.00000  Uiso   1.00
C837   C     0.26634   0.97098   0.95897   0.00000  Uiso   1.00
C838   C     0.23360   0.52907   0.04102   0.00000  Uiso   1.00
C839   C     0.02857   0.76736   0.95901   0.00000  Uiso   1.00
C840   C     0.47150   0.73256   0.04098   0.00000  Uiso   1.00
C841   C     0.23363   0.52909   0.95898   0.00000  Uiso   1.00
C842   C     0.26628   0.97095   0.04101   0.00000  Uiso   1.00
C843   C     0.47148   0.73260   0.95895   0.00000  Uiso   1.00
C844   C     0.02859   0.76733   0.04105   0.00000  Uiso   1.00
C845   C     0.09809   0.84813   0.24999   0.00000  Uiso   1.00
C846   C     0.40211   0.65170   0.74975   0.00000  Uiso   1.00
C847   C     0.15231   0.59853   0.24967   0.00000  Uiso   1.00
C848   C     0.34886   0.90262   0.74941   0.00000  Uiso   1.00
C849   C     0.40233   0.65147   0.25037   0.00000  Uiso   1.00
C850   C     0.09782   0.84837   0.74978   0.00000  Uiso   1.00
C851   C     0.34826   0.90205   0.25052   0.00000  Uiso   1.00
C852   C     0.15176   0.59799   0.74987   0.00000  Uiso   1.00
C853   C     0.09792   0.65167   0.74984   0.00000  Uiso   1.00
C854   C     0.40194   0.84815   0.24991   0.00000  Uiso   1.00
C855   C     0.15177   0.90201   0.74984   0.00000  Uiso   1.00
C856   C     0.34822   0.59799   0.25016   0.00000  Uiso   1.00
C857   C     0.40173   0.84798   0.75006   0.00000  Uiso   1.00
C858   C     0.09756   0.65129   0.25035   0.00000  Uiso   1.00
C859   C     0.34839   0.59783   0.74977   0.00000  Uiso   1.00
C860   C     0.15183   0.90197   0.25009   0.00000  Uiso   1.00
C861   C     0.00006   0.74995   0.47950   0.00000  Uiso   1.00
C862   C     0.00004   0.74996   0.52051   0.00000  Uiso   1.00
C863   C     0.24999   0.50005   0.47949   0.00000  Uiso   1.00
C864   C     0.24998   0.50003   0.52053   0.00000  Uiso   1.00
C865   C     0.24997   0.50003   0.97948   0.00000  Uiso   1.00
C866   C     0.24995   0.50002   0.02051   0.00000  Uiso   1.00
C867   C     0.00003   0.74997   0.97948   0.00000  Uiso   1.00
C868   C     0.00004   0.74995   0.02051   0.00000  Uiso   1.00
H869   H     0.46046   0.66662   0.46416   0.00000  Uiso   1.00
H870   H     0.03963   0.83329   0.53585   0.00000  Uiso   1.00
H871   H     0.33072   0.95599   0.46422   0.00000  Uiso   1.00
H872   H     0.16927   0.54413   0.53580   0.00000  Uiso   1.00
H873   H     0.03966   0.83328   0.46431   0.00000  Uiso   1.00
H874   H     0.46044   0.66663   0.53569   0.00000  Uiso   1.00
H875   H     0.16927   0.54415   0.46416   0.00000  Uiso   1.00
H876   H     0.33070   0.95594   0.53586   0.00000  Uiso   1.00
H877   H     0.29437   0.91944   0.96417   0.00000  Uiso   1.00
H878   H     0.20555   0.58060   0.03582   0.00000  Uiso   1.00
H879   H     0.07921   0.79722   0.96426   0.00000  Uiso   1.00
H880   H     0.42087   0.70270   0.03573   0.00000  Uiso   1.00
H881   H     0.20558   0.58061   0.96417   0.00000  Uiso   1.00
H882   H     0.29431   0.91942   0.03581   0.00000  Uiso   1.00
H883   H     0.42085   0.70273   0.96409   0.00000  Uiso   1.00
H884   H     0.07923   0.79719   0.03590   0.00000  Uiso   1.00
N885   N     0.14126   0.91239   0.17940   0.00000  Uiso   1.00
O886   O     0.17133   0.90451   0.16130   0.00000  Uiso   1.00
O887   O     0.11986   0.93733   0.16529   0.00000  Uiso   1.00
N888   N     0.36016   0.58651   0.82010   0.00000  Uiso   1.00
O889   O     0.33122   0.59487   0.83996   0.00000  Uiso   1.00
O890   O     0.38207   0.56159   0.83319   0.00000  Uiso   1.00
N891   N     0.08118   0.63433   0.18235   0.00000  Uiso   1.00
O892   O     0.09444   0.65174   0.15236   0.00000  Uiso   1.00
O893   O     0.05096   0.61611   0.17861   0.00000  Uiso   1.00
N894   N     0.41980   0.86683   0.81708   0.00000  Uiso   1.00
O895   O     0.41342   0.84016   0.84107   0.00000  Uiso   1.00
O896   O     0.44475   0.89076   0.82549   0.00000  Uiso   1.00
N897   N     0.35977   0.58680   0.17973   0.00000  Uiso   1.00
O898   O     0.32948   0.59360   0.16152   0.00000  Uiso   1.00
O899   O     0.38324   0.56469   0.16416   0.00000  Uiso   1.00
N900   N     0.13971   0.91379   0.82005   0.00000  Uiso   1.00
O901   O     0.16905   0.90601   0.83955   0.00000  Uiso   1.00
O902   O     0.11745   0.93825   0.83347   0.00000  Uiso   1.00
N903   N     0.44730   0.89421   0.22891   0.00000  Uiso   1.00
O904   O     0.45749   0.89379   0.19249   0.00000  Uiso   1.00
O905   O     0.46838   0.90885   0.25525   0.00000  Uiso   1.00
N906   N     0.08745   0.64085   0.82043   0.00000  Uiso   1.00
O907   O     0.09573   0.67052   0.83918   0.00000  Uiso   1.00
O908   O     0.06254   0.61923   0.83427   0.00000  Uiso   1.00
N909   N     0.14097   0.58752   0.82050   0.00000  Uiso   1.00
O910   O     0.17116   0.59503   0.83862   0.00000  Uiso   1.00
O911   O     0.11884   0.56340   0.83502   0.00000  Uiso   1.00
N912   N     0.39419   0.94753   0.22970   0.00000  Uiso   1.00
O913   O     0.39914   0.95665   0.19324   0.00000  Uiso   1.00
O914   O     0.40105   0.97097   0.25744   0.00000  Uiso   1.00
N915   N     0.08605   0.86057   0.81994   0.00000  Uiso   1.00
O916   O     0.09516   0.83239   0.84069   0.00000  Uiso   1.00
O917   O     0.06022   0.88190   0.83206   0.00000  Uiso   1.00
N918   N     0.41380   0.63969   0.18009   0.00000  Uiso   1.00
O919   O     0.40279   0.66636   0.15804   0.00000  Uiso   1.00
O920   O     0.44154   0.62017   0.16939   0.00000  Uiso   1.00
N921   N     0.36841   0.92135   0.81603   0.00000  Uiso   1.00
O922   O     0.35052   0.90986   0.84642   0.00000  Uiso   1.00
O923   O     0.38735   0.95123   0.81841   0.00000  Uiso   1.00
N924   N     0.13658   0.58338   0.18088   0.00000  Uiso   1.00
O925   O     0.16680   0.58802   0.16120   0.00000  Uiso   1.00
O926   O     0.11139   0.56138   0.16763   0.00000  Uiso   1.00
N927   N     0.41303   0.64056   0.82027   0.00000  Uiso   1.00
O928   O     0.40391   0.66941   0.83995   0.00000  Uiso   1.00
O929   O     0.43828   0.61921   0.83367   0.00000  Uiso   1.00
N930   N     0.08693   0.85956   0.17949   0.00000  Uiso   1.00
O931   O     0.09283   0.82881   0.16169   0.00000  Uiso   1.00
O932   O     0.06414   0.88282   0.16456   0.00000  Uiso   1.00
N933   N     0.39132   0.66228   0.67914   0.00000  Uiso   1.00
O934   O     0.42228   0.65622   0.66199   0.00000  Uiso   1.00
O935   O     0.36884   0.68572   0.66416   0.00000  Uiso   1.00
N936   N     0.10864   0.83770   0.32063   0.00000  Uiso   1.00
O937   O     0.07839   0.84529   0.33853   0.00000  Uiso   1.00
O938   O     0.12996   0.81269   0.33465   0.00000  Uiso   1.00
N939   N     0.33217   0.88534   0.68148   0.00000  Uiso   1.00
O940   O     0.33693   0.91457   0.66068   0.00000  Uiso   1.00
O941   O     0.30918   0.86069   0.66973   0.00000  Uiso   1.00
N942   N     0.16739   0.61393   0.31843   0.00000  Uiso   1.00
O943   O     0.15860   0.58748   0.34198   0.00000  Uiso   1.00
O944   O     0.19521   0.63455   0.32641   0.00000  Uiso   1.00
N945   N     0.10889   0.83738   0.67931   0.00000  Uiso   1.00
O946   O     0.07860   0.84461   0.66131   0.00000  Uiso   1.00
O947   O     0.13097   0.81332   0.66476   0.00000  Uiso   1.00
N948   N     0.39154   0.66218   0.32096   0.00000  Uiso   1.00
O949   O     0.42263   0.65619   0.33789   0.00000  Uiso   1.00
O950   O     0.36897   0.68532   0.33632   0.00000  Uiso   1.00
N951   N     0.16151   0.60793   0.67903   0.00000  Uiso   1.00
O952   O     0.15391   0.57732   0.66174   0.00000  Uiso   1.00
O953   O     0.18555   0.62973   0.66382   0.00000  Uiso   1.00
N954   N     0.30311   0.85612   0.27234   0.00000  Uiso   1.00
O955   O     0.29354   0.85691   0.30897   0.00000  Uiso   1.00
O956   O     0.28185   0.84067   0.24679   0.00000  Uiso   1.00
N957   N     0.35617   0.80288   0.27163   0.00000  Uiso   1.00
O958   O     0.35455   0.79358   0.30827   0.00000  Uiso   1.00
O959   O     0.34416   0.78062   0.24491   0.00000  Uiso   1.00
N960   N     0.10798   0.66153   0.67901   0.00000  Uiso   1.00
O961   O     0.07706   0.65457   0.66208   0.00000  Uiso   1.00
O962   O     0.13022   0.68491   0.66334   0.00000  Uiso   1.00
N963   N     0.33764   0.60869   0.32080   0.00000  Uiso   1.00
O964   O     0.34398   0.57782   0.33805   0.00000  Uiso   1.00
O965   O     0.31341   0.63065   0.33518   0.00000  Uiso   1.00
N966   N     0.16292   0.89057   0.67944   0.00000  Uiso   1.00
O967   O     0.15594   0.92078   0.66117   0.00000  Uiso   1.00
O968   O     0.18696   0.86827   0.66531   0.00000  Uiso   1.00
N969   N     0.11314   0.66625   0.31918   0.00000  Uiso   1.00
O970   O     0.08322   0.66106   0.33884   0.00000  Uiso   1.00
O971   O     0.13778   0.68860   0.33257   0.00000  Uiso   1.00
N972   N     0.38363   0.83046   0.68270   0.00000  Uiso   1.00
O973   O     0.40857   0.83871   0.65720   0.00000  Uiso   1.00
O974   O     0.36267   0.80243   0.67667   0.00000  Uiso   1.00
N975   N     0.16229   0.89134   0.32079   0.00000  Uiso   1.00
O976   O     0.15694   0.92276   0.33730   0.00000  Uiso   1.00
O977   O     0.18441   0.86816   0.33687   0.00000  Uiso   1.00
N978   N     0.33794   0.60830   0.67908   0.00000  Uiso   1.00
O979   O     0.34484   0.57760   0.66172   0.00000  Uiso   1.00
O980   O     0.31391   0.63022   0.66427   0.00000  Uiso   1.00
H981   H     0.02606   0.80242   0.40211   0.00000  Uiso   1.00
H982   H     0.47401   0.69752   0.59790   0.00000  Uiso   1.00
H983   H     0.19918   0.52887   0.40201   0.00000  Uiso   1.00
H984   H     0.30077   0.97115   0.59799   0.00000  Uiso   1.00
H985   H     0.47406   0.69750   0.40200   0.00000  Uiso   1.00
H986   H     0.02598   0.80245   0.59800   0.00000  Uiso   1.00
H987   H     0.30081   0.97126   0.40207   0.00000  Uiso   1.00
H988   H     0.19917   0.52883   0.59796   0.00000  Uiso   1.00
H989   H     0.22098   0.55074   0.90202   0.00000  Uiso   1.00
H990   H     0.27893   0.94928   0.09795   0.00000  Uiso   1.00
H991   H     0.45021   0.71920   0.90198   0.00000  Uiso   1.00
H992   H     0.04984   0.78077   0.09801   0.00000  Uiso   1.00
H993   H     0.27905   0.94933   0.90203   0.00000  Uiso   1.00
H994   H     0.22093   0.55073   0.09797   0.00000  Uiso   1.00
H995   H     0.04981   0.78082   0.90209   0.00000  Uiso   1.00
H996   H     0.45025   0.71913   0.09790   0.00000  Uiso   1.00
Zn997  Zn    0.70659   0.50000   0.21735   0.00000  Uiso   1.00
Zn998  Zn    0.79340   0.50000   0.78265   0.00000  Uiso   1.00
Zn999  Zn    0.50000   0.70660   0.21735   0.00000  Uiso   1.00
Zn1000 Zn    0.50000   0.79341   0.78265   0.00000  Uiso   1.00
Zn1001 Zn    0.79340   0.50000   0.21735   0.00000  Uiso   1.00
Zn1002 Zn    0.70659   0.50000   0.78265   0.00000  Uiso   1.00
Zn1003 Zn    0.50000   0.79341   0.21735   0.00000  Uiso   1.00
Zn1004 Zn    0.50000   0.70660   0.78265   0.00000  Uiso   1.00
Zn1005 Zn    0.95659   0.75000   0.71735   0.00000  Uiso   1.00
Zn1006 Zn    0.54340   0.75000   0.28265   0.00000  Uiso   1.00
Zn1007 Zn    0.75000   0.95660   0.71735   0.00000  Uiso   1.00
Zn1008 Zn    0.75000   0.54341   0.28265   0.00000  Uiso   1.00
Zn1009 Zn    0.54340   0.75000   0.71735   0.00000  Uiso   1.00
Zn1010 Zn    0.95659   0.75000   0.28265   0.00000  Uiso   1.00
Zn1011 Zn    0.75000   0.54341   0.71735   0.00000  Uiso   1.00
Zn1012 Zn    0.75000   0.95660   0.28265   0.00000  Uiso   1.00
C1013  C     0.51490   0.77959   0.41824   0.00000  Uiso   1.00
C1014  C     0.98516   0.72034   0.58177   0.00000  Uiso   1.00
C1015  C     0.72131   0.51650   0.41820   0.00000  Uiso   1.00
C1016  C     0.77864   0.98354   0.58181   0.00000  Uiso   1.00
C1017  C     0.98522   0.72032   0.41818   0.00000  Uiso   1.00
C1018  C     0.51483   0.77962   0.58182   0.00000  Uiso   1.00
C1019  C     0.77867   0.98362   0.41823   0.00000  Uiso   1.00
C1020  C     0.72130   0.51645   0.58180   0.00000  Uiso   1.00
C1021  C     0.73344   0.52865   0.91819   0.00000  Uiso   1.00
C1022  C     0.76649   0.97138   0.08179   0.00000  Uiso   1.00
C1023  C     0.97192   0.73243   0.91817   0.00000  Uiso   1.00
C1024  C     0.52813   0.76753   0.08183   0.00000  Uiso   1.00
C1025  C     0.76658   0.97142   0.91820   0.00000  Uiso   1.00
C1026  C     0.73339   0.52864   0.08180   0.00000  Uiso   1.00
C1027  C     0.52811   0.76758   0.91823   0.00000  Uiso   1.00
C1028  C     0.97195   0.73237   0.08176   0.00000  Uiso   1.00
C1029  C     0.50005   0.74996   0.39807   0.00000  Uiso   1.00
C1030  C     0.99998   0.74999   0.60193   0.00000  Uiso   1.00
C1031  C     0.74998   0.50004   0.39809   0.00000  Uiso   1.00
C1032  C     0.74997   0.99998   0.60193   0.00000  Uiso   1.00
C1033  C     0.75002   0.50004   0.89807   0.00000  Uiso   1.00
C1034  C     0.74995   0.50002   0.10192   0.00000  Uiso   1.00
C1035  C     0.50000   0.75002   0.89808   0.00000  Uiso   1.00
C1036  C     0.50003   0.74996   0.10192   0.00000  Uiso   1.00
O1037  O     0.75000   0.50000   0.25000   0.00000  Uiso   1.00
O1038  O     0.75000   0.50000   0.75000   0.00000  Uiso   1.00
O1039  O     0.50000   0.75000   0.25000   0.00000  Uiso   1.00
O1040  O     0.50000   0.75000   0.75000   0.00000  Uiso   1.00
O1041  O     0.75000   0.96964   0.33755   0.00000  Uiso   1.00
O1042  O     0.75000   0.53037   0.66245   0.00000  Uiso   1.00
O1043  O     0.53036   0.75000   0.33755   0.00000  Uiso   1.00
O1044  O     0.96963   0.75000   0.66245   0.00000  Uiso   1.00
O1045  O     0.75000   0.53037   0.33755   0.00000  Uiso   1.00
O1046  O     0.75000   0.96964   0.66245   0.00000  Uiso   1.00
O1047  O     0.96963   0.75000   0.33755   0.00000  Uiso   1.00
O1048  O     0.53036   0.75000   0.66245   0.00000  Uiso   1.00
O1049  O     0.50000   0.71964   0.83755   0.00000  Uiso   1.00
O1050  O     0.50000   0.78037   0.16245   0.00000  Uiso   1.00
O1051  O     0.78036   0.50000   0.83755   0.00000  Uiso   1.00
O1052  O     0.71963   0.50000   0.16245   0.00000  Uiso   1.00
O1053  O     0.50000   0.78037   0.83755   0.00000  Uiso   1.00
O1054  O     0.50000   0.71964   0.16245   0.00000  Uiso   1.00
O1055  O     0.71963   0.50000   0.83755   0.00000  Uiso   1.00
O1056  O     0.78036   0.50000   0.16245   0.00000  Uiso   1.00
O1057  O     0.70724   0.57308   0.27302   0.00000  Uiso   1.00
O1058  O     0.79275   0.92693   0.72698   0.00000  Uiso   1.00
O1059  O     0.92692   0.70725   0.27302   0.00000  Uiso   1.00
O1060  O     0.57307   0.79276   0.72698   0.00000  Uiso   1.00
O1061  O     0.79275   0.92693   0.27302   0.00000  Uiso   1.00
O1062  O     0.70724   0.57308   0.72698   0.00000  Uiso   1.00
O1063  O     0.57307   0.79276   0.27302   0.00000  Uiso   1.00
O1064  O     0.92692   0.70725   0.72698   0.00000  Uiso   1.00
O1065  O     0.70724   0.92693   0.72698   0.00000  Uiso   1.00
O1066  O     0.79275   0.57308   0.27302   0.00000  Uiso   1.00
O1067  O     0.92692   0.79276   0.72698   0.00000  Uiso   1.00
O1068  O     0.57307   0.70725   0.27302   0.00000  Uiso   1.00
O1069  O     0.79275   0.57308   0.72698   0.00000  Uiso   1.00
O1070  O     0.70724   0.92693   0.27302   0.00000  Uiso   1.00
O1071  O     0.57307   0.70725   0.72698   0.00000  Uiso   1.00
O1072  O     0.92692   0.79276   0.27302   0.00000  Uiso   1.00
O1073  O     0.95724   0.82308   0.77302   0.00000  Uiso   1.00
O1074  O     0.54275   0.67693   0.22698   0.00000  Uiso   1.00
O1075  O     0.67692   0.95725   0.77302   0.00000  Uiso   1.00
O1076  O     0.82307   0.54276   0.22698   0.00000  Uiso   1.00
O1077  O     0.54275   0.67693   0.77302   0.00000  Uiso   1.00
O1078  O     0.95724   0.82308   0.22698   0.00000  Uiso   1.00
O1079  O     0.82307   0.54276   0.77302   0.00000  Uiso   1.00
O1080  O     0.67692   0.95725   0.22698   0.00000  Uiso   1.00
O1081  O     0.95724   0.67693   0.22698   0.00000  Uiso   1.00
O1082  O     0.54275   0.82308   0.77302   0.00000  Uiso   1.00
O1083  O     0.67692   0.54276   0.22698   0.00000  Uiso   1.00
O1084  O     0.82307   0.95725   0.77302   0.00000  Uiso   1.00
O1085  O     0.54275   0.82308   0.22698   0.00000  Uiso   1.00
O1086  O     0.95724   0.67693   0.77302   0.00000  Uiso   1.00
O1087  O     0.82307   0.95725   0.22698   0.00000  Uiso   1.00
O1088  O     0.67692   0.54276   0.77302   0.00000  Uiso   1.00
C1089  C     0.97140   0.68999   0.47954   0.00000  Uiso   1.00
C1090  C     0.52869   0.80992   0.52047   0.00000  Uiso   1.00
C1091  C     0.80808   0.96818   0.47963   0.00000  Uiso   1.00
C1092  C     0.69190   0.53193   0.52039   0.00000  Uiso   1.00
C1093  C     0.52871   0.80991   0.47966   0.00000  Uiso   1.00
C1094  C     0.97139   0.69000   0.52035   0.00000  Uiso   1.00
C1095  C     0.69190   0.53194   0.47958   0.00000  Uiso   1.00
C1096  C     0.80807   0.96815   0.52044   0.00000  Uiso   1.00
C1097  C     0.78207   0.94204   0.97958   0.00000  Uiso   1.00
C1098  C     0.71784   0.55800   0.02040   0.00000  Uiso   1.00
C1099  C     0.55701   0.78413   0.97965   0.00000  Uiso   1.00
C1100  C     0.94307   0.71578   0.02035   0.00000  Uiso   1.00
C1101  C     0.71786   0.55801   0.97959   0.00000  Uiso   1.00
C1102  C     0.78204   0.94202   0.02039   0.00000  Uiso   1.00
C1103  C     0.94306   0.71581   0.97952   0.00000  Uiso   1.00
C1104  C     0.55702   0.78411   0.02047   0.00000  Uiso   1.00
C1105  C     0.74998   0.50001   0.35579   0.00000  Uiso   1.00
C1106  C     0.74999   0.99999   0.64421   0.00000  Uiso   1.00
C1107  C     0.50001   0.74998   0.35579   0.00000  Uiso   1.00
C1108  C     0.99999   0.74999   0.64422   0.00000  Uiso   1.00
C1109  C     0.50000   0.75001   0.85578   0.00000  Uiso   1.00
C1110  C     0.50001   0.74999   0.14422   0.00000  Uiso   1.00
C1111  C     0.75001   0.50002   0.85579   0.00000  Uiso   1.00
C1112  C     0.74998   0.50002   0.14421   0.00000  Uiso   1.00
C1113  C     0.68011   0.57018   0.24985   0.00000  Uiso   1.00
C1114  C     0.82026   0.93017   0.74977   0.00000  Uiso   1.00
C1115  C     0.93008   0.67987   0.25010   0.00000  Uiso   1.00
C1116  C     0.56995   0.82009   0.74994   0.00000  Uiso   1.00
C1117  C     0.82010   0.93001   0.25015   0.00000  Uiso   1.00
C1118  C     0.67993   0.57001   0.74996   0.00000  Uiso   1.00
C1119  C     0.57003   0.82003   0.24998   0.00000  Uiso   1.00
C1120  C     0.93001   0.67994   0.74995   0.00000  Uiso   1.00
C1121  C     0.67995   0.92998   0.74996   0.00000  Uiso   1.00
C1122  C     0.82003   0.57003   0.25002   0.00000  Uiso   1.00
C1123  C     0.92987   0.81998   0.75008   0.00000  Uiso   1.00
C1124  C     0.56988   0.67978   0.25017   0.00000  Uiso   1.00
C1125  C     0.82009   0.56997   0.74993   0.00000  Uiso   1.00
C1126  C     0.67997   0.92998   0.25001   0.00000  Uiso   1.00
C1127  C     0.56999   0.67991   0.74995   0.00000  Uiso   1.00
C1128  C     0.92997   0.82006   0.24998   0.00000  Uiso   1.00
C1129  C     0.63234   0.89452   0.21546   0.00000  Uiso   1.00
C1130  C     0.86817   0.60509   0.78424   0.00000  Uiso   1.00
C1131  C     0.60283   0.62952   0.21691   0.00000  Uiso   1.00
C1132  C     0.89787   0.87119   0.78266   0.00000  Uiso   1.00
C1133  C     0.86807   0.60513   0.21572   0.00000  Uiso   1.00
C1134  C     0.63171   0.89512   0.78420   0.00000  Uiso   1.00
C1135  C     0.91082   0.88413   0.23900   0.00000  Uiso   1.00
C1136  C     0.60545   0.63221   0.78442   0.00000  Uiso   1.00
C1137  C     0.63229   0.60550   0.78446   0.00000  Uiso   1.00
C1138  C     0.88414   0.91096   0.23943   0.00000  Uiso   1.00
C1139  C     0.60481   0.86843   0.78416   0.00000  Uiso   1.00
C1140  C     0.89516   0.63163   0.21589   0.00000  Uiso   1.00
C1141  C     0.87182   0.89852   0.78221   0.00000  Uiso   1.00
C1142  C     0.63040   0.60363   0.21626   0.00000  Uiso   1.00
C1143  C     0.89486   0.63201   0.78428   0.00000  Uiso   1.00
C1144  C     0.60542   0.86779   0.21543   0.00000  Uiso   1.00
C1145  C     0.88262   0.64420   0.71512   0.00000  Uiso   1.00
C1146  C     0.61758   0.85559   0.28462   0.00000  Uiso   1.00
C1147  C     0.85295   0.87968   0.71661   0.00000  Uiso   1.00
C1148  C     0.64689   0.62011   0.28332   0.00000  Uiso   1.00
C1149  C     0.61763   0.85547   0.71530   0.00000  Uiso   1.00
C1150  C     0.88268   0.64419   0.28493   0.00000  Uiso   1.00
C1151  C     0.64402   0.61721   0.71517   0.00000  Uiso   1.00
C1152  C     0.83943   0.86610   0.26153   0.00000  Uiso   1.00
C1153  C     0.86610   0.83931   0.26115   0.00000  Uiso   1.00
C1154  C     0.61719   0.64399   0.71515   0.00000  Uiso   1.00
C1155  C     0.85570   0.61748   0.28483   0.00000  Uiso   1.00
C1156  C     0.64458   0.88218   0.71534   0.00000  Uiso   1.00
C1157  C     0.61959   0.64629   0.28377   0.00000  Uiso   1.00
C1158  C     0.87905   0.85231   0.71702   0.00000  Uiso   1.00
C1159  C     0.64433   0.88251   0.28472   0.00000  Uiso   1.00
C1160  C     0.85581   0.61732   0.71512   0.00000  Uiso   1.00
C1161  C     0.98545   0.71988   0.45895   0.00000  Uiso   1.00
C1162  C     0.51464   0.78004   0.54105   0.00000  Uiso   1.00
C1163  C     0.77910   0.98383   0.45900   0.00000  Uiso   1.00
C1164  C     0.72087   0.51626   0.54102   0.00000  Uiso   1.00
C1165  C     0.51468   0.78002   0.45901   0.00000  Uiso   1.00
C1166  C     0.98541   0.71990   0.54100   0.00000  Uiso   1.00
C1167  C     0.72088   0.51629   0.45898   0.00000  Uiso   1.00
C1168  C     0.77908   0.98378   0.54104   0.00000  Uiso   1.00
C1169  C     0.76634   0.97098   0.95897   0.00000  Uiso   1.00
C1170  C     0.73360   0.52907   0.04102   0.00000  Uiso   1.00
C1171  C     0.52857   0.76736   0.95901   0.00000  Uiso   1.00
C1172  C     0.97150   0.73256   0.04098   0.00000  Uiso   1.00
C1173  C     0.73363   0.52909   0.95898   0.00000  Uiso   1.00
C1174  C     0.76628   0.97095   0.04101   0.00000  Uiso   1.00
C1175  C     0.97148   0.73260   0.95895   0.00000  Uiso   1.00
C1176  C     0.52859   0.76733   0.04105   0.00000  Uiso   1.00
C1177  C     0.59809   0.84813   0.24999   0.00000  Uiso   1.00
C1178  C     0.90211   0.65170   0.74975   0.00000  Uiso   1.00
C1179  C     0.65231   0.59853   0.24967   0.00000  Uiso   1.00
C1180  C     0.84886   0.90262   0.74941   0.00000  Uiso   1.00
C1181  C     0.90233   0.65147   0.25037   0.00000  Uiso   1.00
C1182  C     0.59782   0.84837   0.74978   0.00000  Uiso   1.00
C1183  C     0.84826   0.90205   0.25052   0.00000  Uiso   1.00
C1184  C     0.65176   0.59799   0.74987   0.00000  Uiso   1.00
C1185  C     0.59792   0.65167   0.74984   0.00000  Uiso   1.00
C1186  C     0.90194   0.84815   0.24991   0.00000  Uiso   1.00
C1187  C     0.65177   0.90201   0.74984   0.00000  Uiso   1.00
C1188  C     0.84822   0.59799   0.25016   0.00000  Uiso   1.00
C1189  C     0.90173   0.84798   0.75006   0.00000  Uiso   1.00
C1190  C     0.59756   0.65129   0.25035   0.00000  Uiso   1.00
C1191  C     0.84839   0.59783   0.74977   0.00000  Uiso   1.00
C1192  C     0.65183   0.90197   0.25009   0.00000  Uiso   1.00
C1193  C     0.50006   0.74995   0.47950   0.00000  Uiso   1.00
C1194  C     0.50004   0.74996   0.52051   0.00000  Uiso   1.00
C1195  C     0.74999   0.50005   0.47949   0.00000  Uiso   1.00
C1196  C     0.74998   0.50003   0.52053   0.00000  Uiso   1.00
C1197  C     0.74997   0.50003   0.97948   0.00000  Uiso   1.00
C1198  C     0.74995   0.50002   0.02051   0.00000  Uiso   1.00
C1199  C     0.50003   0.74997   0.97948   0.00000  Uiso   1.00
C1200  C     0.50004   0.74995   0.02051   0.00000  Uiso   1.00
H1201  H     0.96046   0.66662   0.46416   0.00000  Uiso   1.00
H1202  H     0.53963   0.83329   0.53585   0.00000  Uiso   1.00
H1203  H     0.83072   0.95599   0.46422   0.00000  Uiso   1.00
H1204  H     0.66927   0.54413   0.53580   0.00000  Uiso   1.00
H1205  H     0.53966   0.83328   0.46431   0.00000  Uiso   1.00
H1206  H     0.96044   0.66663   0.53569   0.00000  Uiso   1.00
H1207  H     0.66927   0.54415   0.46416   0.00000  Uiso   1.00
H1208  H     0.83070   0.95594   0.53586   0.00000  Uiso   1.00
H1209  H     0.79437   0.91944   0.96417   0.00000  Uiso   1.00
H1210  H     0.70555   0.58060   0.03582   0.00000  Uiso   1.00
H1211  H     0.57921   0.79722   0.96426   0.00000  Uiso   1.00
H1212  H     0.92087   0.70270   0.03573   0.00000  Uiso   1.00
H1213  H     0.70558   0.58061   0.96417   0.00000  Uiso   1.00
H1214  H     0.79431   0.91942   0.03581   0.00000  Uiso   1.00
H1215  H     0.92085   0.70273   0.96409   0.00000  Uiso   1.00
H1216  H     0.57923   0.79719   0.03590   0.00000  Uiso   1.00
N1217  N     0.64126   0.91239   0.17940   0.00000  Uiso   1.00
O1218  O     0.67133   0.90451   0.16130   0.00000  Uiso   1.00
O1219  O     0.61986   0.93733   0.16529   0.00000  Uiso   1.00
N1220  N     0.86016   0.58651   0.82010   0.00000  Uiso   1.00
O1221  O     0.83122   0.59487   0.83996   0.00000  Uiso   1.00
O1222  O     0.88207   0.56159   0.83319   0.00000  Uiso   1.00
N1223  N     0.58118   0.63433   0.18235   0.00000  Uiso   1.00
O1224  O     0.59444   0.65174   0.15236   0.00000  Uiso   1.00
O1225  O     0.55096   0.61611   0.17861   0.00000  Uiso   1.00
N1226  N     0.91980   0.86683   0.81708   0.00000  Uiso   1.00
O1227  O     0.91342   0.84016   0.84107   0.00000  Uiso   1.00
O1228  O     0.94475   0.89076   0.82549   0.00000  Uiso   1.00
N1229  N     0.85977   0.58680   0.17973   0.00000  Uiso   1.00
O1230  O     0.82948   0.59360   0.16152   0.00000  Uiso   1.00
O1231  O     0.88324   0.56469   0.16416   0.00000  Uiso   1.00
N1232  N     0.63971   0.91379   0.82005   0.00000  Uiso   1.00
O1233  O     0.66905   0.90601   0.83955   0.00000  Uiso   1.00
O1234  O     0.61745   0.93825   0.83347   0.00000  Uiso   1.00
N1235  N     0.94730   0.89421   0.22891   0.00000  Uiso   1.00
O1236  O     0.95749   0.89379   0.19249   0.00000  Uiso   1.00
O1237  O     0.96838   0.90885   0.25525   0.00000  Uiso   1.00
N1238  N     0.58745   0.64085   0.82043   0.00000  Uiso   1.00
O1239  O     0.59573   0.67052   0.83918   0.00000  Uiso   1.00
O1240  O     0.56254   0.61923   0.83427   0.00000  Uiso   1.00
N1241  N     0.64097   0.58752   0.82050   0.00000  Uiso   1.00
O1242  O     0.67116   0.59503   0.83862   0.00000  Uiso   1.00
O1243  O     0.61884   0.56340   0.83502   0.00000  Uiso   1.00
N1244  N     0.89419   0.94753   0.22970   0.00000  Uiso   1.00
O1245  O     0.89914   0.95665   0.19324   0.00000  Uiso   1.00
O1246  O     0.90105   0.97097   0.25744   0.00000  Uiso   1.00
N1247  N     0.58605   0.86057   0.81994   0.00000  Uiso   1.00
O1248  O     0.59516   0.83239   0.84069   0.00000  Uiso   1.00
O1249  O     0.56022   0.88190   0.83206   0.00000  Uiso   1.00
N1250  N     0.91380   0.63969   0.18009   0.00000  Uiso   1.00
O1251  O     0.90279   0.66636   0.15804   0.00000  Uiso   1.00
O1252  O     0.94154   0.62017   0.16939   0.00000  Uiso   1.00
N1253  N     0.86841   0.92135   0.81603   0.00000  Uiso   1.00
O1254  O     0.85052   0.90986   0.84642   0.00000  Uiso   1.00
O1255  O     0.88735   0.95123   0.81841   0.00000  Uiso   1.00
N1256  N     0.63658   0.58338   0.18088   0.00000  Uiso   1.00
O1257  O     0.66680   0.58802   0.16120   0.00000  Uiso   1.00
O1258  O     0.61139   0.56138   0.16763   0.00000  Uiso   1.00
N1259  N     0.91303   0.64056   0.82027   0.00000  Uiso   1.00
O1260  O     0.90391   0.66941   0.83995   0.00000  Uiso   1.00
O1261  O     0.93828   0.61921   0.83367   0.00000  Uiso   1.00
N1262  N     0.58693   0.85956   0.17949   0.00000  Uiso   1.00
O1263  O     0.59283   0.82881   0.16169   0.00000  Uiso   1.00
O1264  O     0.56414   0.88282   0.16456   0.00000  Uiso   1.00
N1265  N     0.89132   0.66228   0.67914   0.00000  Uiso   1.00
O1266  O     0.92228   0.65622   0.66199   0.00000  Uiso   1.00
O1267  O     0.86884   0.68572   0.66416   0.00000  Uiso   1.00
N1268  N     0.60864   0.83770   0.32063   0.00000  Uiso   1.00
O1269  O     0.57839   0.84529   0.33853   0.00000  Uiso   1.00
O1270  O     0.62996   0.81269   0.33465   0.00000  Uiso   1.00
N1271  N     0.83217   0.88534   0.68148   0.00000  Uiso   1.00
O1272  O     0.83693   0.91457   0.66068   0.00000  Uiso   1.00
O1273  O     0.80918   0.86069   0.66973   0.00000  Uiso   1.00
N1274  N     0.66739   0.61393   0.31843   0.00000  Uiso   1.00
O1275  O     0.65860   0.58748   0.34198   0.00000  Uiso   1.00
O1276  O     0.69521   0.63455   0.32641   0.00000  Uiso   1.00
N1277  N     0.60889   0.83738   0.67931   0.00000  Uiso   1.00
O1278  O     0.57860   0.84461   0.66131   0.00000  Uiso   1.00
O1279  O     0.63097   0.81332   0.66476   0.00000  Uiso   1.00
N1280  N     0.89154   0.66218   0.32096   0.00000  Uiso   1.00
O1281  O     0.92263   0.65619   0.33789   0.00000  Uiso   1.00
O1282  O     0.86897   0.68532   0.33632   0.00000  Uiso   1.00
N1283  N     0.66151   0.60793   0.67903   0.00000  Uiso   1.00
O1284  O     0.65391   0.57732   0.66174   0.00000  Uiso   1.00
O1285  O     0.68555   0.62973   0.66382   0.00000  Uiso   1.00
N1286  N     0.80311   0.85612   0.27234   0.00000  Uiso   1.00
O1287  O     0.79354   0.85691   0.30897   0.00000  Uiso   1.00
O1288  O     0.78185   0.84067   0.24679   0.00000  Uiso   1.00
N1289  N     0.85617   0.80288   0.27163   0.00000  Uiso   1.00
O1290  O     0.85455   0.79358   0.30827   0.00000  Uiso   1.00
O1291  O     0.84416   0.78062   0.24491   0.00000  Uiso   1.00
N1292  N     0.60798   0.66153   0.67901   0.00000  Uiso   1.00
O1293  O     0.57706   0.65457   0.66208   0.00000  Uiso   1.00
O1294  O     0.63022   0.68491   0.66334   0.00000  Uiso   1.00
N1295  N     0.83764   0.60869   0.32080   0.00000  Uiso   1.00
O1296  O     0.84398   0.57782   0.33805   0.00000  Uiso   1.00
O1297  O     0.81341   0.63065   0.33518   0.00000  Uiso   1.00
N1298  N     0.66292   0.89057   0.67944   0.00000  Uiso   1.00
O1299  O     0.65594   0.92078   0.66117   0.00000  Uiso   1.00
O1300  O     0.68696   0.86827   0.66531   0.00000  Uiso   1.00
N1301  N     0.61314   0.66625   0.31918   0.00000  Uiso   1.00
O1302  O     0.58322   0.66106   0.33884   0.00000  Uiso   1.00
O1303  O     0.63778   0.68860   0.33257   0.00000  Uiso   1.00
N1304  N     0.88363   0.83046   0.68270   0.00000  Uiso   1.00
O1305  O     0.90857   0.83871   0.65720   0.00000  Uiso   1.00
O1306  O     0.86267   0.80243   0.67667   0.00000  Uiso   1.00
N1307  N     0.66229   0.89134   0.32079   0.00000  Uiso   1.00
O1308  O     0.65694   0.92276   0.33730   0.00000  Uiso   1.00
O1309  O     0.68441   0.86816   0.33687   0.00000  Uiso   1.00
N1310  N     0.83794   0.60830   0.67908   0.00000  Uiso   1.00
O1311  O     0.84484   0.57760   0.66172   0.00000  Uiso   1.00
O1312  O     0.81391   0.63022   0.66427   0.00000  Uiso   1.00
H1313  H     0.52606   0.80242   0.40211   0.00000  Uiso   1.00
H1314  H     0.97401   0.69752   0.59790   0.00000  Uiso   1.00
H1315  H     0.69918   0.52887   0.40201   0.00000  Uiso   1.00
H1316  H     0.80077   0.97115   0.59799   0.00000  Uiso   1.00
H1317  H     0.97406   0.69750   0.40200   0.00000  Uiso   1.00
H1318  H     0.52598   0.80245   0.59800   0.00000  Uiso   1.00
H1319  H     0.80081   0.97126   0.40207   0.00000  Uiso   1.00
H1320  H     0.69917   0.52883   0.59796   0.00000  Uiso   1.00
H1321  H     0.72098   0.55074   0.90202   0.00000  Uiso   1.00
H1322  H     0.77893   0.94928   0.09795   0.00000  Uiso   1.00
H1323  H     0.95021   0.71920   0.90198   0.00000  Uiso   1.00
H1324  H     0.54984   0.78077   0.09801   0.00000  Uiso   1.00
H1325  H     0.77905   0.94933   0.90203   0.00000  Uiso   1.00
H1326  H     0.72093   0.55073   0.09797   0.00000  Uiso   1.00
H1327  H     0.54981   0.78082   0.90209   0.00000  Uiso   1.00
H1328  H     0.95025   0.71913   0.09790   0.00000  Uiso   1.00
loop_
_geom_bond_atom_site_label_1
_geom_bond_atom_site_label_2
_geom_bond_distance
_geom_bond_site_symmetry_2
_ccdc_geom_bond_type
Zn1    O87     1.944   .     S
Zn1    O56     1.938   .     S
Zn1    O41     1.948   .     S
Zn1    O748    1.940   1_545 S
Zn2    O55     1.938   .     S
Zn2    O83     1.940   .     S
Zn2    O42     1.948   .     S
Zn2    O752    1.944   1_545 S
Zn3    O417    1.940   1_455 S
Zn3    O58     1.938   .     S
Zn3    O43     1.947   .     S
Zn3    O78     1.944   .     S
Zn4    O44     1.947   .     S
Zn4    O409    1.944   1_455 S
Zn4    O57     1.938   .     S
Zn4    O86     1.940   .     S
Zn5    O60     1.937   .     S
Zn5    O80     1.939   .     S
Zn5    O41     1.949   .     S
Zn5    O755    1.944   1_545 S
Zn6    O92     1.944   .     S
Zn6    O59     1.937   .     S
Zn6    O42     1.949   .     S
Zn6    O743    1.939   1_545 S
Zn7    O43     1.948   .     S
Zn7    O54     1.937   .     S
Zn7    O414    1.945   1_455 S
Zn7    O89     1.939   .     S
Zn8    O81     1.945   .     S
Zn8    O44     1.948   .     S
Zn8    O53     1.937   .     S
Zn8    O422    1.939   1_455 S
Zn9    O48     1.938   .     S
Zn9    O71     1.944   .     S
Zn9    O376    1.948   .     S
Zn9    O68     1.940   .     S
Zn10   O47     1.938   .     S
Zn10   O72     1.944   .     S
Zn10   O67     1.940   .     S
Zn10   O43     1.948   .     S
Zn11   O62     1.944   .     S
Zn11   O706    1.947   .     S
Zn11   O69     1.940   .     S
Zn11   O50     1.938   .     S
Zn12   O49     1.938   .     S
Zn12   O70     1.940   .     S
Zn12   O61     1.944   .     S
Zn12   O41     1.947   .     S
Zn13   O75     1.944   .     S
Zn13   O52     1.937   .     S
Zn13   O64     1.939   .     S
Zn13   O44     1.949   .     S
Zn14   O76     1.944   .     S
Zn14   O375    1.949   .     S
Zn14   O51     1.937   .     S
Zn14   O63     1.939   .     S
Zn15   O66     1.945   .     S
Zn15   O73     1.939   .     S
Zn15   O46     1.937   .     S
Zn15   O42     1.948   .     S
Zn16   O45     1.937   .     S
Zn16   O65     1.945   .     S
Zn16   O74     1.939   .     S
Zn16   O705    1.948   .     S
C17    H317    1.084   .     S
C17    C33     1.399   .     A
C17    C169    1.394   .     A
C18    C170    1.394   .     A
C18    C34     1.399   .     A
C18    H318    1.084   .     S
C19    C35     1.398   .     A
C19    H319    1.085   .     S
C19    C171    1.395   .     A
C20    H320    1.085   .     S
C20    C36     1.398   .     A
C20    C172    1.394   .     A
C21    C165    1.394   .     A
C21    H321    1.084   .     S
C21    C365    1.399   .     S
C22    C166    1.394   .     A
C22    H322    1.084   .     S
C22    C366    1.399   1_455 S
C23    C167    1.394   .     A
C23    H323    1.085   .     S
C23    C699    1.398   .     S
C24    H324    1.085   .     S
C24    C168    1.395   .     A
C24    C700    1.398   1_545 S
C25    C177    1.395   .     A
C25    H325    1.085   .     S
C25    C37     1.398   .     A
C26    H326    1.085   .     S
C26    C178    1.394   .     A
C26    C702    1.398   .     S
C27    C179    1.394   .     A
C27    H327    1.085   .     S
C27    C371    1.398   .     S
C28    C40     1.399   .     A
C28    C180    1.394   .     A
C28    H328    1.085   .     S
C29    H329    1.085   .     S
C29    C173    1.394   .     A
C29    C701    1.398   .     S
C30    C38     1.398   .     A
C30    C174    1.395   .     A
C30    H330    1.085   .     S
C31    H331    1.085   .     S
C31    C175    1.394   .     A
C31    C39     1.398   .     A
C32    H332    1.085   .     S
C32    C176    1.394   .     A
C32    C372    1.398   .     S
C33    C111    1.446   .     S
C33    C353    1.399   1_455 S
C34    C112    1.446   .     S
C34    C354    1.399   .     S
C35    C109    1.446   .     S
C35    C687    1.398   1_545 S
C36    C110    1.446   .     S
C36    C688    1.398   .     S
C37    C115    1.446   .     S
C37    C693    1.398   1_545 S
C38    C116    1.446   .     S
C38    C690    1.398   1_545 S
C39    C113    1.446   .     S
C39    C359    1.398   1_455 S
C40    C114    1.446   .     S
C40    C364    1.398   1_455 S
O41    Zn680   1.948   1_545 S
O42    Zn675   1.947   1_545 S
O43    Zn346   1.949   1_455 S
O44    Zn341   1.948   1_455 S
O45    C773    1.279   .     S
O46    C774    1.279   1_545 S
O47    C111    1.279   .     A
O48    C112    1.279   .     A
O49    C109    1.279   .     A
O50    C110    1.279   .     A
O51    C443    1.279   .     S
O52    C444    1.279   1_455 S
O53    C113    1.278   .     S
O54    C114    1.279   .     S
O55    C115    1.279   .     A
O56    C116    1.279   .     A
O57    C113    1.279   .     S
O58    C114    1.279   .     S
O59    C115    1.279   .     A
O60    C116    1.279   .     A
O61    C117    1.278   .     A
O62    C118    1.282   .     A
O63    C119    1.281   .     A
O64    C120    1.280   .     A
O65    C121    1.279   .     A
O66    C122    1.281   .     A
O67    C123    1.280   .     A
O68    C124    1.280   .     A
O69    C125    1.281   .     A
O70    C126    1.280   .     A
O71    C127    1.279   .     A
O72    C128    1.281   .     A
O73    C129    1.281   .     A
O74    C130    1.280   .     A
O75    C131    1.281   .     A
O76    C132    1.281   .     A
O77    C127    1.281   .     A
O77    Zn336   1.944   .     S
O78    C128    1.278   .     A
O79    C125    1.280   .     A
O79    Zn670   1.939   .     S
O80    C126    1.280   .     A
O81    C131    1.280   .     A
O82    C132    1.280   .     A
O82    Zn339   1.945   .     S
O83    C129    1.280   .     A
O84    C130    1.280   .     A
O84    Zn665   1.940   .     S
O85    Zn335   1.940   .     S
O85    C119    1.279   .     A
O86    C120    1.280   .     A
O87    C117    1.281   .     A
O88    C118    1.278   .     A
O88    Zn666   1.944   .     S
O89    C123    1.280   .     A
O90    C124    1.280   .     A
O90    Zn340   1.939   .     S
O91    C121    1.282   .     A
O91    Zn669   1.944   .     S
O92    C122    1.280   .     A
C93    H205    1.084   .     S
C93    C165    1.403   .     A
C93    C98     1.395   .     A
C94    C97     1.395   .     A
C94    H206    1.084   .     S
C94    C166    1.403   .     A
C95    C167    1.403   .     A
C95    H207    1.084   .     S
C95    C100    1.395   .     A
C96    H208    1.084   .     S
C96    C99     1.396   .     A
C96    C168    1.403   .     A
C97    H209    1.084   .     S
C97    C169    1.403   .     A
C98    C170    1.403   .     A
C98    H210    1.084   .     S
C99    H211    1.084   .     S
C99    C171    1.403   .     A
C100   C172    1.403   .     A
C100   H212    1.084   .     S
C101   H213    1.084   .     S
C101   C173    1.402   .     A
C101   C106    1.395   1_556 S
C102   H214    1.084   .     S
C102   C174    1.403   .     A
C102   C105    1.396   1_554 S
C103   C175    1.403   .     A
C103   H215    1.083   .     S
C103   C108    1.396   1_556 S
C104   H216    1.083   .     S
C104   C176    1.403   .     A
C104   C107    1.396   1_554 S
C105   C177    1.402   .     A
C105   H217    1.084   .     S
C105   C102    1.396   1_556 S
C106   C178    1.402   .     A
C106   H218    1.084   .     S
C106   C101    1.395   1_554 S
C107   C179    1.403   .     A
C107   H219    1.083   .     S
C107   C104    1.396   1_556 S
C108   H220    1.083   .     S
C108   C180    1.403   .     A
C108   C103    1.396   1_554 S
C109   O709    1.279   1_545 S
C110   O710    1.279   .     S
C111   O383    1.279   1_455 S
C112   O384    1.279   .     S
C117   C183    1.462   .     S
C118   C184    1.462   .     S
C119   C185    1.458   .     S
C120   C186    1.458   .     S
C121   C187    1.461   .     S
C122   C188    1.462   .     S
C123   C181    1.458   .     S
C124   C182    1.458   .     S
C125   C191    1.458   .     S
C126   C192    1.458   .     S
C127   C193    1.462   .     S
C128   C194    1.462   .     S
C129   C195    1.459   .     S
C130   C196    1.458   .     S
C131   C189    1.462   .     S
C132   C190    1.461   .     S
C133   C196    1.410   .     A
C133   N221    1.435   .     S
C133   C148    1.393   .     A
C134   N224    1.434   .     S
C134   C147    1.392   .     A
C134   C195    1.410   .     A
C135   C146    1.393   .     A
C135   C194    1.409   .     A
C135   N227    1.436   .     S
C136   N230    1.435   .     S
C136   C145    1.390   .     A
C136   C193    1.411   .     A
C137   C192    1.411   .     A
C137   C144    1.392   .     A
C137   N233    1.435   .     S
C138   C143    1.392   .     A
C138   C191    1.411   .     A
C138   N236    1.434   .     S
C139   C142    1.393   .     A
C139   N239    1.434   .     S
C139   C190    1.412   .     A
C140   C141    1.394   .     A
C140   C189    1.410   .     A
C140   N242    1.434   .     S
C141   N245    1.435   .     S
C141   C188    1.411   .     A
C142   C187    1.411   .     A
C142   N248    1.433   .     S
C143   N251    1.435   .     S
C143   C186    1.410   .     A
C144   C185    1.410   .     A
C144   N254    1.434   .     S
C145   C184    1.412   .     A
C145   N257    1.434   .     S
C146   C183    1.411   .     A
C146   N260    1.439   .     S
C147   N263    1.434   .     S
C147   C182    1.410   .     A
C148   C181    1.412   .     A
C148   N266    1.436   .     S
C149   C182    1.411   .     A
C149   N269    1.435   .     S
C149   C164    1.394   .     A
C150   C163    1.394   .     A
C150   C181    1.410   .     A
C150   N272    1.434   .     S
C151   C184    1.411   .     A
C151   C162    1.393   .     A
C151   N275    1.439   .     S
C152   C161    1.393   .     A
C152   C183    1.412   .     A
C152   N278    1.436   .     S
C153   C160    1.393   .     A
C153   C186    1.411   .     A
C153   N281    1.434   .     S
C154   N284    1.435   .     S
C154   C159    1.394   .     A
C154   C185    1.411   .     A
C155   C158    1.396   .     A
C155   C188    1.411   .     A
C155   N287    1.435   .     S
C156   C187    1.411   .     A
C156   N290    1.433   .     S
C156   C157    1.392   .     A
C157   N293    1.433   .     S
C157   C190    1.411   .     A
C158   N296    1.435   .     S
C158   C189    1.411   .     A
C159   C192    1.411   .     A
C159   N299    1.435   .     S
C160   C191    1.411   .     A
C160   N302    1.434   .     S
C161   N305    1.436   .     S
C161   C194    1.413   .     A
C162   C193    1.413   .     A
C162   N308    1.432   .     S
C163   C196    1.411   .     A
C163   N311    1.435   .     S
C164   C195    1.411   .     A
C164   N314    1.435   .     S
C165   C529    1.414   .     S
C166   C198    1.414   .     A
C167   C863    1.413   .     S
C168   C200    1.413   .     A
C169   C197    1.414   .     A
C170   C530    1.414   .     S
C171   C199    1.413   .     A
C172   C864    1.413   .     S
C173   C865    1.413   .     S
C174   C202    1.413   .     A
C175   C203    1.414   .     A
C176   C536    1.414   .     S
C177   C201    1.413   .     A
C178   C866    1.413   .     S
C179   C535    1.414   .     S
C180   C204    1.414   .     A
C197   C198    1.402   .     A
C197   C497    1.414   1_455 S
C198   C502    1.414   1_455 S
C199   C200    1.403   .     A
C199   C831    1.413   1_545 S
C200   C836    1.413   1_545 S
C201   C837    1.413   1_545 S
C201   C202    1.403   1_556 S
C202   C842    1.413   1_545 S
C202   C201    1.403   1_554 S
C203   C511    1.414   1_455 S
C203   C204    1.403   1_556 S
C204   C508    1.414   1_455 S
C204   C203    1.403   1_554 S
N221   O222    1.301   .     A
N221   O223    1.303   .     A
N224   O225    1.301   .     A
N224   O226    1.301   .     A
N227   O228    1.303   .     A
N227   O229    1.303   .     A
N230   O232    1.301   .     A
N230   O231    1.300   .     A
N233   O234    1.301   .     A
N233   O235    1.301   .     A
N236   O237    1.301   .     A
N236   O238    1.301   .     A
N239   O240    1.301   .     A
N239   O241    1.303   .     A
N242   O244    1.301   .     A
N242   O243    1.300   .     A
N245   O246    1.300   .     A
N245   O247    1.301   .     A
N248   O250    1.305   .     A
N248   O249    1.304   .     A
N251   O252    1.300   .     A
N251   O253    1.301   .     A
N254   O256    1.302   .     A
N254   O255    1.303   .     A
N257   O258    1.300   .     A
N257   O259    1.302   .     A
N260   O261    1.311   .     A
N260   O262    1.309   .     A
N263   O265    1.301   .     A
N263   O264    1.301   .     A
N266   O268    1.303   .     A
N266   O267    1.302   .     A
N269   O271    1.301   .     A
N269   O270    1.301   .     A
N272   O273    1.301   .     A
N272   O274    1.302   .     A
N275   O276    1.301   .     A
N275   O277    1.301   .     A
N278   O279    1.303   .     A
N278   O280    1.300   .     A
N281   O283    1.301   .     A
N281   O282    1.301   .     A
N284   O285    1.301   .     A
N284   O286    1.301   .     A
N287   O289    1.301   .     A
N287   O288    1.301   .     A
N290   O291    1.302   .     A
N290   O292    1.302   .     A
N293   O294    1.300   .     A
N293   O295    1.302   .     A
N296   O297    1.301   .     A
N296   O298    1.301   .     A
N299   O300    1.301   .     A
N299   O301    1.301   .     A
N302   O304    1.301   .     A
N302   O303    1.301   .     A
N305   O306    1.304   .     A
N305   O307    1.304   .     A
N308   O310    1.302   .     A
N308   O309    1.302   .     A
N311   O313    1.302   .     A
N311   O312    1.301   .     A
N314   O315    1.300   .     A
N314   O316    1.301   .     A
Zn333  O419    1.944   .     S
Zn333  O388    1.938   .     S
Zn333  O373    1.948   .     S
Zn333  O1080   1.940   1_545 S
Zn334  O387    1.938   .     S
Zn334  O415    1.940   .     S
Zn334  O374    1.948   .     S
Zn334  O1084   1.944   1_545 S
Zn335  O390    1.938   .     S
Zn335  O375    1.947   .     S
Zn335  O410    1.944   .     S
Zn336  O376    1.947   .     S
Zn336  O389    1.938   .     S
Zn336  O418    1.940   .     S
Zn337  O392    1.937   .     S
Zn337  O412    1.939   .     S
Zn337  O373    1.949   .     S
Zn337  O1087   1.944   1_545 S
Zn338  O424    1.944   .     S
Zn338  O391    1.937   .     S
Zn338  O374    1.949   .     S
Zn338  O1075   1.939   1_545 S
Zn339  O375    1.948   .     S
Zn339  O386    1.937   .     S
Zn339  O421    1.939   .     S
Zn340  O413    1.945   .     S
Zn340  O376    1.948   .     S
Zn340  O385    1.937   .     S
Zn341  O380    1.938   .     S
Zn341  O403    1.944   .     S
Zn341  O44     1.948   1_655 S
Zn341  O400    1.940   .     S
Zn342  O379    1.938   .     S
Zn342  O404    1.944   .     S
Zn342  O399    1.940   .     S
Zn342  O375    1.948   .     S
Zn343  O394    1.944   .     S
Zn343  O1038   1.947   .     S
Zn343  O401    1.940   .     S
Zn343  O382    1.938   .     S
Zn344  O381    1.938   .     S
Zn344  O402    1.940   .     S
Zn344  O393    1.944   .     S
Zn344  O373    1.947   .     S
Zn345  O407    1.944   .     S
Zn345  O384    1.937   .     S
Zn345  O396    1.939   .     S
Zn345  O376    1.949   .     S
Zn346  O408    1.944   .     S
Zn346  O43     1.949   1_655 S
Zn346  O383    1.937   .     S
Zn346  O395    1.939   .     S
Zn347  O398    1.945   .     S
Zn347  O405    1.939   .     S
Zn347  O378    1.937   .     S
Zn347  O374    1.948   .     S
Zn348  O377    1.937   .     S
Zn348  O397    1.945   .     S
Zn348  O406    1.939   .     S
Zn348  O1037   1.948   .     S
C349   H649    1.084   .     S
C349   C365    1.399   .     A
C349   C501    1.394   .     A
C350   C502    1.394   .     A
C350   C366    1.399   .     A
C350   H650    1.084   .     S
C351   C367    1.398   .     A
C351   H651    1.085   .     S
C351   C503    1.395   .     A
C352   H652    1.085   .     S
C352   C368    1.398   .     A
C352   C504    1.394   .     A
C353   C497    1.394   .     A
C353   H653    1.084   .     S
C353   C33     1.399   1_655 S
C354   C498    1.394   .     A
C354   H654    1.084   .     S
C355   C499    1.394   .     A
C355   H655    1.085   .     S
C355   C1031   1.398   .     S
C356   H656    1.085   .     S
C356   C500    1.395   .     A
C356   C1032   1.398   1_545 S
C357   C509    1.395   .     A
C357   H657    1.085   .     S
C357   C369    1.398   .     A
C358   H658    1.085   .     S
C358   C510    1.394   .     A
C358   C1034   1.398   .     S
C359   C511    1.394   .     A
C359   H659    1.085   .     S
C359   C39     1.398   1_655 S
C360   C372    1.399   .     A
C360   C512    1.394   .     A
C360   H660    1.085   .     S
C361   H661    1.085   .     S
C361   C505    1.394   .     A
C361   C1033   1.398   .     S
C362   C370    1.398   .     A
C362   C506    1.395   .     A
C362   H662    1.085   .     S
C363   H663    1.085   .     S
C363   C507    1.394   .     A
C363   C371    1.398   .     A
C364   H664    1.085   .     S
C364   C508    1.394   .     A
C364   C40     1.398   1_655 S
C365   C443    1.446   .     S
C366   C444    1.446   .     S
C366   C22     1.399   1_655 S
C367   C441    1.446   .     S
C367   C1019   1.398   1_545 S
C368   C442    1.446   .     S
C368   C1020   1.398   .     S
C369   C447    1.446   .     S
C369   C1025   1.398   1_545 S
C370   C448    1.446   .     S
C370   C1022   1.398   1_545 S
C371   C445    1.446   .     S
C372   C446    1.446   .     S
O373   Zn1012  1.948   1_545 S
O374   Zn1007  1.947   1_545 S
O377   C1105   1.279   .     S
O378   C1106   1.279   1_545 S
O379   C443    1.279   .     A
O380   C444    1.279   .     A
O381   C441    1.279   .     A
O382   C442    1.279   .     A
O383   C111    1.279   1_655 S
O385   C445    1.278   .     S
O386   C446    1.279   .     S
O387   C447    1.279   .     A
O388   C448    1.279   .     A
O389   C445    1.279   .     S
O390   C446    1.279   .     S
O391   C447    1.279   .     A
O392   C448    1.279   .     A
O393   C449    1.278   .     A
O394   C450    1.282   .     A
O395   C451    1.281   .     A
O396   C452    1.280   .     A
O397   C453    1.279   .     A
O398   C454    1.281   .     A
O399   C455    1.280   .     A
O400   C456    1.280   .     A
O401   C457    1.281   .     A
O402   C458    1.280   .     A
O403   C459    1.279   .     A
O404   C460    1.281   .     A
O405   C461    1.281   .     A
O406   C462    1.280   .     A
O407   C463    1.281   .     A
O408   C464    1.281   .     A
O409   C459    1.281   .     A
O409   Zn4     1.944   1_655 S
O410   C460    1.278   .     A
O411   C457    1.280   .     A
O411   Zn1002  1.939   .     S
O412   C458    1.280   .     A
O413   C463    1.280   .     A
O414   C464    1.280   .     A
O414   Zn7     1.945   1_655 S
O415   C461    1.280   .     A
O416   C462    1.280   .     A
O416   Zn997   1.940   .     S
O417   Zn3     1.940   1_655 S
O417   C451    1.279   .     A
O418   C452    1.280   .     A
O419   C449    1.281   .     A
O420   C450    1.278   .     A
O420   Zn998   1.944   .     S
O421   C455    1.280   .     A
O422   C456    1.280   .     A
O422   Zn8     1.939   1_655 S
O423   C453    1.282   .     A
O423   Zn1001  1.944   .     S
O424   C454    1.280   .     A
C425   H537    1.084   .     S
C425   C497    1.403   .     A
C425   C430    1.395   .     A
C426   C429    1.395   .     A
C426   H538    1.084   .     S
C426   C498    1.403   .     A
C427   C499    1.403   .     A
C427   H539    1.084   .     S
C427   C432    1.395   .     A
C428   H540    1.084   .     S
C428   C431    1.396   .     A
C428   C500    1.403   .     A
C429   H541    1.084   .     S
C429   C501    1.403   .     A
C430   C502    1.403   .     A
C430   H542    1.084   .     S
C431   H543    1.084   .     S
C431   C503    1.403   .     A
C432   C504    1.403   .     A
C432   H544    1.084   .     S
C433   H545    1.084   .     S
C433   C505    1.402   .     A
C433   C438    1.395   1_556 S
C434   H546    1.084   .     S
C434   C506    1.403   .     A
C434   C437    1.396   1_554 S
C435   C507    1.403   .     A
C435   H547    1.083   .     S
C435   C440    1.396   1_556 S
C436   H548    1.083   .     S
C436   C508    1.403   .     A
C436   C439    1.396   1_554 S
C437   C509    1.402   .     A
C437   H549    1.084   .     S
C437   C434    1.396   1_556 S
C438   C510    1.402   .     A
C438   H550    1.084   .     S
C438   C433    1.395   1_554 S
C439   C511    1.403   .     A
C439   H551    1.083   .     S
C439   C436    1.396   1_556 S
C440   H552    1.083   .     S
C440   C512    1.403   .     A
C440   C435    1.396   1_554 S
C441   O1041   1.279   1_545 S
C442   O1042   1.279   .     S
C444   O52     1.279   1_655 S
C449   C515    1.462   .     S
C450   C516    1.462   .     S
C451   C517    1.458   .     S
C452   C518    1.458   .     S
C453   C519    1.461   .     S
C454   C520    1.462   .     S
C455   C513    1.458   .     S
C456   C514    1.458   .     S
C457   C523    1.458   .     S
C458   C524    1.458   .     S
C459   C525    1.462   .     S
C460   C526    1.462   .     S
C461   C527    1.459   .     S
C462   C528    1.458   .     S
C463   C521    1.462   .     S
C464   C522    1.461   .     S
C465   C528    1.410   .     A
C465   N553    1.435   .     S
C465   C480    1.393   .     A
C466   N556    1.434   .     S
C466   C479    1.392   .     A
C466   C527    1.410   .     A
C467   C478    1.393   .     A
C467   C526    1.409   .     A
C467   N559    1.436   .     S
C468   N562    1.435   .     S
C468   C477    1.390   .     A
C468   C525    1.411   .     A
C469   C524    1.411   .     A
C469   C476    1.392   .     A
C469   N565    1.435   .     S
C470   C475    1.392   .     A
C470   C523    1.411   .     A
C470   N568    1.434   .     S
C471   C474    1.393   .     A
C471   N571    1.434   .     S
C471   C522    1.412   .     A
C472   C473    1.394   .     A
C472   C521    1.410   .     A
C472   N574    1.434   .     S
C473   N577    1.435   .     S
C473   C520    1.411   .     A
C474   C519    1.411   .     A
C474   N580    1.433   .     S
C475   N583    1.435   .     S
C475   C518    1.410   .     A
C476   C517    1.410   .     A
C476   N586    1.434   .     S
C477   C516    1.412   .     A
C477   N589    1.434   .     S
C478   C515    1.411   .     A
C478   N592    1.439   .     S
C479   N595    1.434   .     S
C479   C514    1.410   .     A
C480   C513    1.412   .     A
C480   N598    1.436   .     S
C481   C514    1.411   .     A
C481   N601    1.435   .     S
C481   C496    1.394   .     A
C482   C495    1.394   .     A
C482   C513    1.410   .     A
C482   N604    1.434   .     S
C483   C516    1.411   .     A
C483   C494    1.393   .     A
C483   N607    1.439   .     S
C484   C493    1.393   .     A
C484   C515    1.412   .     A
C484   N610    1.436   .     S
C485   C492    1.393   .     A
C485   C518    1.411   .     A
C485   N613    1.434   .     S
C486   N616    1.435   .     S
C486   C491    1.394   .     A
C486   C517    1.411   .     A
C487   C490    1.396   .     A
C487   C520    1.411   .     A
C487   N619    1.435   .     S
C488   C519    1.411   .     A
C488   N622    1.433   .     S
C488   C489    1.392   .     A
C489   N625    1.433   .     S
C489   C522    1.411   .     A
C490   N628    1.435   .     S
C490   C521    1.411   .     A
C491   C524    1.411   .     A
C491   N631    1.435   .     S
C492   C523    1.411   .     A
C492   N634    1.434   .     S
C493   N637    1.436   .     S
C493   C526    1.413   .     A
C494   C525    1.413   .     A
C494   N640    1.432   .     S
C495   C528    1.411   .     A
C495   N643    1.435   .     S
C496   C527    1.411   .     A
C496   N646    1.435   .     S
C497   C197    1.414   1_655 S
C498   C530    1.414   .     A
C499   C1195   1.413   .     S
C500   C532    1.413   .     A
C501   C529    1.414   .     A
C502   C198    1.414   1_655 S
C503   C531    1.413   .     A
C504   C1196   1.413   .     S
C505   C1197   1.413   .     S
C506   C534    1.413   .     A
C507   C535    1.414   .     A
C508   C204    1.414   1_655 S
C509   C533    1.413   .     A
C510   C1198   1.413   .     S
C511   C203    1.414   1_655 S
C512   C536    1.414   .     A
C529   C530    1.402   .     A
C531   C532    1.403   .     A
C531   C1163   1.413   1_545 S
C532   C1168   1.413   1_545 S
C533   C1169   1.413   1_545 S
C533   C534    1.403   1_556 S
C534   C1174   1.413   1_545 S
C534   C533    1.403   1_554 S
C535   C536    1.403   1_556 S
C536   C535    1.403   1_554 S
N553   O554    1.301   .     A
N553   O555    1.303   .     A
N556   O557    1.301   .     A
N556   O558    1.301   .     A
N559   O560    1.303   .     A
N559   O561    1.303   .     A
N562   O564    1.301   .     A
N562   O563    1.300   .     A
N565   O566    1.301   .     A
N565   O567    1.301   .     A
N568   O569    1.301   .     A
N568   O570    1.301   .     A
N571   O572    1.301   .     A
N571   O573    1.303   .     A
N574   O576    1.301   .     A
N574   O575    1.300   .     A
N577   O578    1.300   .     A
N577   O579    1.301   .     A
N580   O582    1.305   .     A
N580   O581    1.304   .     A
N583   O584    1.300   .     A
N583   O585    1.301   .     A
N586   O588    1.302   .     A
N586   O587    1.303   .     A
N589   O590    1.300   .     A
N589   O591    1.302   .     A
N592   O593    1.311   .     A
N592   O594    1.309   .     A
N595   O597    1.301   .     A
N595   O596    1.301   .     A
N598   O600    1.303   .     A
N598   O599    1.302   .     A
N601   O603    1.301   .     A
N601   O602    1.301   .     A
N604   O605    1.301   .     A
N604   O606    1.302   .     A
N607   O608    1.301   .     A
N607   O609    1.301   .     A
N610   O611    1.303   .     A
N610   O612    1.300   .     A
N613   O615    1.301   .     A
N613   O614    1.301   .     A
N616   O617    1.301   .     A
N616   O618    1.301   .     A
N619   O621    1.301   .     A
N619   O620    1.301   .     A
N622   O623    1.302   .     A
N622   O624    1.302   .     A
N625   O626    1.300   .     A
N625   O627    1.302   .     A
N628   O629    1.301   .     A
N628   O630    1.301   .     A
N631   O632    1.301   .     A
N631   O633    1.301   .     A
N634   O636    1.301   .     A
N634   O635    1.301   .     A
N637   O638    1.304   .     A
N637   O639    1.304   .     A
N640   O642    1.302   .     A
N640   O641    1.302   .     A
N643   O645    1.302   .     A
N643   O644    1.301   .     A
N646   O647    1.300   .     A
N646   O648    1.301   .     A
Zn665  O751    1.944   .     S
Zn665  O720    1.938   .     S
Zn665  O705    1.948   .     S
Zn666  O719    1.938   .     S
Zn666  O747    1.940   .     S
Zn666  O706    1.948   .     S
Zn667  O1081   1.940   1_455 S
Zn667  O722    1.938   .     S
Zn667  O707    1.947   .     S
Zn667  O742    1.944   .     S
Zn668  O708    1.947   .     S
Zn668  O1073   1.944   1_455 S
Zn668  O721    1.938   .     S
Zn668  O750    1.940   .     S
Zn669  O724    1.937   .     S
Zn669  O744    1.939   .     S
Zn669  O705    1.949   .     S
Zn670  O756    1.944   .     S
Zn670  O723    1.937   .     S
Zn670  O706    1.949   .     S
Zn671  O707    1.948   .     S
Zn671  O718    1.937   .     S
Zn671  O1078   1.945   1_455 S
Zn671  O753    1.939   .     S
Zn672  O745    1.945   .     S
Zn672  O708    1.948   .     S
Zn672  O717    1.937   .     S
Zn672  O1086   1.939   1_455 S
Zn673  O712    1.938   .     S
Zn673  O735    1.944   .     S
Zn673  O1040   1.948   .     S
Zn673  O732    1.940   .     S
Zn674  O711    1.938   .     S
Zn674  O736    1.944   .     S
Zn674  O731    1.940   .     S
Zn674  O707    1.948   .     S
Zn675  O726    1.944   .     S
Zn675  O42     1.947   1_565 S
Zn675  O733    1.940   .     S
Zn675  O714    1.938   .     S
Zn676  O713    1.938   .     S
Zn676  O734    1.940   .     S
Zn676  O725    1.944   .     S
Zn676  O705    1.947   .     S
Zn677  O739    1.944   .     S
Zn677  O716    1.937   .     S
Zn677  O728    1.939   .     S
Zn677  O708    1.949   .     S
Zn678  O740    1.944   .     S
Zn678  O1039   1.949   .     S
Zn678  O715    1.937   .     S
Zn678  O727    1.939   .     S
Zn679  O730    1.945   .     S
Zn679  O737    1.939   .     S
Zn679  O710    1.937   .     S
Zn679  O706    1.948   .     S
Zn680  O709    1.937   .     S
Zn680  O729    1.945   .     S
Zn680  O738    1.939   .     S
Zn680  O41     1.948   1_565 S
C681   H981    1.084   .     S
C681   C697    1.399   .     A
C681   C833    1.394   .     A
C682   C834    1.394   .     A
C682   C698    1.399   .     A
C682   H982    1.084   .     S
C683   C699    1.398   .     A
C683   H983    1.085   .     S
C683   C835    1.395   .     A
C684   H984    1.085   .     S
C684   C700    1.398   .     A
C684   C836    1.394   .     A
C685   C829    1.394   .     A
C685   H985    1.084   .     S
C685   C1029   1.399   .     S
C686   C830    1.394   .     A
C686   H986    1.084   .     S
C686   C1030   1.399   1_455 S
C687   C831    1.394   .     A
C687   H987    1.085   .     S
C687   C35     1.398   1_565 S
C688   H988    1.085   .     S
C688   C832    1.395   .     A
C689   C841    1.395   .     A
C689   H989    1.085   .     S
C689   C701    1.398   .     A
C690   H990    1.085   .     S
C690   C842    1.394   .     A
C690   C38     1.398   1_565 S
C691   C843    1.394   .     A
C691   H991    1.085   .     S
C691   C1035   1.398   .     S
C692   C704    1.399   .     A
C692   C844    1.394   .     A
C692   H992    1.085   .     S
C693   H993    1.085   .     S
C693   C837    1.394   .     A
C693   C37     1.398   1_565 S
C694   C702    1.398   .     A
C694   C838    1.395   .     A
C694   H994    1.085   .     S
C695   H995    1.085   .     S
C695   C839    1.394   .     A
C695   C703    1.398   .     A
C696   H996    1.085   .     S
C696   C840    1.394   .     A
C696   C1036   1.398   .     S
C697   C775    1.446   .     S
C697   C1017   1.399   1_455 S
C698   C776    1.446   .     S
C698   C1018   1.399   .     S
C699   C773    1.446   .     S
C700   C774    1.446   .     S
C700   C24     1.398   1_565 S
C701   C779    1.446   .     S
C702   C780    1.446   .     S
C703   C777    1.446   .     S
C703   C1023   1.398   1_455 S
C704   C778    1.446   .     S
C704   C1028   1.398   1_455 S
O707   Zn1010  1.949   1_455 S
O708   Zn1005  1.948   1_455 S
O709   C109    1.279   1_565 S
O711   C775    1.279   .     A
O712   C776    1.279   .     A
O713   C773    1.279   .     A
O714   C774    1.279   .     A
O715   C1107   1.279   .     S
O716   C1108   1.279   1_455 S
O717   C777    1.278   .     S
O718   C778    1.279   .     S
O719   C779    1.279   .     A
O720   C780    1.279   .     A
O721   C777    1.279   .     S
O722   C778    1.279   .     S
O723   C779    1.279   .     A
O724   C780    1.279   .     A
O725   C781    1.278   .     A
O726   C782    1.282   .     A
O727   C783    1.281   .     A
O728   C784    1.280   .     A
O729   C785    1.279   .     A
O730   C786    1.281   .     A
O731   C787    1.280   .     A
O732   C788    1.280   .     A
O733   C789    1.281   .     A
O734   C790    1.280   .     A
O735   C791    1.279   .     A
O736   C792    1.281   .     A
O737   C793    1.281   .     A
O738   C794    1.280   .     A
O739   C795    1.281   .     A
O740   C796    1.281   .     A
O741   C791    1.281   .     A
O741   Zn1000  1.944   .     S
O742   C792    1.278   .     A
O743   C789    1.280   .     A
O743   Zn6     1.939   1_565 S
O744   C790    1.280   .     A
O745   C795    1.280   .     A
O746   C796    1.280   .     A
O746   Zn1003  1.945   .     S
O747   C793    1.280   .     A
O748   C794    1.280   .     A
O748   Zn1     1.940   1_565 S
O749   Zn999   1.940   .     S
O749   C783    1.279   .     A
O750   C784    1.280   .     A
O751   C781    1.281   .     A
O752   C782    1.278   .     A
O752   Zn2     1.944   1_565 S
O753   C787    1.280   .     A
O754   C788    1.280   .     A
O754   Zn1004  1.939   .     S
O755   C785    1.282   .     A
O755   Zn5     1.944   1_565 S
O756   C786    1.280   .     A
C757   H869    1.084   .     S
C757   C829    1.403   .     A
C757   C762    1.395   .     A
C758   C761    1.395   .     A
C758   H870    1.084   .     S
C758   C830    1.403   .     A
C759   C831    1.403   .     A
C759   H871    1.084   .     S
C759   C764    1.395   .     A
C760   H872    1.084   .     S
C760   C763    1.396   .     A
C760   C832    1.403   .     A
C761   H873    1.084   .     S
C761   C833    1.403   .     A
C762   C834    1.403   .     A
C762   H874    1.084   .     S
C763   H875    1.084   .     S
C763   C835    1.403   .     A
C764   C836    1.403   .     A
C764   H876    1.084   .     S
C765   H877    1.084   .     S
C765   C837    1.402   .     A
C765   C770    1.395   1_556 S
C766   H878    1.084   .     S
C766   C838    1.403   .     A
C766   C769    1.396   1_554 S
C767   C839    1.403   .     A
C767   H879    1.083   .     S
C767   C772    1.396   1_556 S
C768   H880    1.083   .     S
C768   C840    1.403   .     A
C768   C771    1.396   1_554 S
C769   C841    1.402   .     A
C769   H881    1.084   .     S
C769   C766    1.396   1_556 S
C770   C842    1.402   .     A
C770   H882    1.084   .     S
C770   C765    1.395   1_554 S
C771   C843    1.403   .     A
C771   H883    1.083   .     S
C771   C768    1.396   1_556 S
C772   H884    1.083   .     S
C772   C844    1.403   .     A
C772   C767    1.396   1_554 S
C774   O46     1.279   1_565 S
C775   O1047   1.279   1_455 S
C776   O1048   1.279   .     S
C781   C847    1.462   .     S
C782   C848    1.462   .     S
C783   C849    1.458   .     S
C784   C850    1.458   .     S
C785   C851    1.461   .     S
C786   C852    1.462   .     S
C787   C845    1.458   .     S
C788   C846    1.458   .     S
C789   C855    1.458   .     S
C790   C856    1.458   .     S
C791   C857    1.462   .     S
C792   C858    1.462   .     S
C793   C859    1.459   .     S
C794   C860    1.458   .     S
C795   C853    1.462   .     S
C796   C854    1.461   .     S
C797   C860    1.410   .     A
C797   N885    1.435   .     S
C797   C812    1.393   .     A
C798   N888    1.434   .     S
C798   C811    1.392   .     A
C798   C859    1.410   .     A
C799   C810    1.393   .     A
C799   C858    1.409   .     A
C799   N891    1.436   .     S
C800   N894    1.435   .     S
C800   C809    1.390   .     A
C800   C857    1.411   .     A
C801   C856    1.411   .     A
C801   C808    1.392   .     A
C801   N897    1.435   .     S
C802   C807    1.392   .     A
C802   C855    1.411   .     A
C802   N900    1.434   .     S
C803   C806    1.393   .     A
C803   N903    1.434   .     S
C803   C854    1.412   .     A
C804   C805    1.394   .     A
C804   C853    1.410   .     A
C804   N906    1.434   .     S
C805   N909    1.435   .     S
C805   C852    1.411   .     A
C806   C851    1.411   .     A
C806   N912    1.433   .     S
C807   N915    1.435   .     S
C807   C850    1.410   .     A
C808   C849    1.410   .     A
C808   N918    1.434   .     S
C809   C848    1.412   .     A
C809   N921    1.434   .     S
C810   C847    1.411   .     A
C810   N924    1.439   .     S
C811   N927    1.434   .     S
C811   C846    1.410   .     A
C812   C845    1.412   .     A
C812   N930    1.436   .     S
C813   C846    1.411   .     A
C813   N933    1.435   .     S
C813   C828    1.394   .     A
C814   C827    1.394   .     A
C814   C845    1.410   .     A
C814   N936    1.434   .     S
C815   C848    1.411   .     A
C815   C826    1.393   .     A
C815   N939    1.439   .     S
C816   C825    1.393   .     A
C816   C847    1.412   .     A
C816   N942    1.436   .     S
C817   C824    1.393   .     A
C817   C850    1.411   .     A
C817   N945    1.434   .     S
C818   N948    1.435   .     S
C818   C823    1.394   .     A
C818   C849    1.411   .     A
C819   C822    1.396   .     A
C819   C852    1.411   .     A
C819   N951    1.435   .     S
C820   C851    1.411   .     A
C820   N954    1.433   .     S
C820   C821    1.392   .     A
C821   N957    1.433   .     S
C821   C854    1.411   .     A
C822   N960    1.435   .     S
C822   C853    1.411   .     A
C823   C856    1.411   .     A
C823   N963    1.435   .     S
C824   C855    1.411   .     A
C824   N966    1.434   .     S
C825   N969    1.436   .     S
C825   C858    1.413   .     A
C826   C857    1.413   .     A
C826   N972    1.432   .     S
C827   C860    1.411   .     A
C827   N975    1.435   .     S
C828   C859    1.411   .     A
C828   N978    1.435   .     S
C829   C1193   1.414   .     S
C830   C862    1.414   .     A
C831   C199    1.413   1_565 S
C832   C864    1.413   .     A
C833   C861    1.414   .     A
C834   C1194   1.414   .     S
C835   C863    1.413   .     A
C836   C200    1.413   1_565 S
C837   C201    1.413   1_565 S
C838   C866    1.413   .     A
C839   C867    1.414   .     A
C840   C1200   1.414   .     S
C841   C865    1.413   .     A
C842   C202    1.413   1_565 S
C843   C1199   1.414   .     S
C844   C868    1.414   .     A
C861   C862    1.402   .     A
C861   C1161   1.414   1_455 S
C862   C1166   1.414   1_455 S
C863   C864    1.403   .     A
C865   C866    1.403   1_556 S
C866   C865    1.403   1_554 S
C867   C1175   1.414   1_455 S
C867   C868    1.403   1_556 S
C868   C1172   1.414   1_455 S
C868   C867    1.403   1_554 S
N885   O886    1.301   .     A
N885   O887    1.303   .     A
N888   O889    1.301   .     A
N888   O890    1.301   .     A
N891   O892    1.303   .     A
N891   O893    1.303   .     A
N894   O896    1.301   .     A
N894   O895    1.300   .     A
N897   O898    1.301   .     A
N897   O899    1.301   .     A
N900   O901    1.301   .     A
N900   O902    1.301   .     A
N903   O904    1.301   .     A
N903   O905    1.303   .     A
N906   O908    1.301   .     A
N906   O907    1.300   .     A
N909   O910    1.300   .     A
N909   O911    1.301   .     A
N912   O914    1.305   .     A
N912   O913    1.304   .     A
N915   O916    1.300   .     A
N915   O917    1.301   .     A
N918   O920    1.302   .     A
N918   O919    1.303   .     A
N921   O922    1.300   .     A
N921   O923    1.302   .     A
N924   O925    1.311   .     A
N924   O926    1.309   .     A
N927   O929    1.301   .     A
N927   O928    1.301   .     A
N930   O932    1.303   .     A
N930   O931    1.302   .     A
N933   O935    1.301   .     A
N933   O934    1.301   .     A
N936   O937    1.301   .     A
N936   O938    1.302   .     A
N939   O940    1.301   .     A
N939   O941    1.301   .     A
N942   O943    1.303   .     A
N942   O944    1.300   .     A
N945   O947    1.301   .     A
N945   O946    1.301   .     A
N948   O949    1.301   .     A
N948   O950    1.301   .     A
N951   O953    1.301   .     A
N951   O952    1.301   .     A
N954   O955    1.302   .     A
N954   O956    1.302   .     A
N957   O958    1.300   .     A
N957   O959    1.302   .     A
N960   O961    1.301   .     A
N960   O962    1.301   .     A
N963   O964    1.301   .     A
N963   O965    1.301   .     A
N966   O968    1.301   .     A
N966   O967    1.301   .     A
N969   O970    1.304   .     A
N969   O971    1.304   .     A
N972   O974    1.302   .     A
N972   O973    1.302   .     A
N975   O977    1.302   .     A
N975   O976    1.301   .     A
N978   O979    1.300   .     A
N978   O980    1.301   .     A
Zn997  O1083   1.944   .     S
Zn997  O1052   1.938   .     S
Zn997  O1037   1.948   .     S
Zn998  O1051   1.938   .     S
Zn998  O1079   1.940   .     S
Zn998  O1038   1.948   .     S
Zn999  O1054   1.938   .     S
Zn999  O1039   1.947   .     S
Zn999  O1074   1.944   .     S
Zn1000 O1040   1.947   .     S
Zn1000 O1053   1.938   .     S
Zn1000 O1082   1.940   .     S
Zn1001 O1056   1.937   .     S
Zn1001 O1076   1.939   .     S
Zn1001 O1037   1.949   .     S
Zn1002 O1088   1.944   .     S
Zn1002 O1055   1.937   .     S
Zn1002 O1038   1.949   .     S
Zn1003 O1039   1.948   .     S
Zn1003 O1050   1.937   .     S
Zn1003 O1085   1.939   .     S
Zn1004 O1077   1.945   .     S
Zn1004 O1040   1.948   .     S
Zn1004 O1049   1.937   .     S
Zn1005 O1044   1.938   .     S
Zn1005 O1067   1.944   .     S
Zn1005 O708    1.948   1_655 S
Zn1005 O1064   1.940   .     S
Zn1006 O1043   1.938   .     S
Zn1006 O1068   1.944   .     S
Zn1006 O1063   1.940   .     S
Zn1006 O1039   1.948   .     S
Zn1007 O1058   1.944   .     S
Zn1007 O374    1.947   1_565 S
Zn1007 O1065   1.940   .     S
Zn1007 O1046   1.938   .     S
Zn1008 O1045   1.938   .     S
Zn1008 O1066   1.940   .     S
Zn1008 O1057   1.944   .     S
Zn1008 O1037   1.947   .     S
Zn1009 O1071   1.944   .     S
Zn1009 O1048   1.937   .     S
Zn1009 O1060   1.939   .     S
Zn1009 O1040   1.949   .     S
Zn1010 O1072   1.944   .     S
Zn1010 O707    1.949   1_655 S
Zn1010 O1047   1.937   .     S
Zn1010 O1059   1.939   .     S
Zn1011 O1062   1.945   .     S
Zn1011 O1069   1.939   .     S
Zn1011 O1042   1.937   .     S
Zn1011 O1038   1.948   .     S
Zn1012 O1041   1.937   .     S
Zn1012 O1061   1.945   .     S
Zn1012 O1070   1.939   .     S
Zn1012 O373    1.948   1_565 S
C1013  H1313   1.084   .     S
C1013  C1029   1.399   .     A
C1013  C1165   1.394   .     A
C1014  C1166   1.394   .     A
C1014  C1030   1.399   .     A
C1014  H1314   1.084   .     S
C1015  C1031   1.398   .     A
C1015  H1315   1.085   .     S
C1015  C1167   1.395   .     A
C1016  H1316   1.085   .     S
C1016  C1032   1.398   .     A
C1016  C1168   1.394   .     A
C1017  C1161   1.394   .     A
C1017  H1317   1.084   .     S
C1017  C697    1.399   1_655 S
C1018  C1162   1.394   .     A
C1018  H1318   1.084   .     S
C1019  C1163   1.394   .     A
C1019  H1319   1.085   .     S
C1019  C367    1.398   1_565 S
C1020  H1320   1.085   .     S
C1020  C1164   1.395   .     A
C1021  C1173   1.395   .     A
C1021  H1321   1.085   .     S
C1021  C1033   1.398   .     A
C1022  H1322   1.085   .     S
C1022  C1174   1.394   .     A
C1022  C370    1.398   1_565 S
C1023  C1175   1.394   .     A
C1023  H1323   1.085   .     S
C1023  C703    1.398   1_655 S
C1024  C1036   1.399   .     A
C1024  C1176   1.394   .     A
C1024  H1324   1.085   .     S
C1025  H1325   1.085   .     S
C1025  C1169   1.394   .     A
C1025  C369    1.398   1_565 S
C1026  C1034   1.398   .     A
C1026  C1170   1.395   .     A
C1026  H1326   1.085   .     S
C1027  H1327   1.085   .     S
C1027  C1171   1.394   .     A
C1027  C1035   1.398   .     A
C1028  H1328   1.085   .     S
C1028  C1172   1.394   .     A
C1028  C704    1.398   1_655 S
C1029  C1107   1.446   .     S
C1030  C1108   1.446   .     S
C1030  C686    1.399   1_655 S
C1031  C1105   1.446   .     S
C1032  C1106   1.446   .     S
C1032  C356    1.398   1_565 S
C1033  C1111   1.446   .     S
C1034  C1112   1.446   .     S
C1035  C1109   1.446   .     S
C1036  C1110   1.446   .     S
O1041  C441    1.279   1_565 S
O1043  C1107   1.279   .     A
O1044  C1108   1.279   .     A
O1045  C1105   1.279   .     A
O1046  C1106   1.279   .     A
O1047  C775    1.279   1_655 S
O1049  C1109   1.278   .     S
O1050  C1110   1.279   .     S
O1051  C1111   1.279   .     A
O1052  C1112   1.279   .     A
O1053  C1109   1.279   .     S
O1054  C1110   1.279   .     S
O1055  C1111   1.279   .     A
O1056  C1112   1.279   .     A
O1057  C1113   1.278   .     A
O1058  C1114   1.282   .     A
O1059  C1115   1.281   .     A
O1060  C1116   1.280   .     A
O1061  C1117   1.279   .     A
O1062  C1118   1.281   .     A
O1063  C1119   1.280   .     A
O1064  C1120   1.280   .     A
O1065  C1121   1.281   .     A
O1066  C1122   1.280   .     A
O1067  C1123   1.279   .     A
O1068  C1124   1.281   .     A
O1069  C1125   1.281   .     A
O1070  C1126   1.280   .     A
O1071  C1127   1.281   .     A
O1072  C1128   1.281   .     A
O1073  C1123   1.281   .     A
O1073  Zn668   1.944   1_655 S
O1074  C1124   1.278   .     A
O1075  C1121   1.280   .     A
O1075  Zn338   1.939   1_565 S
O1076  C1122   1.280   .     A
O1077  C1127   1.280   .     A
O1078  C1128   1.280   .     A
O1078  Zn671   1.945   1_655 S
O1079  C1125   1.280   .     A
O1080  C1126   1.280   .     A
O1080  Zn333   1.940   1_565 S
O1081  Zn667   1.940   1_655 S
O1081  C1115   1.279   .     A
O1082  C1116   1.280   .     A
O1083  C1113   1.281   .     A
O1084  C1114   1.278   .     A
O1084  Zn334   1.944   1_565 S
O1085  C1119   1.280   .     A
O1086  C1120   1.280   .     A
O1086  Zn672   1.939   1_655 S
O1087  C1117   1.282   .     A
O1087  Zn337   1.944   1_565 S
O1088  C1118   1.280   .     A
C1089  H1201   1.084   .     S
C1089  C1161   1.403   .     A
C1089  C1094   1.395   .     A
C1090  C1093   1.395   .     A
C1090  H1202   1.084   .     S
C1090  C1162   1.403   .     A
C1091  C1163   1.403   .     A
C1091  H1203   1.084   .     S
C1091  C1096   1.395   .     A
C1092  H1204   1.084   .     S
C1092  C1095   1.396   .     A
C1092  C1164   1.403   .     A
C1093  H1205   1.084   .     S
C1093  C1165   1.403   .     A
C1094  C1166   1.403   .     A
C1094  H1206   1.084   .     S
C1095  H1207   1.084   .     S
C1095  C1167   1.403   .     A
C1096  C1168   1.403   .     A
C1096  H1208   1.084   .     S
C1097  H1209   1.084   .     S
C1097  C1169   1.402   .     A
C1097  C1102   1.395   1_556 S
C1098  H1210   1.084   .     S
C1098  C1170   1.403   .     A
C1098  C1101   1.396   1_554 S
C1099  C1171   1.403   .     A
C1099  H1211   1.083   .     S
C1099  C1104   1.396   1_556 S
C1100  H1212   1.083   .     S
C1100  C1172   1.403   .     A
C1100  C1103   1.396   1_554 S
C1101  C1173   1.402   .     A
C1101  H1213   1.084   .     S
C1101  C1098   1.396   1_556 S
C1102  C1174   1.402   .     A
C1102  H1214   1.084   .     S
C1102  C1097   1.395   1_554 S
C1103  C1175   1.403   .     A
C1103  H1215   1.083   .     S
C1103  C1100   1.396   1_556 S
C1104  H1216   1.083   .     S
C1104  C1176   1.403   .     A
C1104  C1099   1.396   1_554 S
C1106  O378    1.279   1_565 S
C1108  O716    1.279   1_655 S
C1113  C1179   1.462   .     S
C1114  C1180   1.462   .     S
C1115  C1181   1.458   .     S
C1116  C1182   1.458   .     S
C1117  C1183   1.461   .     S
C1118  C1184   1.462   .     S
C1119  C1177   1.458   .     S
C1120  C1178   1.458   .     S
C1121  C1187   1.458   .     S
C1122  C1188   1.458   .     S
C1123  C1189   1.462   .     S
C1124  C1190   1.462   .     S
C1125  C1191   1.459   .     S
C1126  C1192   1.458   .     S
C1127  C1185   1.462   .     S
C1128  C1186   1.461   .     S
C1129  C1192   1.410   .     A
C1129  N1217   1.435   .     S
C1129  C1144   1.393   .     A
C1130  N1220   1.434   .     S
C1130  C1143   1.392   .     A
C1130  C1191   1.410   .     A
C1131  C1142   1.393   .     A
C1131  C1190   1.409   .     A
C1131  N1223   1.436   .     S
C1132  N1226   1.435   .     S
C1132  C1141   1.390   .     A
C1132  C1189   1.411   .     A
C1133  C1188   1.411   .     A
C1133  C1140   1.392   .     A
C1133  N1229   1.435   .     S
C1134  C1139   1.392   .     A
C1134  C1187   1.411   .     A
C1134  N1232   1.434   .     S
C1135  C1138   1.393   .     A
C1135  N1235   1.434   .     S
C1135  C1186   1.412   .     A
C1136  C1137   1.394   .     A
C1136  C1185   1.410   .     A
C1136  N1238   1.434   .     S
C1137  N1241   1.435   .     S
C1137  C1184   1.411   .     A
C1138  C1183   1.411   .     A
C1138  N1244   1.433   .     S
C1139  N1247   1.435   .     S
C1139  C1182   1.410   .     A
C1140  C1181   1.410   .     A
C1140  N1250   1.434   .     S
C1141  C1180   1.412   .     A
C1141  N1253   1.434   .     S
C1142  C1179   1.411   .     A
C1142  N1256   1.439   .     S
C1143  N1259   1.434   .     S
C1143  C1178   1.410   .     A
C1144  C1177   1.412   .     A
C1144  N1262   1.436   .     S
C1145  C1178   1.411   .     A
C1145  N1265   1.435   .     S
C1145  C1160   1.394   .     A
C1146  C1159   1.394   .     A
C1146  C1177   1.410   .     A
C1146  N1268   1.434   .     S
C1147  C1180   1.411   .     A
C1147  C1158   1.393   .     A
C1147  N1271   1.439   .     S
C1148  C1157   1.393   .     A
C1148  C1179   1.412   .     A
C1148  N1274   1.436   .     S
C1149  C1156   1.393   .     A
C1149  C1182   1.411   .     A
C1149  N1277   1.434   .     S
C1150  N1280   1.435   .     S
C1150  C1155   1.394   .     A
C1150  C1181   1.411   .     A
C1151  C1154   1.396   .     A
C1151  C1184   1.411   .     A
C1151  N1283   1.435   .     S
C1152  C1183   1.411   .     A
C1152  N1286   1.433   .     S
C1152  C1153   1.392   .     A
C1153  N1289   1.433   .     S
C1153  C1186   1.411   .     A
C1154  N1292   1.435   .     S
C1154  C1185   1.411   .     A
C1155  C1188   1.411   .     A
C1155  N1295   1.435   .     S
C1156  C1187   1.411   .     A
C1156  N1298   1.434   .     S
C1157  N1301   1.436   .     S
C1157  C1190   1.413   .     A
C1158  C1189   1.413   .     A
C1158  N1304   1.432   .     S
C1159  C1192   1.411   .     A
C1159  N1307   1.435   .     S
C1160  C1191   1.411   .     A
C1160  N1310   1.435   .     S
C1161  C861    1.414   1_655 S
C1162  C1194   1.414   .     A
C1163  C531    1.413   1_565 S
C1164  C1196   1.413   .     A
C1165  C1193   1.414   .     A
C1166  C862    1.414   1_655 S
C1167  C1195   1.413   .     A
C1168  C532    1.413   1_565 S
C1169  C533    1.413   1_565 S
C1170  C1198   1.413   .     A
C1171  C1199   1.414   .     A
C1172  C868    1.414   1_655 S
C1173  C1197   1.413   .     A
C1174  C534    1.413   1_565 S
C1175  C867    1.414   1_655 S
C1176  C1200   1.414   .     A
C1193  C1194   1.402   .     A
C1195  C1196   1.403   .     A
C1197  C1198   1.403   1_556 S
C1198  C1197   1.403   1_554 S
C1199  C1200   1.403   1_556 S
C1200  C1199   1.403   1_554 S
N1217  O1218   1.301   .     A
N1217  O1219   1.303   .     A
N1220  O1221   1.301   .     A
N1220  O1222   1.301   .     A
N1223  O1224   1.303   .     A
N1223  O1225   1.303   .     A
N1226  O1228   1.301   .     A
N1226  O1227   1.300   .     A
N1229  O1230   1.301   .     A
N1229  O1231   1.301   .     A
N1232  O1233   1.301   .     A
N1232  O1234   1.301   .     A
N1235  O1236   1.301   .     A
N1235  O1237   1.303   .     A
N1238  O1240   1.301   .     A
N1238  O1239   1.300   .     A
N1241  O1242   1.300   .     A
N1241  O1243   1.301   .     A
N1244  O1246   1.305   .     A
N1244  O1245   1.304   .     A
N1247  O1248   1.300   .     A
N1247  O1249   1.301   .     A
N1250  O1252   1.302   .     A
N1250  O1251   1.303   .     A
N1253  O1254   1.300   .     A
N1253  O1255   1.302   .     A
N1256  O1257   1.311   .     A
N1256  O1258   1.309   .     A
N1259  O1261   1.301   .     A
N1259  O1260   1.301   .     A
N1262  O1264   1.303   .     A
N1262  O1263   1.302   .     A
N1265  O1267   1.301   .     A
N1265  O1266   1.301   .     A
N1268  O1269   1.301   .     A
N1268  O1270   1.302   .     A
N1271  O1272   1.301   .     A
N1271  O1273   1.301   .     A
N1274  O1275   1.303   .     A
N1274  O1276   1.300   .     A
N1277  O1279   1.301   .     A
N1277  O1278   1.301   .     A
N1280  O1281   1.301   .     A
N1280  O1282   1.301   .     A
N1283  O1285   1.301   .     A
N1283  O1284   1.301   .     A
N1286  O1287   1.302   .     A
N1286  O1288   1.302   .     A
N1289  O1290   1.300   .     A
N1289  O1291   1.302   .     A
N1292  O1293   1.301   .     A
N1292  O1294   1.301   .     A
N1295  O1296   1.301   .     A
N1295  O1297   1.301   .     A
N1298  O1300   1.301   .     A
N1298  O1299   1.301   .     A
N1301  O1302   1.304   .     A
N1301  O1303   1.304   .     A
N1304  O1306   1.302   .     A
N1304  O1305   1.302   .     A
N1307  O1309   1.302   .     A
N1307  O1308   1.301   .     A
N1310  O1311   1.300   .     A
N1310  O1312   1.301   .     A
