data_str_m3_o10_o17_pcu_sym.201
_audit_creation_date              2020-01-03
_audit_creation_method            'Materials Studio'
_symmetry_space_group_name_H-M    'P1'
_symmetry_Int_Tables_number       1
_symmetry_cell_setting            triclinic
loop_
_symmetry_equiv_pos_as_xyz
  x,y,z
_cell_length_a                    23.2951
_cell_length_b                    25.7364
_cell_length_c                    29.8883
_cell_angle_alpha                 90.3179
_cell_angle_beta                  87.1922
_cell_angle_gamma                 93.0336
loop_
_atom_site_label
_atom_site_type_symbol
_atom_site_fract_x
_atom_site_fract_y
_atom_site_fract_z
_atom_site_U_iso_or_equiv
_atom_site_adp_type
_atom_site_occupancy
C1     C     0.18149   0.26482   0.24893   0.00000  Uiso   1.00
C2     C     0.15184   0.06851   0.25107   0.00000  Uiso   1.00
C3     C     0.22113   0.25154   0.47704   0.00000  Uiso   1.00
C4     C     0.11220   0.08179   0.02296   0.00000  Uiso   1.00
C5     C     0.18706   0.31836   0.24086   0.00000  Uiso   1.00
C6     C     0.14627   0.01498   0.25914   0.00000  Uiso   1.00
C7     C     0.16829   0.16793   0.33644   0.00000  Uiso   1.00
C8     C     0.16505   0.16540   0.16356   0.00000  Uiso   1.00
C9     C     0.12727   0.12919   0.09355   0.00000  Uiso   1.00
C10    C     0.20606   0.20415   0.40646   0.00000  Uiso   1.00
C11    C     0.16267   0.16546   0.11582   0.00000  Uiso   1.00
C12    C     0.17066   0.16787   0.38418   0.00000  Uiso   1.00
C13    C     0.19888   0.20170   0.09271   0.00000  Uiso   1.00
C14    C     0.13446   0.13163   0.40729   0.00000  Uiso   1.00
C15    C     0.19795   0.20515   0.04651   0.00000  Uiso   1.00
C16    C     0.13538   0.12818   0.45349   0.00000  Uiso   1.00
C17    C     0.16633   0.16600   0.02332   0.00000  Uiso   1.00
C18    C     0.16700   0.16733   0.47668   0.00000  Uiso   1.00
C19    C     0.13491   0.12502   0.04687   0.00000  Uiso   1.00
C20    C     0.19842   0.20831   0.45313   0.00000  Uiso   1.00
C21    C     0.22579   0.24775   0.02340   0.00000  Uiso   1.00
C22    C     0.10754   0.08558   0.47660   0.00000  Uiso   1.00
H23    H     0.22480   0.22900   0.11182   0.00000  Uiso   1.00
H24    H     0.10854   0.10434   0.38818   0.00000  Uiso   1.00
H25    H     0.00416   0.12534   0.21880   0.00000  Uiso   1.00
H26    H     0.32918   0.20799   0.28120   0.00000  Uiso   1.00
N27    N     0.31678   0.15265   0.23783   0.00000  Uiso   1.00
N28    N     0.01656   0.18068   0.26217   0.00000  Uiso   1.00
O29    O     0.12975   0.24619   0.25299   0.00000  Uiso   1.00
O30    O     0.20358   0.08714   0.24701   0.00000  Uiso   1.00
O31    O     0.22613   0.23721   0.24519   0.00000  Uiso   1.00
O32    O     0.10720   0.09613   0.25481   0.00000  Uiso   1.00
O33    O     0.11847   0.17117   0.31998   0.00000  Uiso   1.00
O34    O     0.21486   0.16216   0.18003   0.00000  Uiso   1.00
O35    O     0.21485   0.16219   0.31218   0.00000  Uiso   1.00
O36    O     0.11848   0.17115   0.18783   0.00000  Uiso   1.00
Zn37   Zn    0.10231   0.17266   0.25521   0.00000  Uiso   1.00
Zn38   Zn    0.23102   0.16067   0.24479   0.00000  Uiso   1.00
I39    I     0.05303   0.09341   0.12881   0.00000  Uiso   1.00
I40    I     0.28031   0.23992   0.37119   0.00000  Uiso   1.00
I41    I     0.27325   0.30819   0.05768   0.00000  Uiso   1.00
I42    I     0.06008   0.02514   0.44232   0.00000  Uiso   1.00
I43    I     0.22607   0.32820   0.44833   0.00000  Uiso   1.00
I44    I     0.10726   0.00513   0.05167   0.00000  Uiso   1.00
I45    I     0.25032   0.00652   0.18849   0.00000  Uiso   1.00
I46    I     0.08302   0.32682   0.31151   0.00000  Uiso   1.00
C47    C     0.51483   0.26482   0.24893   0.00000  Uiso   1.00
C48    C     0.48517   0.06851   0.25107   0.00000  Uiso   1.00
C49    C     0.55447   0.25154   0.47704   0.00000  Uiso   1.00
C50    C     0.44553   0.08179   0.02296   0.00000  Uiso   1.00
C51    C     0.52040   0.31836   0.24086   0.00000  Uiso   1.00
C52    C     0.47960   0.01498   0.25914   0.00000  Uiso   1.00
C53    C     0.50162   0.16793   0.33644   0.00000  Uiso   1.00
C54    C     0.49838   0.16540   0.16356   0.00000  Uiso   1.00
C55    C     0.46060   0.12919   0.09355   0.00000  Uiso   1.00
C56    C     0.53940   0.20415   0.40646   0.00000  Uiso   1.00
C57    C     0.49601   0.16546   0.11582   0.00000  Uiso   1.00
C58    C     0.50400   0.16787   0.38418   0.00000  Uiso   1.00
C59    C     0.53221   0.20170   0.09271   0.00000  Uiso   1.00
C60    C     0.46779   0.13163   0.40729   0.00000  Uiso   1.00
C61    C     0.53129   0.20515   0.04651   0.00000  Uiso   1.00
C62    C     0.46871   0.12818   0.45349   0.00000  Uiso   1.00
C63    C     0.49967   0.16600   0.02332   0.00000  Uiso   1.00
C64    C     0.50033   0.16733   0.47668   0.00000  Uiso   1.00
C65    C     0.46825   0.12502   0.04687   0.00000  Uiso   1.00
C66    C     0.53176   0.20831   0.45313   0.00000  Uiso   1.00
C67    C     0.55913   0.24775   0.02340   0.00000  Uiso   1.00
C68    C     0.44088   0.08558   0.47660   0.00000  Uiso   1.00
H69    H     0.55813   0.22900   0.11182   0.00000  Uiso   1.00
H70    H     0.44187   0.10434   0.38818   0.00000  Uiso   1.00
H71    H     0.33749   0.12534   0.21880   0.00000  Uiso   1.00
H72    H     0.66251   0.20799   0.28120   0.00000  Uiso   1.00
N73    N     0.65011   0.15265   0.23783   0.00000  Uiso   1.00
N74    N     0.34989   0.18068   0.26217   0.00000  Uiso   1.00
O75    O     0.46308   0.24619   0.25299   0.00000  Uiso   1.00
O76    O     0.53692   0.08714   0.24701   0.00000  Uiso   1.00
O77    O     0.55946   0.23721   0.24519   0.00000  Uiso   1.00
O78    O     0.44054   0.09613   0.25481   0.00000  Uiso   1.00
O79    O     0.45181   0.17117   0.31998   0.00000  Uiso   1.00
O80    O     0.54819   0.16216   0.18003   0.00000  Uiso   1.00
O81    O     0.54819   0.16219   0.31218   0.00000  Uiso   1.00
O82    O     0.45181   0.17115   0.18783   0.00000  Uiso   1.00
Zn83   Zn    0.43565   0.17266   0.25521   0.00000  Uiso   1.00
Zn84   Zn    0.56435   0.16067   0.24479   0.00000  Uiso   1.00
I85    I     0.38636   0.09341   0.12881   0.00000  Uiso   1.00
I86    I     0.61364   0.23992   0.37119   0.00000  Uiso   1.00
I87    I     0.60659   0.30819   0.05768   0.00000  Uiso   1.00
I88    I     0.39341   0.02514   0.44232   0.00000  Uiso   1.00
I89    I     0.55941   0.32820   0.44833   0.00000  Uiso   1.00
I90    I     0.44059   0.00513   0.05167   0.00000  Uiso   1.00
I91    I     0.58365   0.00652   0.18849   0.00000  Uiso   1.00
I92    I     0.41635   0.32682   0.31151   0.00000  Uiso   1.00
C93    C     0.84816   0.26482   0.24893   0.00000  Uiso   1.00
C94    C     0.81851   0.06851   0.25107   0.00000  Uiso   1.00
C95    C     0.88780   0.25154   0.47704   0.00000  Uiso   1.00
C96    C     0.77887   0.08179   0.02296   0.00000  Uiso   1.00
C97    C     0.85373   0.31836   0.24086   0.00000  Uiso   1.00
C98    C     0.81294   0.01498   0.25914   0.00000  Uiso   1.00
C99    C     0.83495   0.16793   0.33644   0.00000  Uiso   1.00
C100   C     0.83171   0.16540   0.16356   0.00000  Uiso   1.00
C101   C     0.79394   0.12919   0.09355   0.00000  Uiso   1.00
C102   C     0.87273   0.20415   0.40646   0.00000  Uiso   1.00
C103   C     0.82934   0.16546   0.11582   0.00000  Uiso   1.00
C104   C     0.83733   0.16787   0.38418   0.00000  Uiso   1.00
C105   C     0.86554   0.20170   0.09271   0.00000  Uiso   1.00
C106   C     0.80112   0.13163   0.40729   0.00000  Uiso   1.00
C107   C     0.86462   0.20515   0.04651   0.00000  Uiso   1.00
C108   C     0.80205   0.12818   0.45349   0.00000  Uiso   1.00
C109   C     0.83300   0.16600   0.02332   0.00000  Uiso   1.00
C110   C     0.83367   0.16733   0.47668   0.00000  Uiso   1.00
C111   C     0.80158   0.12502   0.04687   0.00000  Uiso   1.00
C112   C     0.86509   0.20831   0.45313   0.00000  Uiso   1.00
C113   C     0.89246   0.24775   0.02340   0.00000  Uiso   1.00
C114   C     0.77421   0.08558   0.47660   0.00000  Uiso   1.00
H115   H     0.89146   0.22900   0.11182   0.00000  Uiso   1.00
H116   H     0.77520   0.10434   0.38818   0.00000  Uiso   1.00
H117   H     0.67082   0.12534   0.21880   0.00000  Uiso   1.00
H118   H     0.99584   0.20799   0.28120   0.00000  Uiso   1.00
N119   N     0.98344   0.15265   0.23783   0.00000  Uiso   1.00
N120   N     0.68322   0.18068   0.26217   0.00000  Uiso   1.00
O121   O     0.79642   0.24619   0.25299   0.00000  Uiso   1.00
O122   O     0.87025   0.08714   0.24701   0.00000  Uiso   1.00
O123   O     0.89280   0.23721   0.24519   0.00000  Uiso   1.00
O124   O     0.77387   0.09613   0.25481   0.00000  Uiso   1.00
O125   O     0.78514   0.17117   0.31998   0.00000  Uiso   1.00
O126   O     0.88153   0.16216   0.18003   0.00000  Uiso   1.00
O127   O     0.88152   0.16219   0.31218   0.00000  Uiso   1.00
O128   O     0.78515   0.17115   0.18783   0.00000  Uiso   1.00
Zn129  Zn    0.76898   0.17266   0.25521   0.00000  Uiso   1.00
Zn130  Zn    0.89769   0.16067   0.24479   0.00000  Uiso   1.00
I131   I     0.71969   0.09341   0.12881   0.00000  Uiso   1.00
I132   I     0.94697   0.23992   0.37119   0.00000  Uiso   1.00
I133   I     0.93992   0.30819   0.05768   0.00000  Uiso   1.00
I134   I     0.72675   0.02514   0.44232   0.00000  Uiso   1.00
I135   I     0.89274   0.32820   0.44833   0.00000  Uiso   1.00
I136   I     0.77393   0.00513   0.05167   0.00000  Uiso   1.00
I137   I     0.91698   0.00652   0.18849   0.00000  Uiso   1.00
I138   I     0.74968   0.32682   0.31151   0.00000  Uiso   1.00
C139   C     0.18149   0.59815   0.24893   0.00000  Uiso   1.00
C140   C     0.15184   0.40185   0.25107   0.00000  Uiso   1.00
C141   C     0.22113   0.58487   0.47704   0.00000  Uiso   1.00
C142   C     0.11220   0.41513   0.02296   0.00000  Uiso   1.00
C143   C     0.18706   0.65169   0.24086   0.00000  Uiso   1.00
C144   C     0.14627   0.34831   0.25914   0.00000  Uiso   1.00
C145   C     0.16829   0.50126   0.33644   0.00000  Uiso   1.00
C146   C     0.16505   0.49874   0.16356   0.00000  Uiso   1.00
C147   C     0.12727   0.46252   0.09355   0.00000  Uiso   1.00
C148   C     0.20606   0.53748   0.40646   0.00000  Uiso   1.00
C149   C     0.16267   0.49879   0.11582   0.00000  Uiso   1.00
C150   C     0.17066   0.50121   0.38418   0.00000  Uiso   1.00
C151   C     0.19888   0.53504   0.09271   0.00000  Uiso   1.00
C152   C     0.13446   0.46496   0.40729   0.00000  Uiso   1.00
C153   C     0.19795   0.53849   0.04651   0.00000  Uiso   1.00
C154   C     0.13538   0.46151   0.45349   0.00000  Uiso   1.00
C155   C     0.16633   0.49934   0.02332   0.00000  Uiso   1.00
C156   C     0.16700   0.50066   0.47668   0.00000  Uiso   1.00
C157   C     0.13491   0.45835   0.04687   0.00000  Uiso   1.00
C158   C     0.19842   0.54165   0.45313   0.00000  Uiso   1.00
C159   C     0.22579   0.58108   0.02340   0.00000  Uiso   1.00
C160   C     0.10754   0.41892   0.47660   0.00000  Uiso   1.00
H161   H     0.22480   0.56233   0.11182   0.00000  Uiso   1.00
H162   H     0.10854   0.43767   0.38818   0.00000  Uiso   1.00
H163   H     0.00416   0.45868   0.21880   0.00000  Uiso   1.00
H164   H     0.32918   0.54132   0.28120   0.00000  Uiso   1.00
N165   N     0.31678   0.48598   0.23783   0.00000  Uiso   1.00
N166   N     0.01656   0.51402   0.26217   0.00000  Uiso   1.00
O167   O     0.12975   0.57952   0.25299   0.00000  Uiso   1.00
O168   O     0.20358   0.42048   0.24701   0.00000  Uiso   1.00
O169   O     0.22613   0.57054   0.24519   0.00000  Uiso   1.00
O170   O     0.10720   0.42946   0.25481   0.00000  Uiso   1.00
O171   O     0.11847   0.50450   0.31998   0.00000  Uiso   1.00
O172   O     0.21486   0.49550   0.18003   0.00000  Uiso   1.00
O173   O     0.21485   0.49552   0.31218   0.00000  Uiso   1.00
O174   O     0.11848   0.50448   0.18783   0.00000  Uiso   1.00
Zn175  Zn    0.10231   0.50600   0.25521   0.00000  Uiso   1.00
Zn176  Zn    0.23102   0.49400   0.24479   0.00000  Uiso   1.00
I177   I     0.05303   0.42674   0.12881   0.00000  Uiso   1.00
I178   I     0.28031   0.57326   0.37119   0.00000  Uiso   1.00
I179   I     0.27325   0.64153   0.05768   0.00000  Uiso   1.00
I180   I     0.06008   0.35847   0.44232   0.00000  Uiso   1.00
I181   I     0.22607   0.66154   0.44833   0.00000  Uiso   1.00
I182   I     0.10726   0.33846   0.05167   0.00000  Uiso   1.00
I183   I     0.25032   0.33985   0.18849   0.00000  Uiso   1.00
I184   I     0.08302   0.66015   0.31151   0.00000  Uiso   1.00
C185   C     0.51483   0.59815   0.24893   0.00000  Uiso   1.00
C186   C     0.48517   0.40185   0.25107   0.00000  Uiso   1.00
C187   C     0.55447   0.58487   0.47704   0.00000  Uiso   1.00
C188   C     0.44553   0.41513   0.02296   0.00000  Uiso   1.00
C189   C     0.52040   0.65169   0.24086   0.00000  Uiso   1.00
C190   C     0.47960   0.34831   0.25914   0.00000  Uiso   1.00
C191   C     0.50162   0.50126   0.33644   0.00000  Uiso   1.00
C192   C     0.49838   0.49874   0.16356   0.00000  Uiso   1.00
C193   C     0.46060   0.46252   0.09355   0.00000  Uiso   1.00
C194   C     0.53940   0.53748   0.40646   0.00000  Uiso   1.00
C195   C     0.49601   0.49879   0.11582   0.00000  Uiso   1.00
C196   C     0.50400   0.50121   0.38418   0.00000  Uiso   1.00
C197   C     0.53221   0.53504   0.09271   0.00000  Uiso   1.00
C198   C     0.46779   0.46496   0.40729   0.00000  Uiso   1.00
C199   C     0.53129   0.53849   0.04651   0.00000  Uiso   1.00
C200   C     0.46871   0.46151   0.45349   0.00000  Uiso   1.00
C201   C     0.49967   0.49934   0.02332   0.00000  Uiso   1.00
C202   C     0.50033   0.50066   0.47668   0.00000  Uiso   1.00
C203   C     0.46825   0.45835   0.04687   0.00000  Uiso   1.00
C204   C     0.53176   0.54165   0.45313   0.00000  Uiso   1.00
C205   C     0.55913   0.58108   0.02340   0.00000  Uiso   1.00
C206   C     0.44088   0.41892   0.47660   0.00000  Uiso   1.00
H207   H     0.55813   0.56233   0.11182   0.00000  Uiso   1.00
H208   H     0.44187   0.43767   0.38818   0.00000  Uiso   1.00
H209   H     0.33749   0.45868   0.21880   0.00000  Uiso   1.00
H210   H     0.66251   0.54132   0.28120   0.00000  Uiso   1.00
N211   N     0.65011   0.48598   0.23783   0.00000  Uiso   1.00
N212   N     0.34989   0.51402   0.26217   0.00000  Uiso   1.00
O213   O     0.46308   0.57952   0.25299   0.00000  Uiso   1.00
O214   O     0.53692   0.42048   0.24701   0.00000  Uiso   1.00
O215   O     0.55946   0.57054   0.24519   0.00000  Uiso   1.00
O216   O     0.44054   0.42946   0.25481   0.00000  Uiso   1.00
O217   O     0.45181   0.50450   0.31998   0.00000  Uiso   1.00
O218   O     0.54819   0.49550   0.18003   0.00000  Uiso   1.00
O219   O     0.54819   0.49552   0.31218   0.00000  Uiso   1.00
O220   O     0.45181   0.50448   0.18783   0.00000  Uiso   1.00
Zn221  Zn    0.43565   0.50600   0.25521   0.00000  Uiso   1.00
Zn222  Zn    0.56435   0.49400   0.24479   0.00000  Uiso   1.00
I223   I     0.38636   0.42674   0.12881   0.00000  Uiso   1.00
I224   I     0.61364   0.57326   0.37119   0.00000  Uiso   1.00
I225   I     0.60659   0.64153   0.05768   0.00000  Uiso   1.00
I226   I     0.39341   0.35847   0.44232   0.00000  Uiso   1.00
I227   I     0.55941   0.66154   0.44833   0.00000  Uiso   1.00
I228   I     0.44059   0.33846   0.05167   0.00000  Uiso   1.00
I229   I     0.58365   0.33985   0.18849   0.00000  Uiso   1.00
I230   I     0.41635   0.66015   0.31151   0.00000  Uiso   1.00
C231   C     0.84816   0.59815   0.24893   0.00000  Uiso   1.00
C232   C     0.81851   0.40185   0.25107   0.00000  Uiso   1.00
C233   C     0.88780   0.58487   0.47704   0.00000  Uiso   1.00
C234   C     0.77887   0.41513   0.02296   0.00000  Uiso   1.00
C235   C     0.85373   0.65169   0.24086   0.00000  Uiso   1.00
C236   C     0.81294   0.34831   0.25914   0.00000  Uiso   1.00
C237   C     0.83495   0.50126   0.33644   0.00000  Uiso   1.00
C238   C     0.83171   0.49874   0.16356   0.00000  Uiso   1.00
C239   C     0.79394   0.46252   0.09355   0.00000  Uiso   1.00
C240   C     0.87273   0.53748   0.40646   0.00000  Uiso   1.00
C241   C     0.82934   0.49879   0.11582   0.00000  Uiso   1.00
C242   C     0.83733   0.50121   0.38418   0.00000  Uiso   1.00
C243   C     0.86554   0.53504   0.09271   0.00000  Uiso   1.00
C244   C     0.80112   0.46496   0.40729   0.00000  Uiso   1.00
C245   C     0.86462   0.53849   0.04651   0.00000  Uiso   1.00
C246   C     0.80205   0.46151   0.45349   0.00000  Uiso   1.00
C247   C     0.83300   0.49934   0.02332   0.00000  Uiso   1.00
C248   C     0.83367   0.50066   0.47668   0.00000  Uiso   1.00
C249   C     0.80158   0.45835   0.04687   0.00000  Uiso   1.00
C250   C     0.86509   0.54165   0.45313   0.00000  Uiso   1.00
C251   C     0.89246   0.58108   0.02340   0.00000  Uiso   1.00
C252   C     0.77421   0.41892   0.47660   0.00000  Uiso   1.00
H253   H     0.89146   0.56233   0.11182   0.00000  Uiso   1.00
H254   H     0.77520   0.43767   0.38818   0.00000  Uiso   1.00
H255   H     0.67082   0.45868   0.21880   0.00000  Uiso   1.00
H256   H     0.99584   0.54132   0.28120   0.00000  Uiso   1.00
N257   N     0.98344   0.48598   0.23783   0.00000  Uiso   1.00
N258   N     0.68322   0.51402   0.26217   0.00000  Uiso   1.00
O259   O     0.79642   0.57952   0.25299   0.00000  Uiso   1.00
O260   O     0.87025   0.42048   0.24701   0.00000  Uiso   1.00
O261   O     0.89280   0.57054   0.24519   0.00000  Uiso   1.00
O262   O     0.77387   0.42946   0.25481   0.00000  Uiso   1.00
O263   O     0.78514   0.50450   0.31998   0.00000  Uiso   1.00
O264   O     0.88153   0.49550   0.18003   0.00000  Uiso   1.00
O265   O     0.88152   0.49552   0.31218   0.00000  Uiso   1.00
O266   O     0.78515   0.50448   0.18783   0.00000  Uiso   1.00
Zn267  Zn    0.76898   0.50600   0.25521   0.00000  Uiso   1.00
Zn268  Zn    0.89769   0.49400   0.24479   0.00000  Uiso   1.00
I269   I     0.71969   0.42674   0.12881   0.00000  Uiso   1.00
I270   I     0.94697   0.57326   0.37119   0.00000  Uiso   1.00
I271   I     0.93992   0.64153   0.05768   0.00000  Uiso   1.00
I272   I     0.72675   0.35847   0.44232   0.00000  Uiso   1.00
I273   I     0.89274   0.66154   0.44833   0.00000  Uiso   1.00
I274   I     0.77393   0.33846   0.05167   0.00000  Uiso   1.00
I275   I     0.91698   0.33985   0.18849   0.00000  Uiso   1.00
I276   I     0.74968   0.66015   0.31151   0.00000  Uiso   1.00
C277   C     0.18149   0.93149   0.24893   0.00000  Uiso   1.00
C278   C     0.15184   0.73518   0.25107   0.00000  Uiso   1.00
C279   C     0.22113   0.91821   0.47704   0.00000  Uiso   1.00
C280   C     0.11220   0.74846   0.02296   0.00000  Uiso   1.00
C281   C     0.18706   0.98502   0.24086   0.00000  Uiso   1.00
C282   C     0.14627   0.68164   0.25914   0.00000  Uiso   1.00
C283   C     0.16829   0.83460   0.33644   0.00000  Uiso   1.00
C284   C     0.16505   0.83207   0.16356   0.00000  Uiso   1.00
C285   C     0.12727   0.79585   0.09355   0.00000  Uiso   1.00
C286   C     0.20606   0.87081   0.40646   0.00000  Uiso   1.00
C287   C     0.16267   0.83213   0.11582   0.00000  Uiso   1.00
C288   C     0.17066   0.83454   0.38418   0.00000  Uiso   1.00
C289   C     0.19888   0.86837   0.09271   0.00000  Uiso   1.00
C290   C     0.13446   0.79830   0.40729   0.00000  Uiso   1.00
C291   C     0.19795   0.87182   0.04651   0.00000  Uiso   1.00
C292   C     0.13538   0.79485   0.45349   0.00000  Uiso   1.00
C293   C     0.16633   0.83267   0.02332   0.00000  Uiso   1.00
C294   C     0.16700   0.83400   0.47668   0.00000  Uiso   1.00
C295   C     0.13491   0.79169   0.04687   0.00000  Uiso   1.00
C296   C     0.19842   0.87498   0.45313   0.00000  Uiso   1.00
C297   C     0.22579   0.91442   0.02340   0.00000  Uiso   1.00
C298   C     0.10754   0.75225   0.47660   0.00000  Uiso   1.00
H299   H     0.22480   0.89566   0.11182   0.00000  Uiso   1.00
H300   H     0.10854   0.77101   0.38818   0.00000  Uiso   1.00
H301   H     0.00416   0.79201   0.21880   0.00000  Uiso   1.00
H302   H     0.32918   0.87466   0.28120   0.00000  Uiso   1.00
N303   N     0.31678   0.81932   0.23783   0.00000  Uiso   1.00
N304   N     0.01656   0.84735   0.26217   0.00000  Uiso   1.00
O305   O     0.12975   0.91286   0.25299   0.00000  Uiso   1.00
O306   O     0.20358   0.75381   0.24701   0.00000  Uiso   1.00
O307   O     0.22613   0.90387   0.24519   0.00000  Uiso   1.00
O308   O     0.10720   0.76279   0.25481   0.00000  Uiso   1.00
O309   O     0.11847   0.83784   0.31998   0.00000  Uiso   1.00
O310   O     0.21486   0.82883   0.18003   0.00000  Uiso   1.00
O311   O     0.21485   0.82885   0.31218   0.00000  Uiso   1.00
O312   O     0.11848   0.83781   0.18783   0.00000  Uiso   1.00
Zn313  Zn    0.10231   0.83933   0.25521   0.00000  Uiso   1.00
Zn314  Zn    0.23102   0.82734   0.24479   0.00000  Uiso   1.00
I315   I     0.05303   0.76008   0.12881   0.00000  Uiso   1.00
I316   I     0.28031   0.90659   0.37119   0.00000  Uiso   1.00
I317   I     0.27325   0.97486   0.05768   0.00000  Uiso   1.00
I318   I     0.06008   0.69181   0.44232   0.00000  Uiso   1.00
I319   I     0.22607   0.99487   0.44833   0.00000  Uiso   1.00
I320   I     0.10726   0.67180   0.05167   0.00000  Uiso   1.00
I321   I     0.25032   0.67318   0.18849   0.00000  Uiso   1.00
I322   I     0.08302   0.99348   0.31151   0.00000  Uiso   1.00
C323   C     0.51483   0.93149   0.24893   0.00000  Uiso   1.00
C324   C     0.48517   0.73518   0.25107   0.00000  Uiso   1.00
C325   C     0.55447   0.91821   0.47704   0.00000  Uiso   1.00
C326   C     0.44553   0.74846   0.02296   0.00000  Uiso   1.00
C327   C     0.52040   0.98502   0.24086   0.00000  Uiso   1.00
C328   C     0.47960   0.68164   0.25914   0.00000  Uiso   1.00
C329   C     0.50162   0.83460   0.33644   0.00000  Uiso   1.00
C330   C     0.49838   0.83207   0.16356   0.00000  Uiso   1.00
C331   C     0.46060   0.79585   0.09355   0.00000  Uiso   1.00
C332   C     0.53940   0.87081   0.40646   0.00000  Uiso   1.00
C333   C     0.49601   0.83213   0.11582   0.00000  Uiso   1.00
C334   C     0.50400   0.83454   0.38418   0.00000  Uiso   1.00
C335   C     0.53221   0.86837   0.09271   0.00000  Uiso   1.00
C336   C     0.46779   0.79830   0.40729   0.00000  Uiso   1.00
C337   C     0.53129   0.87182   0.04651   0.00000  Uiso   1.00
C338   C     0.46871   0.79485   0.45349   0.00000  Uiso   1.00
C339   C     0.49967   0.83267   0.02332   0.00000  Uiso   1.00
C340   C     0.50033   0.83400   0.47668   0.00000  Uiso   1.00
C341   C     0.46825   0.79169   0.04687   0.00000  Uiso   1.00
C342   C     0.53176   0.87498   0.45313   0.00000  Uiso   1.00
C343   C     0.55913   0.91442   0.02340   0.00000  Uiso   1.00
C344   C     0.44088   0.75225   0.47660   0.00000  Uiso   1.00
H345   H     0.55813   0.89566   0.11182   0.00000  Uiso   1.00
H346   H     0.44187   0.77101   0.38818   0.00000  Uiso   1.00
H347   H     0.33749   0.79201   0.21880   0.00000  Uiso   1.00
H348   H     0.66251   0.87466   0.28120   0.00000  Uiso   1.00
N349   N     0.65011   0.81932   0.23783   0.00000  Uiso   1.00
N350   N     0.34989   0.84735   0.26217   0.00000  Uiso   1.00
O351   O     0.46308   0.91286   0.25299   0.00000  Uiso   1.00
O352   O     0.53692   0.75381   0.24701   0.00000  Uiso   1.00
O353   O     0.55946   0.90387   0.24519   0.00000  Uiso   1.00
O354   O     0.44054   0.76279   0.25481   0.00000  Uiso   1.00
O355   O     0.45181   0.83784   0.31998   0.00000  Uiso   1.00
O356   O     0.54819   0.82883   0.18003   0.00000  Uiso   1.00
O357   O     0.54819   0.82885   0.31218   0.00000  Uiso   1.00
O358   O     0.45181   0.83781   0.18783   0.00000  Uiso   1.00
Zn359  Zn    0.43565   0.83933   0.25521   0.00000  Uiso   1.00
Zn360  Zn    0.56435   0.82734   0.24479   0.00000  Uiso   1.00
I361   I     0.38636   0.76008   0.12881   0.00000  Uiso   1.00
I362   I     0.61364   0.90659   0.37119   0.00000  Uiso   1.00
I363   I     0.60659   0.97486   0.05768   0.00000  Uiso   1.00
I364   I     0.39341   0.69181   0.44232   0.00000  Uiso   1.00
I365   I     0.55941   0.99487   0.44833   0.00000  Uiso   1.00
I366   I     0.44059   0.67180   0.05167   0.00000  Uiso   1.00
I367   I     0.58365   0.67318   0.18849   0.00000  Uiso   1.00
I368   I     0.41635   0.99348   0.31151   0.00000  Uiso   1.00
C369   C     0.84816   0.93149   0.24893   0.00000  Uiso   1.00
C370   C     0.81851   0.73518   0.25107   0.00000  Uiso   1.00
C371   C     0.88780   0.91821   0.47704   0.00000  Uiso   1.00
C372   C     0.77887   0.74846   0.02296   0.00000  Uiso   1.00
C373   C     0.85373   0.98502   0.24086   0.00000  Uiso   1.00
C374   C     0.81294   0.68164   0.25914   0.00000  Uiso   1.00
C375   C     0.83495   0.83460   0.33644   0.00000  Uiso   1.00
C376   C     0.83171   0.83207   0.16356   0.00000  Uiso   1.00
C377   C     0.79394   0.79585   0.09355   0.00000  Uiso   1.00
C378   C     0.87273   0.87081   0.40646   0.00000  Uiso   1.00
C379   C     0.82934   0.83213   0.11582   0.00000  Uiso   1.00
C380   C     0.83733   0.83454   0.38418   0.00000  Uiso   1.00
C381   C     0.86554   0.86837   0.09271   0.00000  Uiso   1.00
C382   C     0.80112   0.79830   0.40729   0.00000  Uiso   1.00
C383   C     0.86462   0.87182   0.04651   0.00000  Uiso   1.00
C384   C     0.80205   0.79485   0.45349   0.00000  Uiso   1.00
C385   C     0.83300   0.83267   0.02332   0.00000  Uiso   1.00
C386   C     0.83367   0.83400   0.47668   0.00000  Uiso   1.00
C387   C     0.80158   0.79169   0.04687   0.00000  Uiso   1.00
C388   C     0.86509   0.87498   0.45313   0.00000  Uiso   1.00
C389   C     0.89246   0.91442   0.02340   0.00000  Uiso   1.00
C390   C     0.77421   0.75225   0.47660   0.00000  Uiso   1.00
H391   H     0.89146   0.89566   0.11182   0.00000  Uiso   1.00
H392   H     0.77520   0.77101   0.38818   0.00000  Uiso   1.00
H393   H     0.67082   0.79201   0.21880   0.00000  Uiso   1.00
H394   H     0.99584   0.87466   0.28120   0.00000  Uiso   1.00
N395   N     0.98344   0.81932   0.23783   0.00000  Uiso   1.00
N396   N     0.68322   0.84735   0.26217   0.00000  Uiso   1.00
O397   O     0.79642   0.91286   0.25299   0.00000  Uiso   1.00
O398   O     0.87025   0.75381   0.24701   0.00000  Uiso   1.00
O399   O     0.89280   0.90387   0.24519   0.00000  Uiso   1.00
O400   O     0.77387   0.76279   0.25481   0.00000  Uiso   1.00
O401   O     0.78514   0.83784   0.31998   0.00000  Uiso   1.00
O402   O     0.88153   0.82883   0.18003   0.00000  Uiso   1.00
O403   O     0.88152   0.82885   0.31218   0.00000  Uiso   1.00
O404   O     0.78515   0.83781   0.18783   0.00000  Uiso   1.00
Zn405  Zn    0.76898   0.83933   0.25521   0.00000  Uiso   1.00
Zn406  Zn    0.89769   0.82734   0.24479   0.00000  Uiso   1.00
I407   I     0.71969   0.76008   0.12881   0.00000  Uiso   1.00
I408   I     0.94697   0.90659   0.37119   0.00000  Uiso   1.00
I409   I     0.93992   0.97486   0.05768   0.00000  Uiso   1.00
I410   I     0.72675   0.69181   0.44232   0.00000  Uiso   1.00
I411   I     0.89274   0.99487   0.44833   0.00000  Uiso   1.00
I412   I     0.77393   0.67180   0.05167   0.00000  Uiso   1.00
I413   I     0.91698   0.67318   0.18849   0.00000  Uiso   1.00
I414   I     0.74968   0.99348   0.31151   0.00000  Uiso   1.00
C415   C     0.18149   0.26482   0.74893   0.00000  Uiso   1.00
C416   C     0.15184   0.06851   0.75107   0.00000  Uiso   1.00
C417   C     0.22113   0.25154   0.97704   0.00000  Uiso   1.00
C418   C     0.11220   0.08179   0.52296   0.00000  Uiso   1.00
C419   C     0.18706   0.31836   0.74086   0.00000  Uiso   1.00
C420   C     0.14627   0.01498   0.75914   0.00000  Uiso   1.00
C421   C     0.16829   0.16793   0.83644   0.00000  Uiso   1.00
C422   C     0.16505   0.16540   0.66356   0.00000  Uiso   1.00
C423   C     0.12727   0.12919   0.59355   0.00000  Uiso   1.00
C424   C     0.20606   0.20415   0.90646   0.00000  Uiso   1.00
C425   C     0.16267   0.16546   0.61582   0.00000  Uiso   1.00
C426   C     0.17066   0.16787   0.88418   0.00000  Uiso   1.00
C427   C     0.19888   0.20170   0.59271   0.00000  Uiso   1.00
C428   C     0.13446   0.13163   0.90729   0.00000  Uiso   1.00
C429   C     0.19795   0.20515   0.54651   0.00000  Uiso   1.00
C430   C     0.13538   0.12818   0.95349   0.00000  Uiso   1.00
C431   C     0.16633   0.16600   0.52332   0.00000  Uiso   1.00
C432   C     0.16700   0.16733   0.97668   0.00000  Uiso   1.00
C433   C     0.13491   0.12502   0.54687   0.00000  Uiso   1.00
C434   C     0.19842   0.20831   0.95313   0.00000  Uiso   1.00
C435   C     0.22579   0.24775   0.52340   0.00000  Uiso   1.00
C436   C     0.10754   0.08558   0.97660   0.00000  Uiso   1.00
H437   H     0.22480   0.22900   0.61182   0.00000  Uiso   1.00
H438   H     0.10854   0.10434   0.88818   0.00000  Uiso   1.00
H439   H     0.00416   0.12534   0.71880   0.00000  Uiso   1.00
H440   H     0.32918   0.20799   0.78120   0.00000  Uiso   1.00
N441   N     0.31678   0.15265   0.73783   0.00000  Uiso   1.00
N442   N     0.01656   0.18068   0.76217   0.00000  Uiso   1.00
O443   O     0.12975   0.24619   0.75299   0.00000  Uiso   1.00
O444   O     0.20358   0.08714   0.74701   0.00000  Uiso   1.00
O445   O     0.22613   0.23721   0.74519   0.00000  Uiso   1.00
O446   O     0.10720   0.09613   0.75481   0.00000  Uiso   1.00
O447   O     0.11847   0.17117   0.81998   0.00000  Uiso   1.00
O448   O     0.21486   0.16216   0.68003   0.00000  Uiso   1.00
O449   O     0.21485   0.16219   0.81218   0.00000  Uiso   1.00
O450   O     0.11848   0.17115   0.68783   0.00000  Uiso   1.00
Zn451  Zn    0.10231   0.17266   0.75521   0.00000  Uiso   1.00
Zn452  Zn    0.23102   0.16067   0.74479   0.00000  Uiso   1.00
I453   I     0.05303   0.09341   0.62881   0.00000  Uiso   1.00
I454   I     0.28031   0.23992   0.87119   0.00000  Uiso   1.00
I455   I     0.27325   0.30819   0.55768   0.00000  Uiso   1.00
I456   I     0.06008   0.02514   0.94232   0.00000  Uiso   1.00
I457   I     0.22607   0.32820   0.94833   0.00000  Uiso   1.00
I458   I     0.10726   0.00513   0.55167   0.00000  Uiso   1.00
I459   I     0.25032   0.00652   0.68849   0.00000  Uiso   1.00
I460   I     0.08302   0.32682   0.81151   0.00000  Uiso   1.00
C461   C     0.51483   0.26482   0.74893   0.00000  Uiso   1.00
C462   C     0.48517   0.06851   0.75107   0.00000  Uiso   1.00
C463   C     0.55447   0.25154   0.97704   0.00000  Uiso   1.00
C464   C     0.44553   0.08179   0.52296   0.00000  Uiso   1.00
C465   C     0.52040   0.31836   0.74086   0.00000  Uiso   1.00
C466   C     0.47960   0.01498   0.75914   0.00000  Uiso   1.00
C467   C     0.50162   0.16793   0.83644   0.00000  Uiso   1.00
C468   C     0.49838   0.16540   0.66356   0.00000  Uiso   1.00
C469   C     0.46060   0.12919   0.59355   0.00000  Uiso   1.00
C470   C     0.53940   0.20415   0.90646   0.00000  Uiso   1.00
C471   C     0.49601   0.16546   0.61582   0.00000  Uiso   1.00
C472   C     0.50400   0.16787   0.88418   0.00000  Uiso   1.00
C473   C     0.53221   0.20170   0.59271   0.00000  Uiso   1.00
C474   C     0.46779   0.13163   0.90729   0.00000  Uiso   1.00
C475   C     0.53129   0.20515   0.54651   0.00000  Uiso   1.00
C476   C     0.46871   0.12818   0.95349   0.00000  Uiso   1.00
C477   C     0.49967   0.16600   0.52332   0.00000  Uiso   1.00
C478   C     0.50033   0.16733   0.97668   0.00000  Uiso   1.00
C479   C     0.46825   0.12502   0.54687   0.00000  Uiso   1.00
C480   C     0.53176   0.20831   0.95313   0.00000  Uiso   1.00
C481   C     0.55913   0.24775   0.52340   0.00000  Uiso   1.00
C482   C     0.44088   0.08558   0.97660   0.00000  Uiso   1.00
H483   H     0.55813   0.22900   0.61182   0.00000  Uiso   1.00
H484   H     0.44187   0.10434   0.88818   0.00000  Uiso   1.00
H485   H     0.33749   0.12534   0.71880   0.00000  Uiso   1.00
H486   H     0.66251   0.20799   0.78120   0.00000  Uiso   1.00
N487   N     0.65011   0.15265   0.73783   0.00000  Uiso   1.00
N488   N     0.34989   0.18068   0.76217   0.00000  Uiso   1.00
O489   O     0.46308   0.24619   0.75299   0.00000  Uiso   1.00
O490   O     0.53692   0.08714   0.74701   0.00000  Uiso   1.00
O491   O     0.55946   0.23721   0.74519   0.00000  Uiso   1.00
O492   O     0.44054   0.09613   0.75481   0.00000  Uiso   1.00
O493   O     0.45181   0.17117   0.81998   0.00000  Uiso   1.00
O494   O     0.54819   0.16216   0.68003   0.00000  Uiso   1.00
O495   O     0.54819   0.16219   0.81218   0.00000  Uiso   1.00
O496   O     0.45181   0.17115   0.68783   0.00000  Uiso   1.00
Zn497  Zn    0.43565   0.17266   0.75521   0.00000  Uiso   1.00
Zn498  Zn    0.56435   0.16067   0.74479   0.00000  Uiso   1.00
I499   I     0.38636   0.09341   0.62881   0.00000  Uiso   1.00
I500   I     0.61364   0.23992   0.87119   0.00000  Uiso   1.00
I501   I     0.60659   0.30819   0.55768   0.00000  Uiso   1.00
I502   I     0.39341   0.02514   0.94232   0.00000  Uiso   1.00
I503   I     0.55941   0.32820   0.94833   0.00000  Uiso   1.00
I504   I     0.44059   0.00513   0.55167   0.00000  Uiso   1.00
I505   I     0.58365   0.00652   0.68849   0.00000  Uiso   1.00
I506   I     0.41635   0.32682   0.81151   0.00000  Uiso   1.00
C507   C     0.84816   0.26482   0.74893   0.00000  Uiso   1.00
C508   C     0.81851   0.06851   0.75107   0.00000  Uiso   1.00
C509   C     0.88780   0.25154   0.97704   0.00000  Uiso   1.00
C510   C     0.77887   0.08179   0.52296   0.00000  Uiso   1.00
C511   C     0.85373   0.31836   0.74086   0.00000  Uiso   1.00
C512   C     0.81294   0.01498   0.75914   0.00000  Uiso   1.00
C513   C     0.83495   0.16793   0.83644   0.00000  Uiso   1.00
C514   C     0.83171   0.16540   0.66356   0.00000  Uiso   1.00
C515   C     0.79394   0.12919   0.59355   0.00000  Uiso   1.00
C516   C     0.87273   0.20415   0.90646   0.00000  Uiso   1.00
C517   C     0.82934   0.16546   0.61582   0.00000  Uiso   1.00
C518   C     0.83733   0.16787   0.88418   0.00000  Uiso   1.00
C519   C     0.86554   0.20170   0.59271   0.00000  Uiso   1.00
C520   C     0.80112   0.13163   0.90729   0.00000  Uiso   1.00
C521   C     0.86462   0.20515   0.54651   0.00000  Uiso   1.00
C522   C     0.80205   0.12818   0.95349   0.00000  Uiso   1.00
C523   C     0.83300   0.16600   0.52332   0.00000  Uiso   1.00
C524   C     0.83367   0.16733   0.97668   0.00000  Uiso   1.00
C525   C     0.80158   0.12502   0.54687   0.00000  Uiso   1.00
C526   C     0.86509   0.20831   0.95313   0.00000  Uiso   1.00
C527   C     0.89246   0.24775   0.52340   0.00000  Uiso   1.00
C528   C     0.77421   0.08558   0.97660   0.00000  Uiso   1.00
H529   H     0.89146   0.22900   0.61182   0.00000  Uiso   1.00
H530   H     0.77520   0.10434   0.88818   0.00000  Uiso   1.00
H531   H     0.67082   0.12534   0.71880   0.00000  Uiso   1.00
H532   H     0.99584   0.20799   0.78120   0.00000  Uiso   1.00
N533   N     0.98344   0.15265   0.73783   0.00000  Uiso   1.00
N534   N     0.68322   0.18068   0.76217   0.00000  Uiso   1.00
O535   O     0.79642   0.24619   0.75299   0.00000  Uiso   1.00
O536   O     0.87025   0.08714   0.74701   0.00000  Uiso   1.00
O537   O     0.89280   0.23721   0.74519   0.00000  Uiso   1.00
O538   O     0.77387   0.09613   0.75481   0.00000  Uiso   1.00
O539   O     0.78514   0.17117   0.81998   0.00000  Uiso   1.00
O540   O     0.88153   0.16216   0.68003   0.00000  Uiso   1.00
O541   O     0.88152   0.16219   0.81218   0.00000  Uiso   1.00
O542   O     0.78515   0.17115   0.68783   0.00000  Uiso   1.00
Zn543  Zn    0.76898   0.17266   0.75521   0.00000  Uiso   1.00
Zn544  Zn    0.89769   0.16067   0.74479   0.00000  Uiso   1.00
I545   I     0.71969   0.09341   0.62881   0.00000  Uiso   1.00
I546   I     0.94697   0.23992   0.87119   0.00000  Uiso   1.00
I547   I     0.93992   0.30819   0.55768   0.00000  Uiso   1.00
I548   I     0.72675   0.02514   0.94232   0.00000  Uiso   1.00
I549   I     0.89274   0.32820   0.94833   0.00000  Uiso   1.00
I550   I     0.77393   0.00513   0.55167   0.00000  Uiso   1.00
I551   I     0.91698   0.00652   0.68849   0.00000  Uiso   1.00
I552   I     0.74968   0.32682   0.81151   0.00000  Uiso   1.00
C553   C     0.18149   0.59815   0.74893   0.00000  Uiso   1.00
C554   C     0.15184   0.40185   0.75107   0.00000  Uiso   1.00
C555   C     0.22113   0.58487   0.97704   0.00000  Uiso   1.00
C556   C     0.11220   0.41513   0.52296   0.00000  Uiso   1.00
C557   C     0.18706   0.65169   0.74086   0.00000  Uiso   1.00
C558   C     0.14627   0.34831   0.75914   0.00000  Uiso   1.00
C559   C     0.16829   0.50126   0.83644   0.00000  Uiso   1.00
C560   C     0.16505   0.49874   0.66356   0.00000  Uiso   1.00
C561   C     0.12727   0.46252   0.59355   0.00000  Uiso   1.00
C562   C     0.20606   0.53748   0.90646   0.00000  Uiso   1.00
C563   C     0.16267   0.49879   0.61582   0.00000  Uiso   1.00
C564   C     0.17066   0.50121   0.88418   0.00000  Uiso   1.00
C565   C     0.19888   0.53504   0.59271   0.00000  Uiso   1.00
C566   C     0.13446   0.46496   0.90729   0.00000  Uiso   1.00
C567   C     0.19795   0.53849   0.54651   0.00000  Uiso   1.00
C568   C     0.13538   0.46151   0.95349   0.00000  Uiso   1.00
C569   C     0.16633   0.49934   0.52332   0.00000  Uiso   1.00
C570   C     0.16700   0.50066   0.97668   0.00000  Uiso   1.00
C571   C     0.13491   0.45835   0.54687   0.00000  Uiso   1.00
C572   C     0.19842   0.54165   0.95313   0.00000  Uiso   1.00
C573   C     0.22579   0.58108   0.52340   0.00000  Uiso   1.00
C574   C     0.10754   0.41892   0.97660   0.00000  Uiso   1.00
H575   H     0.22480   0.56233   0.61182   0.00000  Uiso   1.00
H576   H     0.10854   0.43767   0.88818   0.00000  Uiso   1.00
H577   H     0.00416   0.45868   0.71880   0.00000  Uiso   1.00
H578   H     0.32918   0.54132   0.78120   0.00000  Uiso   1.00
N579   N     0.31678   0.48598   0.73783   0.00000  Uiso   1.00
N580   N     0.01656   0.51402   0.76217   0.00000  Uiso   1.00
O581   O     0.12975   0.57952   0.75299   0.00000  Uiso   1.00
O582   O     0.20358   0.42048   0.74701   0.00000  Uiso   1.00
O583   O     0.22613   0.57054   0.74519   0.00000  Uiso   1.00
O584   O     0.10720   0.42946   0.75481   0.00000  Uiso   1.00
O585   O     0.11847   0.50450   0.81998   0.00000  Uiso   1.00
O586   O     0.21486   0.49550   0.68003   0.00000  Uiso   1.00
O587   O     0.21485   0.49552   0.81218   0.00000  Uiso   1.00
O588   O     0.11848   0.50448   0.68783   0.00000  Uiso   1.00
Zn589  Zn    0.10231   0.50600   0.75521   0.00000  Uiso   1.00
Zn590  Zn    0.23102   0.49400   0.74479   0.00000  Uiso   1.00
I591   I     0.05303   0.42674   0.62881   0.00000  Uiso   1.00
I592   I     0.28031   0.57326   0.87119   0.00000  Uiso   1.00
I593   I     0.27325   0.64153   0.55768   0.00000  Uiso   1.00
I594   I     0.06008   0.35847   0.94232   0.00000  Uiso   1.00
I595   I     0.22607   0.66154   0.94833   0.00000  Uiso   1.00
I596   I     0.10726   0.33846   0.55167   0.00000  Uiso   1.00
I597   I     0.25032   0.33985   0.68849   0.00000  Uiso   1.00
I598   I     0.08302   0.66015   0.81151   0.00000  Uiso   1.00
C599   C     0.51483   0.59815   0.74893   0.00000  Uiso   1.00
C600   C     0.48517   0.40185   0.75107   0.00000  Uiso   1.00
C601   C     0.55447   0.58487   0.97704   0.00000  Uiso   1.00
C602   C     0.44553   0.41513   0.52296   0.00000  Uiso   1.00
C603   C     0.52040   0.65169   0.74086   0.00000  Uiso   1.00
C604   C     0.47960   0.34831   0.75914   0.00000  Uiso   1.00
C605   C     0.50162   0.50126   0.83644   0.00000  Uiso   1.00
C606   C     0.49838   0.49874   0.66356   0.00000  Uiso   1.00
C607   C     0.46060   0.46252   0.59355   0.00000  Uiso   1.00
C608   C     0.53940   0.53748   0.90646   0.00000  Uiso   1.00
C609   C     0.49601   0.49879   0.61582   0.00000  Uiso   1.00
C610   C     0.50400   0.50121   0.88418   0.00000  Uiso   1.00
C611   C     0.53221   0.53504   0.59271   0.00000  Uiso   1.00
C612   C     0.46779   0.46496   0.90729   0.00000  Uiso   1.00
C613   C     0.53129   0.53849   0.54651   0.00000  Uiso   1.00
C614   C     0.46871   0.46151   0.95349   0.00000  Uiso   1.00
C615   C     0.49967   0.49934   0.52332   0.00000  Uiso   1.00
C616   C     0.50033   0.50066   0.97668   0.00000  Uiso   1.00
C617   C     0.46825   0.45835   0.54687   0.00000  Uiso   1.00
C618   C     0.53176   0.54165   0.95313   0.00000  Uiso   1.00
C619   C     0.55913   0.58108   0.52340   0.00000  Uiso   1.00
C620   C     0.44088   0.41892   0.97660   0.00000  Uiso   1.00
H621   H     0.55813   0.56233   0.61182   0.00000  Uiso   1.00
H622   H     0.44187   0.43767   0.88818   0.00000  Uiso   1.00
H623   H     0.33749   0.45868   0.71880   0.00000  Uiso   1.00
H624   H     0.66251   0.54132   0.78120   0.00000  Uiso   1.00
N625   N     0.65011   0.48598   0.73783   0.00000  Uiso   1.00
N626   N     0.34989   0.51402   0.76217   0.00000  Uiso   1.00
O627   O     0.46308   0.57952   0.75299   0.00000  Uiso   1.00
O628   O     0.53692   0.42048   0.74701   0.00000  Uiso   1.00
O629   O     0.55946   0.57054   0.74519   0.00000  Uiso   1.00
O630   O     0.44054   0.42946   0.75481   0.00000  Uiso   1.00
O631   O     0.45181   0.50450   0.81998   0.00000  Uiso   1.00
O632   O     0.54819   0.49550   0.68003   0.00000  Uiso   1.00
O633   O     0.54819   0.49552   0.81218   0.00000  Uiso   1.00
O634   O     0.45181   0.50448   0.68783   0.00000  Uiso   1.00
Zn635  Zn    0.43565   0.50600   0.75521   0.00000  Uiso   1.00
Zn636  Zn    0.56435   0.49400   0.74479   0.00000  Uiso   1.00
I637   I     0.38636   0.42674   0.62881   0.00000  Uiso   1.00
I638   I     0.61364   0.57326   0.87119   0.00000  Uiso   1.00
I639   I     0.60659   0.64153   0.55768   0.00000  Uiso   1.00
I640   I     0.39341   0.35847   0.94232   0.00000  Uiso   1.00
I641   I     0.55941   0.66154   0.94833   0.00000  Uiso   1.00
I642   I     0.44059   0.33846   0.55167   0.00000  Uiso   1.00
I643   I     0.58365   0.33985   0.68849   0.00000  Uiso   1.00
I644   I     0.41635   0.66015   0.81151   0.00000  Uiso   1.00
C645   C     0.84816   0.59815   0.74893   0.00000  Uiso   1.00
C646   C     0.81851   0.40185   0.75107   0.00000  Uiso   1.00
C647   C     0.88780   0.58487   0.97704   0.00000  Uiso   1.00
C648   C     0.77887   0.41513   0.52296   0.00000  Uiso   1.00
C649   C     0.85373   0.65169   0.74086   0.00000  Uiso   1.00
C650   C     0.81294   0.34831   0.75914   0.00000  Uiso   1.00
C651   C     0.83495   0.50126   0.83644   0.00000  Uiso   1.00
C652   C     0.83171   0.49874   0.66356   0.00000  Uiso   1.00
C653   C     0.79394   0.46252   0.59355   0.00000  Uiso   1.00
C654   C     0.87273   0.53748   0.90646   0.00000  Uiso   1.00
C655   C     0.82934   0.49879   0.61582   0.00000  Uiso   1.00
C656   C     0.83733   0.50121   0.88418   0.00000  Uiso   1.00
C657   C     0.86554   0.53504   0.59271   0.00000  Uiso   1.00
C658   C     0.80112   0.46496   0.90729   0.00000  Uiso   1.00
C659   C     0.86462   0.53849   0.54651   0.00000  Uiso   1.00
C660   C     0.80205   0.46151   0.95349   0.00000  Uiso   1.00
C661   C     0.83300   0.49934   0.52332   0.00000  Uiso   1.00
C662   C     0.83367   0.50066   0.97668   0.00000  Uiso   1.00
C663   C     0.80158   0.45835   0.54687   0.00000  Uiso   1.00
C664   C     0.86509   0.54165   0.95313   0.00000  Uiso   1.00
C665   C     0.89246   0.58108   0.52340   0.00000  Uiso   1.00
C666   C     0.77421   0.41892   0.97660   0.00000  Uiso   1.00
H667   H     0.89146   0.56233   0.61182   0.00000  Uiso   1.00
H668   H     0.77520   0.43767   0.88818   0.00000  Uiso   1.00
H669   H     0.67082   0.45868   0.71880   0.00000  Uiso   1.00
H670   H     0.99584   0.54132   0.78120   0.00000  Uiso   1.00
N671   N     0.98344   0.48598   0.73783   0.00000  Uiso   1.00
N672   N     0.68322   0.51402   0.76217   0.00000  Uiso   1.00
O673   O     0.79642   0.57952   0.75299   0.00000  Uiso   1.00
O674   O     0.87025   0.42048   0.74701   0.00000  Uiso   1.00
O675   O     0.89280   0.57054   0.74519   0.00000  Uiso   1.00
O676   O     0.77387   0.42946   0.75481   0.00000  Uiso   1.00
O677   O     0.78514   0.50450   0.81998   0.00000  Uiso   1.00
O678   O     0.88153   0.49550   0.68003   0.00000  Uiso   1.00
O679   O     0.88152   0.49552   0.81218   0.00000  Uiso   1.00
O680   O     0.78515   0.50448   0.68783   0.00000  Uiso   1.00
Zn681  Zn    0.76898   0.50600   0.75521   0.00000  Uiso   1.00
Zn682  Zn    0.89769   0.49400   0.74479   0.00000  Uiso   1.00
I683   I     0.71969   0.42674   0.62881   0.00000  Uiso   1.00
I684   I     0.94697   0.57326   0.87119   0.00000  Uiso   1.00
I685   I     0.93992   0.64153   0.55768   0.00000  Uiso   1.00
I686   I     0.72675   0.35847   0.94232   0.00000  Uiso   1.00
I687   I     0.89274   0.66154   0.94833   0.00000  Uiso   1.00
I688   I     0.77393   0.33846   0.55167   0.00000  Uiso   1.00
I689   I     0.91698   0.33985   0.68849   0.00000  Uiso   1.00
I690   I     0.74968   0.66015   0.81151   0.00000  Uiso   1.00
C691   C     0.18149   0.93149   0.74893   0.00000  Uiso   1.00
C692   C     0.15184   0.73518   0.75107   0.00000  Uiso   1.00
C693   C     0.22113   0.91821   0.97704   0.00000  Uiso   1.00
C694   C     0.11220   0.74846   0.52296   0.00000  Uiso   1.00
C695   C     0.18706   0.98502   0.74086   0.00000  Uiso   1.00
C696   C     0.14627   0.68164   0.75914   0.00000  Uiso   1.00
C697   C     0.16829   0.83460   0.83644   0.00000  Uiso   1.00
C698   C     0.16505   0.83207   0.66356   0.00000  Uiso   1.00
C699   C     0.12727   0.79585   0.59355   0.00000  Uiso   1.00
C700   C     0.20606   0.87081   0.90646   0.00000  Uiso   1.00
C701   C     0.16267   0.83213   0.61582   0.00000  Uiso   1.00
C702   C     0.17066   0.83454   0.88418   0.00000  Uiso   1.00
C703   C     0.19888   0.86837   0.59271   0.00000  Uiso   1.00
C704   C     0.13446   0.79830   0.90729   0.00000  Uiso   1.00
C705   C     0.19795   0.87182   0.54651   0.00000  Uiso   1.00
C706   C     0.13538   0.79485   0.95349   0.00000  Uiso   1.00
C707   C     0.16633   0.83267   0.52332   0.00000  Uiso   1.00
C708   C     0.16700   0.83400   0.97668   0.00000  Uiso   1.00
C709   C     0.13491   0.79169   0.54687   0.00000  Uiso   1.00
C710   C     0.19842   0.87498   0.95313   0.00000  Uiso   1.00
C711   C     0.22579   0.91442   0.52340   0.00000  Uiso   1.00
C712   C     0.10754   0.75225   0.97660   0.00000  Uiso   1.00
H713   H     0.22480   0.89566   0.61182   0.00000  Uiso   1.00
H714   H     0.10854   0.77101   0.88818   0.00000  Uiso   1.00
H715   H     0.00416   0.79201   0.71880   0.00000  Uiso   1.00
H716   H     0.32918   0.87466   0.78120   0.00000  Uiso   1.00
N717   N     0.31678   0.81932   0.73783   0.00000  Uiso   1.00
N718   N     0.01656   0.84735   0.76217   0.00000  Uiso   1.00
O719   O     0.12975   0.91286   0.75299   0.00000  Uiso   1.00
O720   O     0.20358   0.75381   0.74701   0.00000  Uiso   1.00
O721   O     0.22613   0.90387   0.74519   0.00000  Uiso   1.00
O722   O     0.10720   0.76279   0.75481   0.00000  Uiso   1.00
O723   O     0.11847   0.83784   0.81998   0.00000  Uiso   1.00
O724   O     0.21486   0.82883   0.68003   0.00000  Uiso   1.00
O725   O     0.21485   0.82885   0.81218   0.00000  Uiso   1.00
O726   O     0.11848   0.83781   0.68783   0.00000  Uiso   1.00
Zn727  Zn    0.10231   0.83933   0.75521   0.00000  Uiso   1.00
Zn728  Zn    0.23102   0.82734   0.74479   0.00000  Uiso   1.00
I729   I     0.05303   0.76008   0.62881   0.00000  Uiso   1.00
I730   I     0.28031   0.90659   0.87119   0.00000  Uiso   1.00
I731   I     0.27325   0.97486   0.55768   0.00000  Uiso   1.00
I732   I     0.06008   0.69181   0.94232   0.00000  Uiso   1.00
I733   I     0.22607   0.99487   0.94833   0.00000  Uiso   1.00
I734   I     0.10726   0.67180   0.55167   0.00000  Uiso   1.00
I735   I     0.25032   0.67318   0.68849   0.00000  Uiso   1.00
I736   I     0.08302   0.99348   0.81151   0.00000  Uiso   1.00
C737   C     0.51483   0.93149   0.74893   0.00000  Uiso   1.00
C738   C     0.48517   0.73518   0.75107   0.00000  Uiso   1.00
C739   C     0.55447   0.91821   0.97704   0.00000  Uiso   1.00
C740   C     0.44553   0.74846   0.52296   0.00000  Uiso   1.00
C741   C     0.52040   0.98502   0.74086   0.00000  Uiso   1.00
C742   C     0.47960   0.68164   0.75914   0.00000  Uiso   1.00
C743   C     0.50162   0.83460   0.83644   0.00000  Uiso   1.00
C744   C     0.49838   0.83207   0.66356   0.00000  Uiso   1.00
C745   C     0.46060   0.79585   0.59355   0.00000  Uiso   1.00
C746   C     0.53940   0.87081   0.90646   0.00000  Uiso   1.00
C747   C     0.49601   0.83213   0.61582   0.00000  Uiso   1.00
C748   C     0.50400   0.83454   0.88418   0.00000  Uiso   1.00
C749   C     0.53221   0.86837   0.59271   0.00000  Uiso   1.00
C750   C     0.46779   0.79830   0.90729   0.00000  Uiso   1.00
C751   C     0.53129   0.87182   0.54651   0.00000  Uiso   1.00
C752   C     0.46871   0.79485   0.95349   0.00000  Uiso   1.00
C753   C     0.49967   0.83267   0.52332   0.00000  Uiso   1.00
C754   C     0.50033   0.83400   0.97668   0.00000  Uiso   1.00
C755   C     0.46825   0.79169   0.54687   0.00000  Uiso   1.00
C756   C     0.53176   0.87498   0.95313   0.00000  Uiso   1.00
C757   C     0.55913   0.91442   0.52340   0.00000  Uiso   1.00
C758   C     0.44088   0.75225   0.97660   0.00000  Uiso   1.00
H759   H     0.55813   0.89566   0.61182   0.00000  Uiso   1.00
H760   H     0.44187   0.77101   0.88818   0.00000  Uiso   1.00
H761   H     0.33749   0.79201   0.71880   0.00000  Uiso   1.00
H762   H     0.66251   0.87466   0.78120   0.00000  Uiso   1.00
N763   N     0.65011   0.81932   0.73783   0.00000  Uiso   1.00
N764   N     0.34989   0.84735   0.76217   0.00000  Uiso   1.00
O765   O     0.46308   0.91286   0.75299   0.00000  Uiso   1.00
O766   O     0.53692   0.75381   0.74701   0.00000  Uiso   1.00
O767   O     0.55946   0.90387   0.74519   0.00000  Uiso   1.00
O768   O     0.44054   0.76279   0.75481   0.00000  Uiso   1.00
O769   O     0.45181   0.83784   0.81998   0.00000  Uiso   1.00
O770   O     0.54819   0.82883   0.68003   0.00000  Uiso   1.00
O771   O     0.54819   0.82885   0.81218   0.00000  Uiso   1.00
O772   O     0.45181   0.83781   0.68783   0.00000  Uiso   1.00
Zn773  Zn    0.43565   0.83933   0.75521   0.00000  Uiso   1.00
Zn774  Zn    0.56435   0.82734   0.74479   0.00000  Uiso   1.00
I775   I     0.38636   0.76008   0.62881   0.00000  Uiso   1.00
I776   I     0.61364   0.90659   0.87119   0.00000  Uiso   1.00
I777   I     0.60659   0.97486   0.55768   0.00000  Uiso   1.00
I778   I     0.39341   0.69181   0.94232   0.00000  Uiso   1.00
I779   I     0.55941   0.99487   0.94833   0.00000  Uiso   1.00
I780   I     0.44059   0.67180   0.55167   0.00000  Uiso   1.00
I781   I     0.58365   0.67318   0.68849   0.00000  Uiso   1.00
I782   I     0.41635   0.99348   0.81151   0.00000  Uiso   1.00
C783   C     0.84816   0.93149   0.74893   0.00000  Uiso   1.00
C784   C     0.81851   0.73518   0.75107   0.00000  Uiso   1.00
C785   C     0.88780   0.91821   0.97704   0.00000  Uiso   1.00
C786   C     0.77887   0.74846   0.52296   0.00000  Uiso   1.00
C787   C     0.85373   0.98502   0.74086   0.00000  Uiso   1.00
C788   C     0.81294   0.68164   0.75914   0.00000  Uiso   1.00
C789   C     0.83495   0.83460   0.83644   0.00000  Uiso   1.00
C790   C     0.83171   0.83207   0.66356   0.00000  Uiso   1.00
C791   C     0.79394   0.79585   0.59355   0.00000  Uiso   1.00
C792   C     0.87273   0.87081   0.90646   0.00000  Uiso   1.00
C793   C     0.82934   0.83213   0.61582   0.00000  Uiso   1.00
C794   C     0.83733   0.83454   0.88418   0.00000  Uiso   1.00
C795   C     0.86554   0.86837   0.59271   0.00000  Uiso   1.00
C796   C     0.80112   0.79830   0.90729   0.00000  Uiso   1.00
C797   C     0.86462   0.87182   0.54651   0.00000  Uiso   1.00
C798   C     0.80205   0.79485   0.95349   0.00000  Uiso   1.00
C799   C     0.83300   0.83267   0.52332   0.00000  Uiso   1.00
C800   C     0.83367   0.83400   0.97668   0.00000  Uiso   1.00
C801   C     0.80158   0.79169   0.54687   0.00000  Uiso   1.00
C802   C     0.86509   0.87498   0.95313   0.00000  Uiso   1.00
C803   C     0.89246   0.91442   0.52340   0.00000  Uiso   1.00
C804   C     0.77421   0.75225   0.97660   0.00000  Uiso   1.00
H805   H     0.89146   0.89566   0.61182   0.00000  Uiso   1.00
H806   H     0.77520   0.77101   0.88818   0.00000  Uiso   1.00
H807   H     0.67082   0.79201   0.71880   0.00000  Uiso   1.00
H808   H     0.99584   0.87466   0.78120   0.00000  Uiso   1.00
N809   N     0.98344   0.81932   0.73783   0.00000  Uiso   1.00
N810   N     0.68322   0.84735   0.76217   0.00000  Uiso   1.00
O811   O     0.79642   0.91286   0.75299   0.00000  Uiso   1.00
O812   O     0.87025   0.75381   0.74701   0.00000  Uiso   1.00
O813   O     0.89280   0.90387   0.74519   0.00000  Uiso   1.00
O814   O     0.77387   0.76279   0.75481   0.00000  Uiso   1.00
O815   O     0.78514   0.83784   0.81998   0.00000  Uiso   1.00
O816   O     0.88153   0.82883   0.68003   0.00000  Uiso   1.00
O817   O     0.88152   0.82885   0.81218   0.00000  Uiso   1.00
O818   O     0.78515   0.83781   0.68783   0.00000  Uiso   1.00
Zn819  Zn    0.76898   0.83933   0.75521   0.00000  Uiso   1.00
Zn820  Zn    0.89769   0.82734   0.74479   0.00000  Uiso   1.00
I821   I     0.71969   0.76008   0.62881   0.00000  Uiso   1.00
I822   I     0.94697   0.90659   0.87119   0.00000  Uiso   1.00
I823   I     0.93992   0.97486   0.55768   0.00000  Uiso   1.00
I824   I     0.72675   0.69181   0.94232   0.00000  Uiso   1.00
I825   I     0.89274   0.99487   0.94833   0.00000  Uiso   1.00
I826   I     0.77393   0.67180   0.55167   0.00000  Uiso   1.00
I827   I     0.91698   0.67318   0.68849   0.00000  Uiso   1.00
I828   I     0.74968   0.99348   0.81151   0.00000  Uiso   1.00
loop_
_geom_bond_atom_site_label_1
_geom_bond_atom_site_label_2
_geom_bond_distance
_geom_bond_site_symmetry_2
_ccdc_geom_bond_type
C1     O31     1.290   .     A
C1     O29     1.274   .     A
C1     C5      1.398   .     S
C2     O30     1.274   .     A
C2     C6      1.398   .     S
C2     O32     1.290   .     A
C3     C20     1.412   .     A
C3     I43     2.151   .     S
C3     C435    1.400   .     S
C4     C19     1.412   .     A
C4     I44     2.151   .     S
C4     C436    1.400   1_554 S
C5     C144    1.348   .     S
C5     I183    2.151   .     S
C6     C281    1.348   1_545 S
C6     I322    2.151   1_545 S
C7     C12     1.431   .     S
C7     O33     1.289   .     A
C7     O35     1.290   .     A
C8     C11     1.431   .     S
C8     O36     1.290   .     A
C8     O34     1.289   .     A
C9     C11     1.400   .     A
C9     C19     1.402   .     A
C9     I39     2.148   .     S
C10    C12     1.400   .     A
C10    I40     2.148   .     S
C10    C20     1.402   .     A
C11    C13     1.388   .     A
C12    C14     1.388   .     A
C13    C15     1.385   .     A
C13    H23     1.081   .     S
C14    C16     1.385   .     A
C14    H24     1.081   .     S
C15    C21     1.410   .     A
C15    C17     1.415   .     A
C16    C18     1.415   .     A
C16    C22     1.410   .     A
C17    C19     1.421   .     A
C17    C432    1.394   1_554 S
C18    C20     1.421   .     A
C18    C431    1.394   .     S
C21    I41     2.145   .     S
C21    C417    1.400   1_554 S
C22    I42     2.145   .     S
C22    C418    1.400   .     S
H25    N119    1.027   1_455 S
H26    N74     1.027   .     S
N27    Zn38    2.020   .     S
N27    H71     1.027   .     S
N27    N74     1.279   .     S
N28    Zn37    2.020   .     S
N28    H118    1.027   1_455 S
N28    N119    1.279   1_455 S
O29    Zn37    1.965   .     S
O30    Zn38    1.965   .     S
O31    Zn38    1.979   .     S
O32    Zn37    1.979   .     S
O33    Zn37    1.991   .     S
O34    Zn38    1.991   .     S
O35    Zn38    2.031   .     S
O36    Zn37    2.031   .     S
I45    C281    2.151   1_545 S
I46    C144    2.151   .     S
C47    O77     1.290   .     A
C47    O75     1.274   .     A
C47    C51     1.398   .     S
C48    O76     1.274   .     A
C48    C52     1.398   .     S
C48    O78     1.290   .     A
C49    C66     1.412   .     A
C49    I89     2.151   .     S
C49    C481    1.400   .     S
C50    C65     1.412   .     A
C50    I90     2.151   .     S
C50    C482    1.400   1_554 S
C51    C190    1.348   .     S
C51    I229    2.151   .     S
C52    C327    1.348   1_545 S
C52    I368    2.151   1_545 S
C53    C58     1.431   .     S
C53    O79     1.289   .     A
C53    O81     1.290   .     A
C54    C57     1.431   .     S
C54    O82     1.290   .     A
C54    O80     1.289   .     A
C55    C57     1.400   .     A
C55    C65     1.402   .     A
C55    I85     2.148   .     S
C56    C58     1.400   .     A
C56    I86     2.148   .     S
C56    C66     1.402   .     A
C57    C59     1.388   .     A
C58    C60     1.388   .     A
C59    C61     1.385   .     A
C59    H69     1.081   .     S
C60    C62     1.385   .     A
C60    H70     1.081   .     S
C61    C67     1.410   .     A
C61    C63     1.415   .     A
C62    C64     1.415   .     A
C62    C68     1.410   .     A
C63    C65     1.421   .     A
C63    C478    1.394   1_554 S
C64    C66     1.421   .     A
C64    C477    1.394   .     S
C67    I87     2.145   .     S
C67    C463    1.400   1_554 S
C68    I88     2.145   .     S
C68    C464    1.400   .     S
H72    N120    1.027   .     S
N73    Zn84    2.020   .     S
N73    H117    1.027   .     S
N73    N120    1.279   .     S
N74    Zn83    2.020   .     S
O75    Zn83    1.965   .     S
O76    Zn84    1.965   .     S
O77    Zn84    1.979   .     S
O78    Zn83    1.979   .     S
O79    Zn83    1.991   .     S
O80    Zn84    1.991   .     S
O81    Zn84    2.031   .     S
O82    Zn83    2.031   .     S
I91    C327    2.151   1_545 S
I92    C190    2.151   .     S
C93    O123    1.290   .     A
C93    O121    1.274   .     A
C93    C97     1.398   .     S
C94    O122    1.274   .     A
C94    C98     1.398   .     S
C94    O124    1.290   .     A
C95    C112    1.412   .     A
C95    I135    2.151   .     S
C95    C527    1.400   .     S
C96    C111    1.412   .     A
C96    I136    2.151   .     S
C96    C528    1.400   1_554 S
C97    C236    1.348   .     S
C97    I275    2.151   .     S
C98    C373    1.348   1_545 S
C98    I414    2.151   1_545 S
C99    C104    1.431   .     S
C99    O125    1.289   .     A
C99    O127    1.290   .     A
C100   C103    1.431   .     S
C100   O128    1.290   .     A
C100   O126    1.289   .     A
C101   C103    1.400   .     A
C101   C111    1.402   .     A
C101   I131    2.148   .     S
C102   C104    1.400   .     A
C102   I132    2.148   .     S
C102   C112    1.402   .     A
C103   C105    1.388   .     A
C104   C106    1.388   .     A
C105   C107    1.385   .     A
C105   H115    1.081   .     S
C106   C108    1.385   .     A
C106   H116    1.081   .     S
C107   C113    1.410   .     A
C107   C109    1.415   .     A
C108   C110    1.415   .     A
C108   C114    1.410   .     A
C109   C111    1.421   .     A
C109   C524    1.394   1_554 S
C110   C112    1.421   .     A
C110   C523    1.394   .     S
C113   I133    2.145   .     S
C113   C509    1.400   1_554 S
C114   I134    2.145   .     S
C114   C510    1.400   .     S
H118   N28     1.027   1_655 S
N119   Zn130   2.020   .     S
N119   H25     1.027   1_655 S
N119   N28     1.279   1_655 S
N120   Zn129   2.020   .     S
O121   Zn129   1.965   .     S
O122   Zn130   1.965   .     S
O123   Zn130   1.979   .     S
O124   Zn129   1.979   .     S
O125   Zn129   1.991   .     S
O126   Zn130   1.991   .     S
O127   Zn130   2.031   .     S
O128   Zn129   2.031   .     S
I137   C373    2.151   1_545 S
I138   C236    2.151   .     S
C139   O169    1.290   .     A
C139   O167    1.274   .     A
C139   C143    1.398   .     S
C140   O168    1.274   .     A
C140   C144    1.398   .     S
C140   O170    1.290   .     A
C141   C158    1.412   .     A
C141   I181    2.151   .     S
C141   C573    1.400   .     S
C142   C157    1.412   .     A
C142   I182    2.151   .     S
C142   C574    1.400   1_554 S
C143   C282    1.348   .     S
C143   I321    2.151   .     S
C145   C150    1.431   .     S
C145   O171    1.289   .     A
C145   O173    1.290   .     A
C146   C149    1.431   .     S
C146   O174    1.290   .     A
C146   O172    1.289   .     A
C147   C149    1.400   .     A
C147   C157    1.402   .     A
C147   I177    2.148   .     S
C148   C150    1.400   .     A
C148   I178    2.148   .     S
C148   C158    1.402   .     A
C149   C151    1.388   .     A
C150   C152    1.388   .     A
C151   C153    1.385   .     A
C151   H161    1.081   .     S
C152   C154    1.385   .     A
C152   H162    1.081   .     S
C153   C159    1.410   .     A
C153   C155    1.415   .     A
C154   C156    1.415   .     A
C154   C160    1.410   .     A
C155   C157    1.421   .     A
C155   C570    1.394   1_554 S
C156   C158    1.421   .     A
C156   C569    1.394   .     S
C159   I179    2.145   .     S
C159   C555    1.400   1_554 S
C160   I180    2.145   .     S
C160   C556    1.400   .     S
H163   N257    1.027   1_455 S
H164   N212    1.027   .     S
N165   Zn176   2.020   .     S
N165   H209    1.027   .     S
N165   N212    1.279   .     S
N166   Zn175   2.020   .     S
N166   H256    1.027   1_455 S
N166   N257    1.279   1_455 S
O167   Zn175   1.965   .     S
O168   Zn176   1.965   .     S
O169   Zn176   1.979   .     S
O170   Zn175   1.979   .     S
O171   Zn175   1.991   .     S
O172   Zn176   1.991   .     S
O173   Zn176   2.031   .     S
O174   Zn175   2.031   .     S
I184   C282    2.151   .     S
C185   O215    1.290   .     A
C185   O213    1.274   .     A
C185   C189    1.398   .     S
C186   O214    1.274   .     A
C186   C190    1.398   .     S
C186   O216    1.290   .     A
C187   C204    1.412   .     A
C187   I227    2.151   .     S
C187   C619    1.400   .     S
C188   C203    1.412   .     A
C188   I228    2.151   .     S
C188   C620    1.400   1_554 S
C189   C328    1.348   .     S
C189   I367    2.151   .     S
C191   C196    1.431   .     S
C191   O217    1.289   .     A
C191   O219    1.290   .     A
C192   C195    1.431   .     S
C192   O220    1.290   .     A
C192   O218    1.289   .     A
C193   C195    1.400   .     A
C193   C203    1.402   .     A
C193   I223    2.148   .     S
C194   C196    1.400   .     A
C194   I224    2.148   .     S
C194   C204    1.402   .     A
C195   C197    1.388   .     A
C196   C198    1.388   .     A
C197   C199    1.385   .     A
C197   H207    1.081   .     S
C198   C200    1.385   .     A
C198   H208    1.081   .     S
C199   C205    1.410   .     A
C199   C201    1.415   .     A
C200   C202    1.415   .     A
C200   C206    1.410   .     A
C201   C203    1.421   .     A
C201   C616    1.394   1_554 S
C202   C204    1.421   .     A
C202   C615    1.394   .     S
C205   I225    2.145   .     S
C205   C601    1.400   1_554 S
C206   I226    2.145   .     S
C206   C602    1.400   .     S
H210   N258    1.027   .     S
N211   Zn222   2.020   .     S
N211   H255    1.027   .     S
N211   N258    1.279   .     S
N212   Zn221   2.020   .     S
O213   Zn221   1.965   .     S
O214   Zn222   1.965   .     S
O215   Zn222   1.979   .     S
O216   Zn221   1.979   .     S
O217   Zn221   1.991   .     S
O218   Zn222   1.991   .     S
O219   Zn222   2.031   .     S
O220   Zn221   2.031   .     S
I230   C328    2.151   .     S
C231   O261    1.290   .     A
C231   O259    1.274   .     A
C231   C235    1.398   .     S
C232   O260    1.274   .     A
C232   C236    1.398   .     S
C232   O262    1.290   .     A
C233   C250    1.412   .     A
C233   I273    2.151   .     S
C233   C665    1.400   .     S
C234   C249    1.412   .     A
C234   I274    2.151   .     S
C234   C666    1.400   1_554 S
C235   C374    1.348   .     S
C235   I413    2.151   .     S
C237   C242    1.431   .     S
C237   O263    1.289   .     A
C237   O265    1.290   .     A
C238   C241    1.431   .     S
C238   O266    1.290   .     A
C238   O264    1.289   .     A
C239   C241    1.400   .     A
C239   C249    1.402   .     A
C239   I269    2.148   .     S
C240   C242    1.400   .     A
C240   I270    2.148   .     S
C240   C250    1.402   .     A
C241   C243    1.388   .     A
C242   C244    1.388   .     A
C243   C245    1.385   .     A
C243   H253    1.081   .     S
C244   C246    1.385   .     A
C244   H254    1.081   .     S
C245   C251    1.410   .     A
C245   C247    1.415   .     A
C246   C248    1.415   .     A
C246   C252    1.410   .     A
C247   C249    1.421   .     A
C247   C662    1.394   1_554 S
C248   C250    1.421   .     A
C248   C661    1.394   .     S
C251   I271    2.145   .     S
C251   C647    1.400   1_554 S
C252   I272    2.145   .     S
C252   C648    1.400   .     S
H256   N166    1.027   1_655 S
N257   Zn268   2.020   .     S
N257   H163    1.027   1_655 S
N257   N166    1.279   1_655 S
N258   Zn267   2.020   .     S
O259   Zn267   1.965   .     S
O260   Zn268   1.965   .     S
O261   Zn268   1.979   .     S
O262   Zn267   1.979   .     S
O263   Zn267   1.991   .     S
O264   Zn268   1.991   .     S
O265   Zn268   2.031   .     S
O266   Zn267   2.031   .     S
I276   C374    2.151   .     S
C277   O307    1.290   .     A
C277   O305    1.274   .     A
C277   C281    1.398   .     S
C278   O306    1.274   .     A
C278   C282    1.398   .     S
C278   O308    1.290   .     A
C279   C296    1.412   .     A
C279   I319    2.151   .     S
C279   C711    1.400   .     S
C280   C295    1.412   .     A
C280   I320    2.151   .     S
C280   C712    1.400   1_554 S
C281   C6      1.348   1_565 S
C281   I45     2.151   1_565 S
C283   C288    1.431   .     S
C283   O309    1.289   .     A
C283   O311    1.290   .     A
C284   C287    1.431   .     S
C284   O312    1.290   .     A
C284   O310    1.289   .     A
C285   C287    1.400   .     A
C285   C295    1.402   .     A
C285   I315    2.148   .     S
C286   C288    1.400   .     A
C286   I316    2.148   .     S
C286   C296    1.402   .     A
C287   C289    1.388   .     A
C288   C290    1.388   .     A
C289   C291    1.385   .     A
C289   H299    1.081   .     S
C290   C292    1.385   .     A
C290   H300    1.081   .     S
C291   C297    1.410   .     A
C291   C293    1.415   .     A
C292   C294    1.415   .     A
C292   C298    1.410   .     A
C293   C295    1.421   .     A
C293   C708    1.394   1_554 S
C294   C296    1.421   .     A
C294   C707    1.394   .     S
C297   I317    2.145   .     S
C297   C693    1.400   1_554 S
C298   I318    2.145   .     S
C298   C694    1.400   .     S
H301   N395    1.027   1_455 S
H302   N350    1.027   .     S
N303   Zn314   2.020   .     S
N303   H347    1.027   .     S
N303   N350    1.279   .     S
N304   Zn313   2.020   .     S
N304   H394    1.027   1_455 S
N304   N395    1.279   1_455 S
O305   Zn313   1.965   .     S
O306   Zn314   1.965   .     S
O307   Zn314   1.979   .     S
O308   Zn313   1.979   .     S
O309   Zn313   1.991   .     S
O310   Zn314   1.991   .     S
O311   Zn314   2.031   .     S
O312   Zn313   2.031   .     S
I322   C6      2.151   1_565 S
C323   O353    1.290   .     A
C323   O351    1.274   .     A
C323   C327    1.398   .     S
C324   O352    1.274   .     A
C324   C328    1.398   .     S
C324   O354    1.290   .     A
C325   C342    1.412   .     A
C325   I365    2.151   .     S
C325   C757    1.400   .     S
C326   C341    1.412   .     A
C326   I366    2.151   .     S
C326   C758    1.400   1_554 S
C327   C52     1.348   1_565 S
C327   I91     2.151   1_565 S
C329   C334    1.431   .     S
C329   O355    1.289   .     A
C329   O357    1.290   .     A
C330   C333    1.431   .     S
C330   O358    1.290   .     A
C330   O356    1.289   .     A
C331   C333    1.400   .     A
C331   C341    1.402   .     A
C331   I361    2.148   .     S
C332   C334    1.400   .     A
C332   I362    2.148   .     S
C332   C342    1.402   .     A
C333   C335    1.388   .     A
C334   C336    1.388   .     A
C335   C337    1.385   .     A
C335   H345    1.081   .     S
C336   C338    1.385   .     A
C336   H346    1.081   .     S
C337   C343    1.410   .     A
C337   C339    1.415   .     A
C338   C340    1.415   .     A
C338   C344    1.410   .     A
C339   C341    1.421   .     A
C339   C754    1.394   1_554 S
C340   C342    1.421   .     A
C340   C753    1.394   .     S
C343   I363    2.145   .     S
C343   C739    1.400   1_554 S
C344   I364    2.145   .     S
C344   C740    1.400   .     S
H348   N396    1.027   .     S
N349   Zn360   2.020   .     S
N349   H393    1.027   .     S
N349   N396    1.279   .     S
N350   Zn359   2.020   .     S
O351   Zn359   1.965   .     S
O352   Zn360   1.965   .     S
O353   Zn360   1.979   .     S
O354   Zn359   1.979   .     S
O355   Zn359   1.991   .     S
O356   Zn360   1.991   .     S
O357   Zn360   2.031   .     S
O358   Zn359   2.031   .     S
I368   C52     2.151   1_565 S
C369   O399    1.290   .     A
C369   O397    1.274   .     A
C369   C373    1.398   .     S
C370   O398    1.274   .     A
C370   C374    1.398   .     S
C370   O400    1.290   .     A
C371   C388    1.412   .     A
C371   I411    2.151   .     S
C371   C803    1.400   .     S
C372   C387    1.412   .     A
C372   I412    2.151   .     S
C372   C804    1.400   1_554 S
C373   C98     1.348   1_565 S
C373   I137    2.151   1_565 S
C375   C380    1.431   .     S
C375   O401    1.289   .     A
C375   O403    1.290   .     A
C376   C379    1.431   .     S
C376   O404    1.290   .     A
C376   O402    1.289   .     A
C377   C379    1.400   .     A
C377   C387    1.402   .     A
C377   I407    2.148   .     S
C378   C380    1.400   .     A
C378   I408    2.148   .     S
C378   C388    1.402   .     A
C379   C381    1.388   .     A
C380   C382    1.388   .     A
C381   C383    1.385   .     A
C381   H391    1.081   .     S
C382   C384    1.385   .     A
C382   H392    1.081   .     S
C383   C389    1.410   .     A
C383   C385    1.415   .     A
C384   C386    1.415   .     A
C384   C390    1.410   .     A
C385   C387    1.421   .     A
C385   C800    1.394   1_554 S
C386   C388    1.421   .     A
C386   C799    1.394   .     S
C389   I409    2.145   .     S
C389   C785    1.400   1_554 S
C390   I410    2.145   .     S
C390   C786    1.400   .     S
H394   N304    1.027   1_655 S
N395   Zn406   2.020   .     S
N395   H301    1.027   1_655 S
N395   N304    1.279   1_655 S
N396   Zn405   2.020   .     S
O397   Zn405   1.965   .     S
O398   Zn406   1.965   .     S
O399   Zn406   1.979   .     S
O400   Zn405   1.979   .     S
O401   Zn405   1.991   .     S
O402   Zn406   1.991   .     S
O403   Zn406   2.031   .     S
O404   Zn405   2.031   .     S
I414   C98     2.151   1_565 S
C415   O445    1.290   .     A
C415   O443    1.274   .     A
C415   C419    1.398   .     S
C416   O444    1.274   .     A
C416   C420    1.398   .     S
C416   O446    1.290   .     A
C417   C434    1.412   .     A
C417   I457    2.151   .     S
C417   C21     1.400   1_556 S
C418   C433    1.412   .     A
C418   I458    2.151   .     S
C419   C558    1.348   .     S
C419   I597    2.151   .     S
C420   C695    1.348   1_545 S
C420   I736    2.151   1_545 S
C421   C426    1.431   .     S
C421   O447    1.289   .     A
C421   O449    1.290   .     A
C422   C425    1.431   .     S
C422   O450    1.290   .     A
C422   O448    1.289   .     A
C423   C425    1.400   .     A
C423   C433    1.402   .     A
C423   I453    2.148   .     S
C424   C426    1.400   .     A
C424   I454    2.148   .     S
C424   C434    1.402   .     A
C425   C427    1.388   .     A
C426   C428    1.388   .     A
C427   C429    1.385   .     A
C427   H437    1.081   .     S
C428   C430    1.385   .     A
C428   H438    1.081   .     S
C429   C435    1.410   .     A
C429   C431    1.415   .     A
C430   C432    1.415   .     A
C430   C436    1.410   .     A
C431   C433    1.421   .     A
C432   C434    1.421   .     A
C432   C17     1.394   1_556 S
C435   I455    2.145   .     S
C436   I456    2.145   .     S
C436   C4      1.400   1_556 S
H439   N533    1.027   1_455 S
H440   N488    1.027   .     S
N441   Zn452   2.020   .     S
N441   H485    1.027   .     S
N441   N488    1.279   .     S
N442   Zn451   2.020   .     S
N442   H532    1.027   1_455 S
N442   N533    1.279   1_455 S
O443   Zn451   1.965   .     S
O444   Zn452   1.965   .     S
O445   Zn452   1.979   .     S
O446   Zn451   1.979   .     S
O447   Zn451   1.991   .     S
O448   Zn452   1.991   .     S
O449   Zn452   2.031   .     S
O450   Zn451   2.031   .     S
I459   C695    2.151   1_545 S
I460   C558    2.151   .     S
C461   O491    1.290   .     A
C461   O489    1.274   .     A
C461   C465    1.398   .     S
C462   O490    1.274   .     A
C462   C466    1.398   .     S
C462   O492    1.290   .     A
C463   C480    1.412   .     A
C463   I503    2.151   .     S
C463   C67     1.400   1_556 S
C464   C479    1.412   .     A
C464   I504    2.151   .     S
C465   C604    1.348   .     S
C465   I643    2.151   .     S
C466   C741    1.348   1_545 S
C466   I782    2.151   1_545 S
C467   C472    1.431   .     S
C467   O493    1.289   .     A
C467   O495    1.290   .     A
C468   C471    1.431   .     S
C468   O496    1.290   .     A
C468   O494    1.289   .     A
C469   C471    1.400   .     A
C469   C479    1.402   .     A
C469   I499    2.148   .     S
C470   C472    1.400   .     A
C470   I500    2.148   .     S
C470   C480    1.402   .     A
C471   C473    1.388   .     A
C472   C474    1.388   .     A
C473   C475    1.385   .     A
C473   H483    1.081   .     S
C474   C476    1.385   .     A
C474   H484    1.081   .     S
C475   C481    1.410   .     A
C475   C477    1.415   .     A
C476   C478    1.415   .     A
C476   C482    1.410   .     A
C477   C479    1.421   .     A
C478   C480    1.421   .     A
C478   C63     1.394   1_556 S
C481   I501    2.145   .     S
C482   I502    2.145   .     S
C482   C50     1.400   1_556 S
H486   N534    1.027   .     S
N487   Zn498   2.020   .     S
N487   H531    1.027   .     S
N487   N534    1.279   .     S
N488   Zn497   2.020   .     S
O489   Zn497   1.965   .     S
O490   Zn498   1.965   .     S
O491   Zn498   1.979   .     S
O492   Zn497   1.979   .     S
O493   Zn497   1.991   .     S
O494   Zn498   1.991   .     S
O495   Zn498   2.031   .     S
O496   Zn497   2.031   .     S
I505   C741    2.151   1_545 S
I506   C604    2.151   .     S
C507   O537    1.290   .     A
C507   O535    1.274   .     A
C507   C511    1.398   .     S
C508   O536    1.274   .     A
C508   C512    1.398   .     S
C508   O538    1.290   .     A
C509   C526    1.412   .     A
C509   I549    2.151   .     S
C509   C113    1.400   1_556 S
C510   C525    1.412   .     A
C510   I550    2.151   .     S
C511   C650    1.348   .     S
C511   I689    2.151   .     S
C512   C787    1.348   1_545 S
C512   I828    2.151   1_545 S
C513   C518    1.431   .     S
C513   O539    1.289   .     A
C513   O541    1.290   .     A
C514   C517    1.431   .     S
C514   O542    1.290   .     A
C514   O540    1.289   .     A
C515   C517    1.400   .     A
C515   C525    1.402   .     A
C515   I545    2.148   .     S
C516   C518    1.400   .     A
C516   I546    2.148   .     S
C516   C526    1.402   .     A
C517   C519    1.388   .     A
C518   C520    1.388   .     A
C519   C521    1.385   .     A
C519   H529    1.081   .     S
C520   C522    1.385   .     A
C520   H530    1.081   .     S
C521   C527    1.410   .     A
C521   C523    1.415   .     A
C522   C524    1.415   .     A
C522   C528    1.410   .     A
C523   C525    1.421   .     A
C524   C526    1.421   .     A
C524   C109    1.394   1_556 S
C527   I547    2.145   .     S
C528   I548    2.145   .     S
C528   C96     1.400   1_556 S
H532   N442    1.027   1_655 S
N533   Zn544   2.020   .     S
N533   H439    1.027   1_655 S
N533   N442    1.279   1_655 S
N534   Zn543   2.020   .     S
O535   Zn543   1.965   .     S
O536   Zn544   1.965   .     S
O537   Zn544   1.979   .     S
O538   Zn543   1.979   .     S
O539   Zn543   1.991   .     S
O540   Zn544   1.991   .     S
O541   Zn544   2.031   .     S
O542   Zn543   2.031   .     S
I551   C787    2.151   1_545 S
I552   C650    2.151   .     S
C553   O583    1.290   .     A
C553   O581    1.274   .     A
C553   C557    1.398   .     S
C554   O582    1.274   .     A
C554   C558    1.398   .     S
C554   O584    1.290   .     A
C555   C572    1.412   .     A
C555   I595    2.151   .     S
C555   C159    1.400   1_556 S
C556   C571    1.412   .     A
C556   I596    2.151   .     S
C557   C696    1.348   .     S
C557   I735    2.151   .     S
C559   C564    1.431   .     S
C559   O585    1.289   .     A
C559   O587    1.290   .     A
C560   C563    1.431   .     S
C560   O588    1.290   .     A
C560   O586    1.289   .     A
C561   C563    1.400   .     A
C561   C571    1.402   .     A
C561   I591    2.148   .     S
C562   C564    1.400   .     A
C562   I592    2.148   .     S
C562   C572    1.402   .     A
C563   C565    1.388   .     A
C564   C566    1.388   .     A
C565   C567    1.385   .     A
C565   H575    1.081   .     S
C566   C568    1.385   .     A
C566   H576    1.081   .     S
C567   C573    1.410   .     A
C567   C569    1.415   .     A
C568   C570    1.415   .     A
C568   C574    1.410   .     A
C569   C571    1.421   .     A
C570   C572    1.421   .     A
C570   C155    1.394   1_556 S
C573   I593    2.145   .     S
C574   I594    2.145   .     S
C574   C142    1.400   1_556 S
H577   N671    1.027   1_455 S
H578   N626    1.027   .     S
N579   Zn590   2.020   .     S
N579   H623    1.027   .     S
N579   N626    1.279   .     S
N580   Zn589   2.020   .     S
N580   H670    1.027   1_455 S
N580   N671    1.279   1_455 S
O581   Zn589   1.965   .     S
O582   Zn590   1.965   .     S
O583   Zn590   1.979   .     S
O584   Zn589   1.979   .     S
O585   Zn589   1.991   .     S
O586   Zn590   1.991   .     S
O587   Zn590   2.031   .     S
O588   Zn589   2.031   .     S
I598   C696    2.151   .     S
C599   O629    1.290   .     A
C599   O627    1.274   .     A
C599   C603    1.398   .     S
C600   O628    1.274   .     A
C600   C604    1.398   .     S
C600   O630    1.290   .     A
C601   C618    1.412   .     A
C601   I641    2.151   .     S
C601   C205    1.400   1_556 S
C602   C617    1.412   .     A
C602   I642    2.151   .     S
C603   C742    1.348   .     S
C603   I781    2.151   .     S
C605   C610    1.431   .     S
C605   O631    1.289   .     A
C605   O633    1.290   .     A
C606   C609    1.431   .     S
C606   O634    1.290   .     A
C606   O632    1.289   .     A
C607   C609    1.400   .     A
C607   C617    1.402   .     A
C607   I637    2.148   .     S
C608   C610    1.400   .     A
C608   I638    2.148   .     S
C608   C618    1.402   .     A
C609   C611    1.388   .     A
C610   C612    1.388   .     A
C611   C613    1.385   .     A
C611   H621    1.081   .     S
C612   C614    1.385   .     A
C612   H622    1.081   .     S
C613   C619    1.410   .     A
C613   C615    1.415   .     A
C614   C616    1.415   .     A
C614   C620    1.410   .     A
C615   C617    1.421   .     A
C616   C618    1.421   .     A
C616   C201    1.394   1_556 S
C619   I639    2.145   .     S
C620   I640    2.145   .     S
C620   C188    1.400   1_556 S
H624   N672    1.027   .     S
N625   Zn636   2.020   .     S
N625   H669    1.027   .     S
N625   N672    1.279   .     S
N626   Zn635   2.020   .     S
O627   Zn635   1.965   .     S
O628   Zn636   1.965   .     S
O629   Zn636   1.979   .     S
O630   Zn635   1.979   .     S
O631   Zn635   1.991   .     S
O632   Zn636   1.991   .     S
O633   Zn636   2.031   .     S
O634   Zn635   2.031   .     S
I644   C742    2.151   .     S
C645   O675    1.290   .     A
C645   O673    1.274   .     A
C645   C649    1.398   .     S
C646   O674    1.274   .     A
C646   C650    1.398   .     S
C646   O676    1.290   .     A
C647   C664    1.412   .     A
C647   I687    2.151   .     S
C647   C251    1.400   1_556 S
C648   C663    1.412   .     A
C648   I688    2.151   .     S
C649   C788    1.348   .     S
C649   I827    2.151   .     S
C651   C656    1.431   .     S
C651   O677    1.289   .     A
C651   O679    1.290   .     A
C652   C655    1.431   .     S
C652   O680    1.290   .     A
C652   O678    1.289   .     A
C653   C655    1.400   .     A
C653   C663    1.402   .     A
C653   I683    2.148   .     S
C654   C656    1.400   .     A
C654   I684    2.148   .     S
C654   C664    1.402   .     A
C655   C657    1.388   .     A
C656   C658    1.388   .     A
C657   C659    1.385   .     A
C657   H667    1.081   .     S
C658   C660    1.385   .     A
C658   H668    1.081   .     S
C659   C665    1.410   .     A
C659   C661    1.415   .     A
C660   C662    1.415   .     A
C660   C666    1.410   .     A
C661   C663    1.421   .     A
C662   C664    1.421   .     A
C662   C247    1.394   1_556 S
C665   I685    2.145   .     S
C666   I686    2.145   .     S
C666   C234    1.400   1_556 S
H670   N580    1.027   1_655 S
N671   Zn682   2.020   .     S
N671   H577    1.027   1_655 S
N671   N580    1.279   1_655 S
N672   Zn681   2.020   .     S
O673   Zn681   1.965   .     S
O674   Zn682   1.965   .     S
O675   Zn682   1.979   .     S
O676   Zn681   1.979   .     S
O677   Zn681   1.991   .     S
O678   Zn682   1.991   .     S
O679   Zn682   2.031   .     S
O680   Zn681   2.031   .     S
I690   C788    2.151   .     S
C691   O721    1.290   .     A
C691   O719    1.274   .     A
C691   C695    1.398   .     S
C692   O720    1.274   .     A
C692   C696    1.398   .     S
C692   O722    1.290   .     A
C693   C710    1.412   .     A
C693   I733    2.151   .     S
C693   C297    1.400   1_556 S
C694   C709    1.412   .     A
C694   I734    2.151   .     S
C695   C420    1.348   1_565 S
C695   I459    2.151   1_565 S
C697   C702    1.431   .     S
C697   O723    1.289   .     A
C697   O725    1.290   .     A
C698   C701    1.431   .     S
C698   O726    1.290   .     A
C698   O724    1.289   .     A
C699   C701    1.400   .     A
C699   C709    1.402   .     A
C699   I729    2.148   .     S
C700   C702    1.400   .     A
C700   I730    2.148   .     S
C700   C710    1.402   .     A
C701   C703    1.388   .     A
C702   C704    1.388   .     A
C703   C705    1.385   .     A
C703   H713    1.081   .     S
C704   C706    1.385   .     A
C704   H714    1.081   .     S
C705   C711    1.410   .     A
C705   C707    1.415   .     A
C706   C708    1.415   .     A
C706   C712    1.410   .     A
C707   C709    1.421   .     A
C708   C710    1.421   .     A
C708   C293    1.394   1_556 S
C711   I731    2.145   .     S
C712   I732    2.145   .     S
C712   C280    1.400   1_556 S
H715   N809    1.027   1_455 S
H716   N764    1.027   .     S
N717   Zn728   2.020   .     S
N717   H761    1.027   .     S
N717   N764    1.279   .     S
N718   Zn727   2.020   .     S
N718   H808    1.027   1_455 S
N718   N809    1.279   1_455 S
O719   Zn727   1.965   .     S
O720   Zn728   1.965   .     S
O721   Zn728   1.979   .     S
O722   Zn727   1.979   .     S
O723   Zn727   1.991   .     S
O724   Zn728   1.991   .     S
O725   Zn728   2.031   .     S
O726   Zn727   2.031   .     S
I736   C420    2.151   1_565 S
C737   O767    1.290   .     A
C737   O765    1.274   .     A
C737   C741    1.398   .     S
C738   O766    1.274   .     A
C738   C742    1.398   .     S
C738   O768    1.290   .     A
C739   C756    1.412   .     A
C739   I779    2.151   .     S
C739   C343    1.400   1_556 S
C740   C755    1.412   .     A
C740   I780    2.151   .     S
C741   C466    1.348   1_565 S
C741   I505    2.151   1_565 S
C743   C748    1.431   .     S
C743   O769    1.289   .     A
C743   O771    1.290   .     A
C744   C747    1.431   .     S
C744   O772    1.290   .     A
C744   O770    1.289   .     A
C745   C747    1.400   .     A
C745   C755    1.402   .     A
C745   I775    2.148   .     S
C746   C748    1.400   .     A
C746   I776    2.148   .     S
C746   C756    1.402   .     A
C747   C749    1.388   .     A
C748   C750    1.388   .     A
C749   C751    1.385   .     A
C749   H759    1.081   .     S
C750   C752    1.385   .     A
C750   H760    1.081   .     S
C751   C757    1.410   .     A
C751   C753    1.415   .     A
C752   C754    1.415   .     A
C752   C758    1.410   .     A
C753   C755    1.421   .     A
C754   C756    1.421   .     A
C754   C339    1.394   1_556 S
C757   I777    2.145   .     S
C758   I778    2.145   .     S
C758   C326    1.400   1_556 S
H762   N810    1.027   .     S
N763   Zn774   2.020   .     S
N763   H807    1.027   .     S
N763   N810    1.279   .     S
N764   Zn773   2.020   .     S
O765   Zn773   1.965   .     S
O766   Zn774   1.965   .     S
O767   Zn774   1.979   .     S
O768   Zn773   1.979   .     S
O769   Zn773   1.991   .     S
O770   Zn774   1.991   .     S
O771   Zn774   2.031   .     S
O772   Zn773   2.031   .     S
I782   C466    2.151   1_565 S
C783   O813    1.290   .     A
C783   O811    1.274   .     A
C783   C787    1.398   .     S
C784   O812    1.274   .     A
C784   C788    1.398   .     S
C784   O814    1.290   .     A
C785   C802    1.412   .     A
C785   I825    2.151   .     S
C785   C389    1.400   1_556 S
C786   C801    1.412   .     A
C786   I826    2.151   .     S
C787   C512    1.348   1_565 S
C787   I551    2.151   1_565 S
C789   C794    1.431   .     S
C789   O815    1.289   .     A
C789   O817    1.290   .     A
C790   C793    1.431   .     S
C790   O818    1.290   .     A
C790   O816    1.289   .     A
C791   C793    1.400   .     A
C791   C801    1.402   .     A
C791   I821    2.148   .     S
C792   C794    1.400   .     A
C792   I822    2.148   .     S
C792   C802    1.402   .     A
C793   C795    1.388   .     A
C794   C796    1.388   .     A
C795   C797    1.385   .     A
C795   H805    1.081   .     S
C796   C798    1.385   .     A
C796   H806    1.081   .     S
C797   C803    1.410   .     A
C797   C799    1.415   .     A
C798   C800    1.415   .     A
C798   C804    1.410   .     A
C799   C801    1.421   .     A
C800   C802    1.421   .     A
C800   C385    1.394   1_556 S
C803   I823    2.145   .     S
C804   I824    2.145   .     S
C804   C372    1.400   1_556 S
H808   N718    1.027   1_655 S
N809   Zn820   2.020   .     S
N809   H715    1.027   1_655 S
N809   N718    1.279   1_655 S
N810   Zn819   2.020   .     S
O811   Zn819   1.965   .     S
O812   Zn820   1.965   .     S
O813   Zn820   1.979   .     S
O814   Zn819   1.979   .     S
O815   Zn819   1.991   .     S
O816   Zn820   1.991   .     S
O817   Zn820   2.031   .     S
O818   Zn819   2.031   .     S
I828   C512    2.151   1_565 S
