data_str_m2_o2_o10_pcu_sym.37
_audit_creation_date              2020-01-03
_audit_creation_method            'Materials Studio'
_symmetry_space_group_name_H-M    'P1'
_symmetry_Int_Tables_number       1
_symmetry_cell_setting            triclinic
loop_
_symmetry_equiv_pos_as_xyz
  x,y,z
_cell_length_a                    26.1848
_cell_length_b                    30.3185
_cell_length_c                    27.7974
_cell_angle_alpha                 89.9752
_cell_angle_beta                  97.9092
_cell_angle_gamma                 90.8556
loop_
_atom_site_label
_atom_site_type_symbol
_atom_site_fract_x
_atom_site_fract_y
_atom_site_fract_z
_atom_site_U_iso_or_equiv
_atom_site_adp_type
_atom_site_occupancy
C1     C     0.16690   0.16489   0.25002   0.00000  Uiso   1.00
C2     C     0.19879   0.27895   0.44991   0.00000  Uiso   1.00
C3     C     0.16660   0.25001   0.02720   0.00000  Uiso   1.00
C4     C     0.16659   0.25002   0.47247   0.00000  Uiso   1.00
C5     C     0.06793   0.24990   0.23758   0.00000  Uiso   1.00
C6     C     0.26541   0.25003   0.26243   0.00000  Uiso   1.00
C7     C     0.01266   0.24972   0.23075   0.00000  Uiso   1.00
C8     C     0.32070   0.25009   0.26929   0.00000  Uiso   1.00
C9     C     0.19348   0.04739   0.29045   0.00000  Uiso   1.00
C10    C     0.19395   0.45378   0.21945   0.00000  Uiso   1.00
C11    C     0.19356   0.09351   0.29048   0.00000  Uiso   1.00
C12    C     0.16642   0.33509   0.24995   0.00000  Uiso   1.00
C13    C     0.19283   0.40773   0.21749   0.00000  Uiso   1.00
C14    C     0.16734   0.11635   0.25017   0.00000  Uiso   1.00
C15    C     0.16593   0.38360   0.24996   0.00000  Uiso   1.00
C16    C     0.14145   0.09225   0.21020   0.00000  Uiso   1.00
C17    C     0.13866   0.40633   0.28267   0.00000  Uiso   1.00
C18    C     0.14028   0.04619   0.21182   0.00000  Uiso   1.00
C19    C     0.13869   0.45247   0.28267   0.00000  Uiso   1.00
C20    C     0.16644   0.02400   0.25156   0.00000  Uiso   1.00
C21    C     0.16671   0.47592   0.25159   0.00000  Uiso   1.00
C22    C     0.19920   0.11730   0.37392   0.00000  Uiso   1.00
C23    C     0.20764   0.26879   0.05921   0.00000  Uiso   1.00
C24    C     0.19292   0.38563   0.13442   0.00000  Uiso   1.00
C25    C     0.14379   0.11474   0.12752   0.00000  Uiso   1.00
C26    C     0.13089   0.38206   0.36408   0.00000  Uiso   1.00
C27    C     0.13439   0.22111   0.44159   0.00000  Uiso   1.00
C28    C     0.20657   0.26916   0.10962   0.00000  Uiso   1.00
C29    C     0.13430   0.22220   0.39103   0.00000  Uiso   1.00
C30    C     0.12667   0.23093   0.09934   0.00000  Uiso   1.00
C31    C     0.19895   0.27784   0.39940   0.00000  Uiso   1.00
C32    C     0.12556   0.23126   0.04864   0.00000  Uiso   1.00
Cu33   Cu    0.16667   0.24999   0.29822   0.00000  Uiso   1.00
Cu34   Cu    0.16667   0.25000   0.20179   0.00000  Uiso   1.00
F35    F     0.22028   0.02527   0.32807   0.00000  Uiso   1.00
F36    F     0.22132   0.47711   0.18964   0.00000  Uiso   1.00
F37    F     0.11390   0.02292   0.17433   0.00000  Uiso   1.00
F38    F     0.11091   0.47451   0.31256   0.00000  Uiso   1.00
F39    F     0.24596   0.28924   0.13846   0.00000  Uiso   1.00
F40    F     0.10151   0.19513   0.36239   0.00000  Uiso   1.00
F41    F     0.08715   0.21110   0.11808   0.00000  Uiso   1.00
F42    F     0.23164   0.30499   0.37922   0.00000  Uiso   1.00
H43    H     0.32606   0.24923   0.19378   0.00000  Uiso   1.00
H44    H     0.21981   0.14172   0.39966   0.00000  Uiso   1.00
H45    H     0.25746   0.39702   0.18485   0.00000  Uiso   1.00
H46    H     0.18739   0.41982   0.12047   0.00000  Uiso   1.00
H47    H     0.15473   0.36887   0.13314   0.00000  Uiso   1.00
H48    H     0.21585   0.36765   0.11025   0.00000  Uiso   1.00
H49    H     0.07804   0.10287   0.15926   0.00000  Uiso   1.00
H50    H     0.14963   0.08064   0.11490   0.00000  Uiso   1.00
H51    H     0.18189   0.13139   0.13727   0.00000  Uiso   1.00
H52    H     0.12173   0.13303   0.09710   0.00000  Uiso   1.00
H53    H     0.07058   0.39218   0.30908   0.00000  Uiso   1.00
H54    H     0.00734   0.25048   0.30627   0.00000  Uiso   1.00
H55    H     0.12870   0.41513   0.38080   0.00000  Uiso   1.00
H56    H     0.17182   0.37202   0.36783   0.00000  Uiso   1.00
H57    H     0.10926   0.35794   0.38389   0.00000  Uiso   1.00
H58    H     0.24112   0.28303   0.04605   0.00000  Uiso   1.00
H59    H     0.10942   0.19723   0.45583   0.00000  Uiso   1.00
H60    H     0.09205   0.21705   0.02683   0.00000  Uiso   1.00
H61    H     0.22370   0.30288   0.47060   0.00000  Uiso   1.00
H62    H     0.26071   0.10776   0.33591   0.00000  Uiso   1.00
H63    H     0.20167   0.08426   0.39128   0.00000  Uiso   1.00
H64    H     0.15810   0.12672   0.36619   0.00000  Uiso   1.00
N65    N     0.16667   0.25001   0.12935   0.00000  Uiso   1.00
N66    N     0.16667   0.24999   0.37066   0.00000  Uiso   1.00
N67    N     0.22258   0.11691   0.32969   0.00000  Uiso   1.00
N68    N     0.21985   0.38594   0.18356   0.00000  Uiso   1.00
N69    N     0.11546   0.11408   0.16875   0.00000  Uiso   1.00
N70    N     0.10866   0.38284   0.31347   0.00000  Uiso   1.00
O71    O     0.16667   0.18572   0.29072   0.00000  Uiso   1.00
O72    O     0.16666   0.31427   0.20929   0.00000  Uiso   1.00
O73    O     0.16667   0.18573   0.20928   0.00000  Uiso   1.00
O74    O     0.16666   0.31427   0.29072   0.00000  Uiso   1.00
O75    O     0.09161   0.24999   0.28132   0.00000  Uiso   1.00
O76    O     0.24172   0.25001   0.21868   0.00000  Uiso   1.00
O77    O     0.09161   0.25000   0.19989   0.00000  Uiso   1.00
O78    O     0.24172   0.25000   0.30012   0.00000  Uiso   1.00
C79    C     0.50024   0.16489   0.25002   0.00000  Uiso   1.00
C80    C     0.53213   0.27895   0.44991   0.00000  Uiso   1.00
C81    C     0.49993   0.25001   0.02720   0.00000  Uiso   1.00
C82    C     0.49992   0.25002   0.47247   0.00000  Uiso   1.00
C83    C     0.40126   0.24990   0.23758   0.00000  Uiso   1.00
C84    C     0.59874   0.25003   0.26243   0.00000  Uiso   1.00
C85    C     0.34599   0.24972   0.23075   0.00000  Uiso   1.00
C86    C     0.65403   0.25009   0.26929   0.00000  Uiso   1.00
C87    C     0.52681   0.04739   0.29045   0.00000  Uiso   1.00
C88    C     0.52728   0.45378   0.21945   0.00000  Uiso   1.00
C89    C     0.52689   0.09351   0.29048   0.00000  Uiso   1.00
C90    C     0.49975   0.33509   0.24995   0.00000  Uiso   1.00
C91    C     0.52617   0.40773   0.21749   0.00000  Uiso   1.00
C92    C     0.50067   0.11635   0.25017   0.00000  Uiso   1.00
C93    C     0.49927   0.38360   0.24996   0.00000  Uiso   1.00
C94    C     0.47478   0.09225   0.21020   0.00000  Uiso   1.00
C95    C     0.47200   0.40633   0.28267   0.00000  Uiso   1.00
C96    C     0.47361   0.04619   0.21182   0.00000  Uiso   1.00
C97    C     0.47202   0.45247   0.28267   0.00000  Uiso   1.00
C98    C     0.49978   0.02400   0.25156   0.00000  Uiso   1.00
C99    C     0.50004   0.47592   0.25159   0.00000  Uiso   1.00
C100   C     0.53253   0.11730   0.37392   0.00000  Uiso   1.00
C101   C     0.54097   0.26879   0.05921   0.00000  Uiso   1.00
C102   C     0.52625   0.38563   0.13442   0.00000  Uiso   1.00
C103   C     0.47712   0.11474   0.12752   0.00000  Uiso   1.00
C104   C     0.46422   0.38206   0.36408   0.00000  Uiso   1.00
C105   C     0.46772   0.22111   0.44159   0.00000  Uiso   1.00
C106   C     0.53990   0.26916   0.10962   0.00000  Uiso   1.00
C107   C     0.46763   0.22220   0.39103   0.00000  Uiso   1.00
C108   C     0.46000   0.23093   0.09934   0.00000  Uiso   1.00
C109   C     0.53228   0.27784   0.39940   0.00000  Uiso   1.00
C110   C     0.45889   0.23126   0.04864   0.00000  Uiso   1.00
Cu111  Cu    0.50000   0.24999   0.29822   0.00000  Uiso   1.00
Cu112  Cu    0.50000   0.25000   0.20179   0.00000  Uiso   1.00
F113   F     0.55361   0.02527   0.32807   0.00000  Uiso   1.00
F114   F     0.55465   0.47711   0.18964   0.00000  Uiso   1.00
F115   F     0.44724   0.02292   0.17433   0.00000  Uiso   1.00
F116   F     0.44424   0.47451   0.31256   0.00000  Uiso   1.00
F117   F     0.57929   0.28924   0.13846   0.00000  Uiso   1.00
F118   F     0.43485   0.19513   0.36239   0.00000  Uiso   1.00
F119   F     0.42049   0.21110   0.11808   0.00000  Uiso   1.00
F120   F     0.56498   0.30499   0.37922   0.00000  Uiso   1.00
H121   H     0.65940   0.24923   0.19378   0.00000  Uiso   1.00
H122   H     0.55314   0.14172   0.39966   0.00000  Uiso   1.00
H123   H     0.59079   0.39702   0.18485   0.00000  Uiso   1.00
H124   H     0.52072   0.41982   0.12047   0.00000  Uiso   1.00
H125   H     0.48807   0.36887   0.13314   0.00000  Uiso   1.00
H126   H     0.54918   0.36765   0.11025   0.00000  Uiso   1.00
H127   H     0.41137   0.10287   0.15926   0.00000  Uiso   1.00
H128   H     0.48297   0.08064   0.11490   0.00000  Uiso   1.00
H129   H     0.51522   0.13139   0.13727   0.00000  Uiso   1.00
H130   H     0.45507   0.13303   0.09710   0.00000  Uiso   1.00
H131   H     0.40392   0.39218   0.30908   0.00000  Uiso   1.00
H132   H     0.34067   0.25048   0.30627   0.00000  Uiso   1.00
H133   H     0.46203   0.41513   0.38080   0.00000  Uiso   1.00
H134   H     0.50515   0.37202   0.36783   0.00000  Uiso   1.00
H135   H     0.44260   0.35794   0.38389   0.00000  Uiso   1.00
H136   H     0.57445   0.28303   0.04605   0.00000  Uiso   1.00
H137   H     0.44275   0.19723   0.45583   0.00000  Uiso   1.00
H138   H     0.42538   0.21705   0.02683   0.00000  Uiso   1.00
H139   H     0.55704   0.30288   0.47060   0.00000  Uiso   1.00
H140   H     0.59404   0.10776   0.33591   0.00000  Uiso   1.00
H141   H     0.53500   0.08426   0.39128   0.00000  Uiso   1.00
H142   H     0.49143   0.12672   0.36619   0.00000  Uiso   1.00
N143   N     0.50000   0.25001   0.12935   0.00000  Uiso   1.00
N144   N     0.50000   0.24999   0.37066   0.00000  Uiso   1.00
N145   N     0.55592   0.11691   0.32969   0.00000  Uiso   1.00
N146   N     0.55319   0.38594   0.18356   0.00000  Uiso   1.00
N147   N     0.44879   0.11408   0.16875   0.00000  Uiso   1.00
N148   N     0.44199   0.38284   0.31347   0.00000  Uiso   1.00
O149   O     0.50000   0.18572   0.29072   0.00000  Uiso   1.00
O150   O     0.50000   0.31427   0.20929   0.00000  Uiso   1.00
O151   O     0.50000   0.18573   0.20928   0.00000  Uiso   1.00
O152   O     0.50000   0.31427   0.29072   0.00000  Uiso   1.00
O153   O     0.42495   0.24999   0.28132   0.00000  Uiso   1.00
O154   O     0.57505   0.25001   0.21868   0.00000  Uiso   1.00
O155   O     0.42495   0.25000   0.19989   0.00000  Uiso   1.00
O156   O     0.57505   0.25000   0.30012   0.00000  Uiso   1.00
C157   C     0.83357   0.16489   0.25002   0.00000  Uiso   1.00
C158   C     0.86546   0.27895   0.44991   0.00000  Uiso   1.00
C159   C     0.83326   0.25001   0.02720   0.00000  Uiso   1.00
C160   C     0.83326   0.25002   0.47247   0.00000  Uiso   1.00
C161   C     0.73460   0.24990   0.23758   0.00000  Uiso   1.00
C162   C     0.93208   0.25003   0.26243   0.00000  Uiso   1.00
C163   C     0.67933   0.24972   0.23075   0.00000  Uiso   1.00
C164   C     0.98737   0.25009   0.26929   0.00000  Uiso   1.00
C165   C     0.86014   0.04739   0.29045   0.00000  Uiso   1.00
C166   C     0.86062   0.45378   0.21945   0.00000  Uiso   1.00
C167   C     0.86022   0.09351   0.29048   0.00000  Uiso   1.00
C168   C     0.83309   0.33509   0.24995   0.00000  Uiso   1.00
C169   C     0.85950   0.40773   0.21749   0.00000  Uiso   1.00
C170   C     0.83401   0.11635   0.25017   0.00000  Uiso   1.00
C171   C     0.83260   0.38360   0.24996   0.00000  Uiso   1.00
C172   C     0.80812   0.09225   0.21020   0.00000  Uiso   1.00
C173   C     0.80533   0.40633   0.28267   0.00000  Uiso   1.00
C174   C     0.80695   0.04619   0.21182   0.00000  Uiso   1.00
C175   C     0.80536   0.45247   0.28267   0.00000  Uiso   1.00
C176   C     0.83311   0.02400   0.25156   0.00000  Uiso   1.00
C177   C     0.83338   0.47592   0.25159   0.00000  Uiso   1.00
C178   C     0.86587   0.11730   0.37392   0.00000  Uiso   1.00
C179   C     0.87431   0.26879   0.05921   0.00000  Uiso   1.00
C180   C     0.85958   0.38563   0.13442   0.00000  Uiso   1.00
C181   C     0.81046   0.11474   0.12752   0.00000  Uiso   1.00
C182   C     0.79756   0.38206   0.36408   0.00000  Uiso   1.00
C183   C     0.80106   0.22111   0.44159   0.00000  Uiso   1.00
C184   C     0.87324   0.26916   0.10962   0.00000  Uiso   1.00
C185   C     0.80096   0.22220   0.39103   0.00000  Uiso   1.00
C186   C     0.79334   0.23093   0.09934   0.00000  Uiso   1.00
C187   C     0.86561   0.27784   0.39940   0.00000  Uiso   1.00
C188   C     0.79223   0.23126   0.04864   0.00000  Uiso   1.00
Cu189  Cu    0.83333   0.24999   0.29822   0.00000  Uiso   1.00
Cu190  Cu    0.83333   0.25000   0.20179   0.00000  Uiso   1.00
F191   F     0.88695   0.02527   0.32807   0.00000  Uiso   1.00
F192   F     0.88799   0.47711   0.18964   0.00000  Uiso   1.00
F193   F     0.78057   0.02292   0.17433   0.00000  Uiso   1.00
F194   F     0.77758   0.47451   0.31256   0.00000  Uiso   1.00
F195   F     0.91263   0.28924   0.13846   0.00000  Uiso   1.00
F196   F     0.76818   0.19513   0.36239   0.00000  Uiso   1.00
F197   F     0.75382   0.21110   0.11808   0.00000  Uiso   1.00
F198   F     0.89831   0.30499   0.37922   0.00000  Uiso   1.00
H199   H     0.99273   0.24923   0.19378   0.00000  Uiso   1.00
H200   H     0.88648   0.14172   0.39966   0.00000  Uiso   1.00
H201   H     0.92412   0.39702   0.18485   0.00000  Uiso   1.00
H202   H     0.85406   0.41982   0.12047   0.00000  Uiso   1.00
H203   H     0.82140   0.36887   0.13314   0.00000  Uiso   1.00
H204   H     0.88252   0.36765   0.11025   0.00000  Uiso   1.00
H205   H     0.74471   0.10287   0.15926   0.00000  Uiso   1.00
H206   H     0.81630   0.08064   0.11490   0.00000  Uiso   1.00
H207   H     0.84856   0.13139   0.13727   0.00000  Uiso   1.00
H208   H     0.78840   0.13303   0.09710   0.00000  Uiso   1.00
H209   H     0.73725   0.39218   0.30908   0.00000  Uiso   1.00
H210   H     0.67400   0.25048   0.30627   0.00000  Uiso   1.00
H211   H     0.79536   0.41513   0.38080   0.00000  Uiso   1.00
H212   H     0.83848   0.37202   0.36783   0.00000  Uiso   1.00
H213   H     0.77593   0.35794   0.38389   0.00000  Uiso   1.00
H214   H     0.90778   0.28303   0.04605   0.00000  Uiso   1.00
H215   H     0.77608   0.19723   0.45583   0.00000  Uiso   1.00
H216   H     0.75871   0.21705   0.02683   0.00000  Uiso   1.00
H217   H     0.89037   0.30288   0.47060   0.00000  Uiso   1.00
H218   H     0.92737   0.10776   0.33591   0.00000  Uiso   1.00
H219   H     0.86833   0.08426   0.39128   0.00000  Uiso   1.00
H220   H     0.82476   0.12672   0.36619   0.00000  Uiso   1.00
N221   N     0.83333   0.25001   0.12935   0.00000  Uiso   1.00
N222   N     0.83333   0.24999   0.37066   0.00000  Uiso   1.00
N223   N     0.88925   0.11691   0.32969   0.00000  Uiso   1.00
N224   N     0.88652   0.38594   0.18356   0.00000  Uiso   1.00
N225   N     0.78213   0.11408   0.16875   0.00000  Uiso   1.00
N226   N     0.77533   0.38284   0.31347   0.00000  Uiso   1.00
O227   O     0.83334   0.18572   0.29072   0.00000  Uiso   1.00
O228   O     0.83333   0.31427   0.20929   0.00000  Uiso   1.00
O229   O     0.83334   0.18573   0.20928   0.00000  Uiso   1.00
O230   O     0.83333   0.31427   0.29072   0.00000  Uiso   1.00
O231   O     0.75828   0.24999   0.28132   0.00000  Uiso   1.00
O232   O     0.90839   0.25001   0.21868   0.00000  Uiso   1.00
O233   O     0.75828   0.25000   0.19989   0.00000  Uiso   1.00
O234   O     0.90839   0.25000   0.30012   0.00000  Uiso   1.00
C235   C     0.16690   0.66489   0.25002   0.00000  Uiso   1.00
C236   C     0.19879   0.77895   0.44991   0.00000  Uiso   1.00
C237   C     0.16660   0.75001   0.02720   0.00000  Uiso   1.00
C238   C     0.16659   0.75002   0.47247   0.00000  Uiso   1.00
C239   C     0.06793   0.74990   0.23758   0.00000  Uiso   1.00
C240   C     0.26541   0.75003   0.26243   0.00000  Uiso   1.00
C241   C     0.01266   0.74972   0.23075   0.00000  Uiso   1.00
C242   C     0.32070   0.75009   0.26929   0.00000  Uiso   1.00
C243   C     0.19348   0.54739   0.29045   0.00000  Uiso   1.00
C244   C     0.19395   0.95378   0.21945   0.00000  Uiso   1.00
C245   C     0.19356   0.59351   0.29048   0.00000  Uiso   1.00
C246   C     0.16642   0.83509   0.24995   0.00000  Uiso   1.00
C247   C     0.19283   0.90773   0.21749   0.00000  Uiso   1.00
C248   C     0.16734   0.61635   0.25017   0.00000  Uiso   1.00
C249   C     0.16593   0.88360   0.24996   0.00000  Uiso   1.00
C250   C     0.14145   0.59225   0.21020   0.00000  Uiso   1.00
C251   C     0.13866   0.90633   0.28267   0.00000  Uiso   1.00
C252   C     0.14028   0.54619   0.21182   0.00000  Uiso   1.00
C253   C     0.13869   0.95247   0.28267   0.00000  Uiso   1.00
C254   C     0.16644   0.52400   0.25156   0.00000  Uiso   1.00
C255   C     0.16671   0.97592   0.25159   0.00000  Uiso   1.00
C256   C     0.19920   0.61730   0.37392   0.00000  Uiso   1.00
C257   C     0.20764   0.76879   0.05921   0.00000  Uiso   1.00
C258   C     0.19292   0.88563   0.13442   0.00000  Uiso   1.00
C259   C     0.14379   0.61474   0.12752   0.00000  Uiso   1.00
C260   C     0.13089   0.88206   0.36408   0.00000  Uiso   1.00
C261   C     0.13439   0.72111   0.44159   0.00000  Uiso   1.00
C262   C     0.20657   0.76916   0.10962   0.00000  Uiso   1.00
C263   C     0.13430   0.72220   0.39103   0.00000  Uiso   1.00
C264   C     0.12667   0.73093   0.09934   0.00000  Uiso   1.00
C265   C     0.19895   0.77784   0.39940   0.00000  Uiso   1.00
C266   C     0.12556   0.73126   0.04864   0.00000  Uiso   1.00
Cu267  Cu    0.16667   0.74999   0.29822   0.00000  Uiso   1.00
Cu268  Cu    0.16667   0.75000   0.20179   0.00000  Uiso   1.00
F269   F     0.22028   0.52527   0.32807   0.00000  Uiso   1.00
F270   F     0.22132   0.97711   0.18964   0.00000  Uiso   1.00
F271   F     0.11390   0.52292   0.17433   0.00000  Uiso   1.00
F272   F     0.11091   0.97451   0.31256   0.00000  Uiso   1.00
F273   F     0.24596   0.78924   0.13846   0.00000  Uiso   1.00
F274   F     0.10151   0.69513   0.36239   0.00000  Uiso   1.00
F275   F     0.08715   0.71110   0.11808   0.00000  Uiso   1.00
F276   F     0.23164   0.80499   0.37922   0.00000  Uiso   1.00
H277   H     0.32606   0.74923   0.19378   0.00000  Uiso   1.00
H278   H     0.21981   0.64172   0.39966   0.00000  Uiso   1.00
H279   H     0.25746   0.89702   0.18485   0.00000  Uiso   1.00
H280   H     0.18739   0.91982   0.12047   0.00000  Uiso   1.00
H281   H     0.15473   0.86887   0.13314   0.00000  Uiso   1.00
H282   H     0.21585   0.86765   0.11025   0.00000  Uiso   1.00
H283   H     0.07804   0.60287   0.15926   0.00000  Uiso   1.00
H284   H     0.14963   0.58064   0.11490   0.00000  Uiso   1.00
H285   H     0.18189   0.63139   0.13727   0.00000  Uiso   1.00
H286   H     0.12173   0.63303   0.09710   0.00000  Uiso   1.00
H287   H     0.07058   0.89218   0.30908   0.00000  Uiso   1.00
H288   H     0.00734   0.75048   0.30627   0.00000  Uiso   1.00
H289   H     0.12870   0.91513   0.38080   0.00000  Uiso   1.00
H290   H     0.17182   0.87202   0.36783   0.00000  Uiso   1.00
H291   H     0.10926   0.85794   0.38389   0.00000  Uiso   1.00
H292   H     0.24112   0.78303   0.04605   0.00000  Uiso   1.00
H293   H     0.10942   0.69723   0.45583   0.00000  Uiso   1.00
H294   H     0.09205   0.71705   0.02683   0.00000  Uiso   1.00
H295   H     0.22370   0.80288   0.47060   0.00000  Uiso   1.00
H296   H     0.26071   0.60776   0.33591   0.00000  Uiso   1.00
H297   H     0.20167   0.58426   0.39128   0.00000  Uiso   1.00
H298   H     0.15810   0.62672   0.36619   0.00000  Uiso   1.00
N299   N     0.16667   0.75001   0.12935   0.00000  Uiso   1.00
N300   N     0.16667   0.74999   0.37066   0.00000  Uiso   1.00
N301   N     0.22258   0.61691   0.32969   0.00000  Uiso   1.00
N302   N     0.21985   0.88594   0.18356   0.00000  Uiso   1.00
N303   N     0.11546   0.61408   0.16875   0.00000  Uiso   1.00
N304   N     0.10866   0.88284   0.31347   0.00000  Uiso   1.00
O305   O     0.16667   0.68572   0.29072   0.00000  Uiso   1.00
O306   O     0.16666   0.81427   0.20929   0.00000  Uiso   1.00
O307   O     0.16667   0.68573   0.20928   0.00000  Uiso   1.00
O308   O     0.16666   0.81427   0.29072   0.00000  Uiso   1.00
O309   O     0.09161   0.74999   0.28132   0.00000  Uiso   1.00
O310   O     0.24172   0.75001   0.21868   0.00000  Uiso   1.00
O311   O     0.09161   0.75000   0.19989   0.00000  Uiso   1.00
O312   O     0.24172   0.75000   0.30012   0.00000  Uiso   1.00
C313   C     0.50024   0.66489   0.25002   0.00000  Uiso   1.00
C314   C     0.53213   0.77895   0.44991   0.00000  Uiso   1.00
C315   C     0.49993   0.75001   0.02720   0.00000  Uiso   1.00
C316   C     0.49992   0.75002   0.47247   0.00000  Uiso   1.00
C317   C     0.40126   0.74990   0.23758   0.00000  Uiso   1.00
C318   C     0.59874   0.75003   0.26243   0.00000  Uiso   1.00
C319   C     0.34599   0.74972   0.23075   0.00000  Uiso   1.00
C320   C     0.65403   0.75009   0.26929   0.00000  Uiso   1.00
C321   C     0.52681   0.54739   0.29045   0.00000  Uiso   1.00
C322   C     0.52728   0.95378   0.21945   0.00000  Uiso   1.00
C323   C     0.52689   0.59351   0.29048   0.00000  Uiso   1.00
C324   C     0.49975   0.83509   0.24995   0.00000  Uiso   1.00
C325   C     0.52617   0.90773   0.21749   0.00000  Uiso   1.00
C326   C     0.50067   0.61635   0.25017   0.00000  Uiso   1.00
C327   C     0.49927   0.88360   0.24996   0.00000  Uiso   1.00
C328   C     0.47478   0.59225   0.21020   0.00000  Uiso   1.00
C329   C     0.47200   0.90633   0.28267   0.00000  Uiso   1.00
C330   C     0.47361   0.54619   0.21182   0.00000  Uiso   1.00
C331   C     0.47202   0.95247   0.28267   0.00000  Uiso   1.00
C332   C     0.49978   0.52400   0.25156   0.00000  Uiso   1.00
C333   C     0.50004   0.97592   0.25159   0.00000  Uiso   1.00
C334   C     0.53253   0.61730   0.37392   0.00000  Uiso   1.00
C335   C     0.54097   0.76879   0.05921   0.00000  Uiso   1.00
C336   C     0.52625   0.88563   0.13442   0.00000  Uiso   1.00
C337   C     0.47712   0.61474   0.12752   0.00000  Uiso   1.00
C338   C     0.46422   0.88206   0.36408   0.00000  Uiso   1.00
C339   C     0.46772   0.72111   0.44159   0.00000  Uiso   1.00
C340   C     0.53990   0.76916   0.10962   0.00000  Uiso   1.00
C341   C     0.46763   0.72220   0.39103   0.00000  Uiso   1.00
C342   C     0.46000   0.73093   0.09934   0.00000  Uiso   1.00
C343   C     0.53228   0.77784   0.39940   0.00000  Uiso   1.00
C344   C     0.45889   0.73126   0.04864   0.00000  Uiso   1.00
Cu345  Cu    0.50000   0.74999   0.29822   0.00000  Uiso   1.00
Cu346  Cu    0.50000   0.75000   0.20179   0.00000  Uiso   1.00
F347   F     0.55361   0.52527   0.32807   0.00000  Uiso   1.00
F348   F     0.55465   0.97711   0.18964   0.00000  Uiso   1.00
F349   F     0.44724   0.52292   0.17433   0.00000  Uiso   1.00
F350   F     0.44424   0.97451   0.31256   0.00000  Uiso   1.00
F351   F     0.57929   0.78924   0.13846   0.00000  Uiso   1.00
F352   F     0.43485   0.69513   0.36239   0.00000  Uiso   1.00
F353   F     0.42049   0.71110   0.11808   0.00000  Uiso   1.00
F354   F     0.56498   0.80499   0.37922   0.00000  Uiso   1.00
H355   H     0.65940   0.74923   0.19378   0.00000  Uiso   1.00
H356   H     0.55314   0.64172   0.39966   0.00000  Uiso   1.00
H357   H     0.59079   0.89702   0.18485   0.00000  Uiso   1.00
H358   H     0.52072   0.91982   0.12047   0.00000  Uiso   1.00
H359   H     0.48807   0.86887   0.13314   0.00000  Uiso   1.00
H360   H     0.54918   0.86765   0.11025   0.00000  Uiso   1.00
H361   H     0.41137   0.60287   0.15926   0.00000  Uiso   1.00
H362   H     0.48297   0.58064   0.11490   0.00000  Uiso   1.00
H363   H     0.51522   0.63139   0.13727   0.00000  Uiso   1.00
H364   H     0.45507   0.63303   0.09710   0.00000  Uiso   1.00
H365   H     0.40392   0.89218   0.30908   0.00000  Uiso   1.00
H366   H     0.34067   0.75048   0.30627   0.00000  Uiso   1.00
H367   H     0.46203   0.91513   0.38080   0.00000  Uiso   1.00
H368   H     0.50515   0.87202   0.36783   0.00000  Uiso   1.00
H369   H     0.44260   0.85794   0.38389   0.00000  Uiso   1.00
H370   H     0.57445   0.78303   0.04605   0.00000  Uiso   1.00
H371   H     0.44275   0.69723   0.45583   0.00000  Uiso   1.00
H372   H     0.42538   0.71705   0.02683   0.00000  Uiso   1.00
H373   H     0.55704   0.80288   0.47060   0.00000  Uiso   1.00
H374   H     0.59404   0.60776   0.33591   0.00000  Uiso   1.00
H375   H     0.53500   0.58426   0.39128   0.00000  Uiso   1.00
H376   H     0.49143   0.62672   0.36619   0.00000  Uiso   1.00
N377   N     0.50000   0.75001   0.12935   0.00000  Uiso   1.00
N378   N     0.50000   0.74999   0.37066   0.00000  Uiso   1.00
N379   N     0.55592   0.61691   0.32969   0.00000  Uiso   1.00
N380   N     0.55319   0.88594   0.18356   0.00000  Uiso   1.00
N381   N     0.44879   0.61408   0.16875   0.00000  Uiso   1.00
N382   N     0.44199   0.88284   0.31347   0.00000  Uiso   1.00
O383   O     0.50000   0.68572   0.29072   0.00000  Uiso   1.00
O384   O     0.50000   0.81427   0.20929   0.00000  Uiso   1.00
O385   O     0.50000   0.68573   0.20928   0.00000  Uiso   1.00
O386   O     0.50000   0.81427   0.29072   0.00000  Uiso   1.00
O387   O     0.42495   0.74999   0.28132   0.00000  Uiso   1.00
O388   O     0.57505   0.75001   0.21868   0.00000  Uiso   1.00
O389   O     0.42495   0.75000   0.19989   0.00000  Uiso   1.00
O390   O     0.57505   0.75000   0.30012   0.00000  Uiso   1.00
C391   C     0.83357   0.66489   0.25002   0.00000  Uiso   1.00
C392   C     0.86546   0.77895   0.44991   0.00000  Uiso   1.00
C393   C     0.83326   0.75001   0.02720   0.00000  Uiso   1.00
C394   C     0.83326   0.75002   0.47247   0.00000  Uiso   1.00
C395   C     0.73460   0.74990   0.23758   0.00000  Uiso   1.00
C396   C     0.93208   0.75003   0.26243   0.00000  Uiso   1.00
C397   C     0.67933   0.74972   0.23075   0.00000  Uiso   1.00
C398   C     0.98737   0.75009   0.26929   0.00000  Uiso   1.00
C399   C     0.86014   0.54739   0.29045   0.00000  Uiso   1.00
C400   C     0.86062   0.95378   0.21945   0.00000  Uiso   1.00
C401   C     0.86022   0.59351   0.29048   0.00000  Uiso   1.00
C402   C     0.83309   0.83509   0.24995   0.00000  Uiso   1.00
C403   C     0.85950   0.90773   0.21749   0.00000  Uiso   1.00
C404   C     0.83401   0.61635   0.25017   0.00000  Uiso   1.00
C405   C     0.83260   0.88360   0.24996   0.00000  Uiso   1.00
C406   C     0.80812   0.59225   0.21020   0.00000  Uiso   1.00
C407   C     0.80533   0.90633   0.28267   0.00000  Uiso   1.00
C408   C     0.80695   0.54619   0.21182   0.00000  Uiso   1.00
C409   C     0.80536   0.95247   0.28267   0.00000  Uiso   1.00
C410   C     0.83311   0.52400   0.25156   0.00000  Uiso   1.00
C411   C     0.83338   0.97592   0.25159   0.00000  Uiso   1.00
C412   C     0.86587   0.61730   0.37392   0.00000  Uiso   1.00
C413   C     0.87431   0.76879   0.05921   0.00000  Uiso   1.00
C414   C     0.85958   0.88563   0.13442   0.00000  Uiso   1.00
C415   C     0.81046   0.61474   0.12752   0.00000  Uiso   1.00
C416   C     0.79756   0.88206   0.36408   0.00000  Uiso   1.00
C417   C     0.80106   0.72111   0.44159   0.00000  Uiso   1.00
C418   C     0.87324   0.76916   0.10962   0.00000  Uiso   1.00
C419   C     0.80096   0.72220   0.39103   0.00000  Uiso   1.00
C420   C     0.79334   0.73093   0.09934   0.00000  Uiso   1.00
C421   C     0.86561   0.77784   0.39940   0.00000  Uiso   1.00
C422   C     0.79223   0.73126   0.04864   0.00000  Uiso   1.00
Cu423  Cu    0.83333   0.74999   0.29822   0.00000  Uiso   1.00
Cu424  Cu    0.83333   0.75000   0.20179   0.00000  Uiso   1.00
F425   F     0.88695   0.52527   0.32807   0.00000  Uiso   1.00
F426   F     0.88799   0.97711   0.18964   0.00000  Uiso   1.00
F427   F     0.78057   0.52292   0.17433   0.00000  Uiso   1.00
F428   F     0.77758   0.97451   0.31256   0.00000  Uiso   1.00
F429   F     0.91263   0.78924   0.13846   0.00000  Uiso   1.00
F430   F     0.76818   0.69513   0.36239   0.00000  Uiso   1.00
F431   F     0.75382   0.71110   0.11808   0.00000  Uiso   1.00
F432   F     0.89831   0.80499   0.37922   0.00000  Uiso   1.00
H433   H     0.99273   0.74923   0.19378   0.00000  Uiso   1.00
H434   H     0.88648   0.64172   0.39966   0.00000  Uiso   1.00
H435   H     0.92412   0.89702   0.18485   0.00000  Uiso   1.00
H436   H     0.85406   0.91982   0.12047   0.00000  Uiso   1.00
H437   H     0.82140   0.86887   0.13314   0.00000  Uiso   1.00
H438   H     0.88252   0.86765   0.11025   0.00000  Uiso   1.00
H439   H     0.74471   0.60287   0.15926   0.00000  Uiso   1.00
H440   H     0.81630   0.58064   0.11490   0.00000  Uiso   1.00
H441   H     0.84856   0.63139   0.13727   0.00000  Uiso   1.00
H442   H     0.78840   0.63303   0.09710   0.00000  Uiso   1.00
H443   H     0.73725   0.89218   0.30908   0.00000  Uiso   1.00
H444   H     0.67400   0.75048   0.30627   0.00000  Uiso   1.00
H445   H     0.79536   0.91513   0.38080   0.00000  Uiso   1.00
H446   H     0.83848   0.87202   0.36783   0.00000  Uiso   1.00
H447   H     0.77593   0.85794   0.38389   0.00000  Uiso   1.00
H448   H     0.90778   0.78303   0.04605   0.00000  Uiso   1.00
H449   H     0.77608   0.69723   0.45583   0.00000  Uiso   1.00
H450   H     0.75871   0.71705   0.02683   0.00000  Uiso   1.00
H451   H     0.89037   0.80288   0.47060   0.00000  Uiso   1.00
H452   H     0.92737   0.60776   0.33591   0.00000  Uiso   1.00
H453   H     0.86833   0.58426   0.39128   0.00000  Uiso   1.00
H454   H     0.82476   0.62672   0.36619   0.00000  Uiso   1.00
N455   N     0.83333   0.75001   0.12935   0.00000  Uiso   1.00
N456   N     0.83333   0.74999   0.37066   0.00000  Uiso   1.00
N457   N     0.88925   0.61691   0.32969   0.00000  Uiso   1.00
N458   N     0.88652   0.88594   0.18356   0.00000  Uiso   1.00
N459   N     0.78213   0.61408   0.16875   0.00000  Uiso   1.00
N460   N     0.77533   0.88284   0.31347   0.00000  Uiso   1.00
O461   O     0.83334   0.68572   0.29072   0.00000  Uiso   1.00
O462   O     0.83333   0.81427   0.20929   0.00000  Uiso   1.00
O463   O     0.83334   0.68573   0.20928   0.00000  Uiso   1.00
O464   O     0.83333   0.81427   0.29072   0.00000  Uiso   1.00
O465   O     0.75828   0.74999   0.28132   0.00000  Uiso   1.00
O466   O     0.90839   0.75001   0.21868   0.00000  Uiso   1.00
O467   O     0.75828   0.75000   0.19989   0.00000  Uiso   1.00
O468   O     0.90839   0.75000   0.30012   0.00000  Uiso   1.00
C469   C     0.16690   0.16489   0.75002   0.00000  Uiso   1.00
C470   C     0.19879   0.27895   0.94991   0.00000  Uiso   1.00
C471   C     0.16660   0.25001   0.52720   0.00000  Uiso   1.00
C472   C     0.16659   0.25002   0.97247   0.00000  Uiso   1.00
C473   C     0.06793   0.24990   0.73758   0.00000  Uiso   1.00
C474   C     0.26541   0.25003   0.76243   0.00000  Uiso   1.00
C475   C     0.01266   0.24972   0.73075   0.00000  Uiso   1.00
C476   C     0.32070   0.25009   0.76929   0.00000  Uiso   1.00
C477   C     0.19348   0.04739   0.79045   0.00000  Uiso   1.00
C478   C     0.19395   0.45378   0.71945   0.00000  Uiso   1.00
C479   C     0.19356   0.09351   0.79048   0.00000  Uiso   1.00
C480   C     0.16642   0.33509   0.74995   0.00000  Uiso   1.00
C481   C     0.19283   0.40773   0.71749   0.00000  Uiso   1.00
C482   C     0.16734   0.11635   0.75017   0.00000  Uiso   1.00
C483   C     0.16593   0.38360   0.74996   0.00000  Uiso   1.00
C484   C     0.14145   0.09225   0.71020   0.00000  Uiso   1.00
C485   C     0.13866   0.40633   0.78267   0.00000  Uiso   1.00
C486   C     0.14028   0.04619   0.71182   0.00000  Uiso   1.00
C487   C     0.13869   0.45247   0.78267   0.00000  Uiso   1.00
C488   C     0.16644   0.02400   0.75156   0.00000  Uiso   1.00
C489   C     0.16671   0.47592   0.75159   0.00000  Uiso   1.00
C490   C     0.19920   0.11730   0.87392   0.00000  Uiso   1.00
C491   C     0.20764   0.26879   0.55921   0.00000  Uiso   1.00
C492   C     0.19292   0.38563   0.63442   0.00000  Uiso   1.00
C493   C     0.14379   0.11474   0.62752   0.00000  Uiso   1.00
C494   C     0.13089   0.38206   0.86408   0.00000  Uiso   1.00
C495   C     0.13439   0.22111   0.94159   0.00000  Uiso   1.00
C496   C     0.20657   0.26916   0.60962   0.00000  Uiso   1.00
C497   C     0.13430   0.22220   0.89103   0.00000  Uiso   1.00
C498   C     0.12667   0.23093   0.59934   0.00000  Uiso   1.00
C499   C     0.19895   0.27784   0.89940   0.00000  Uiso   1.00
C500   C     0.12556   0.23126   0.54864   0.00000  Uiso   1.00
Cu501  Cu    0.16667   0.24999   0.79822   0.00000  Uiso   1.00
Cu502  Cu    0.16667   0.25000   0.70179   0.00000  Uiso   1.00
F503   F     0.22028   0.02527   0.82807   0.00000  Uiso   1.00
F504   F     0.22132   0.47711   0.68964   0.00000  Uiso   1.00
F505   F     0.11390   0.02292   0.67433   0.00000  Uiso   1.00
F506   F     0.11091   0.47451   0.81256   0.00000  Uiso   1.00
F507   F     0.24596   0.28924   0.63846   0.00000  Uiso   1.00
F508   F     0.10151   0.19513   0.86239   0.00000  Uiso   1.00
F509   F     0.08715   0.21110   0.61808   0.00000  Uiso   1.00
F510   F     0.23164   0.30499   0.87922   0.00000  Uiso   1.00
H511   H     0.32606   0.24923   0.69378   0.00000  Uiso   1.00
H512   H     0.21981   0.14172   0.89966   0.00000  Uiso   1.00
H513   H     0.25746   0.39702   0.68485   0.00000  Uiso   1.00
H514   H     0.18739   0.41982   0.62047   0.00000  Uiso   1.00
H515   H     0.15473   0.36887   0.63314   0.00000  Uiso   1.00
H516   H     0.21585   0.36765   0.61025   0.00000  Uiso   1.00
H517   H     0.07804   0.10287   0.65926   0.00000  Uiso   1.00
H518   H     0.14963   0.08064   0.61490   0.00000  Uiso   1.00
H519   H     0.18189   0.13139   0.63727   0.00000  Uiso   1.00
H520   H     0.12173   0.13303   0.59710   0.00000  Uiso   1.00
H521   H     0.07058   0.39218   0.80908   0.00000  Uiso   1.00
H522   H     0.00734   0.25048   0.80627   0.00000  Uiso   1.00
H523   H     0.12870   0.41513   0.88080   0.00000  Uiso   1.00
H524   H     0.17182   0.37202   0.86783   0.00000  Uiso   1.00
H525   H     0.10926   0.35794   0.88389   0.00000  Uiso   1.00
H526   H     0.24112   0.28303   0.54605   0.00000  Uiso   1.00
H527   H     0.10942   0.19723   0.95583   0.00000  Uiso   1.00
H528   H     0.09205   0.21705   0.52683   0.00000  Uiso   1.00
H529   H     0.22370   0.30288   0.97060   0.00000  Uiso   1.00
H530   H     0.26071   0.10776   0.83591   0.00000  Uiso   1.00
H531   H     0.20167   0.08426   0.89128   0.00000  Uiso   1.00
H532   H     0.15810   0.12672   0.86619   0.00000  Uiso   1.00
N533   N     0.16667   0.25001   0.62935   0.00000  Uiso   1.00
N534   N     0.16667   0.24999   0.87066   0.00000  Uiso   1.00
N535   N     0.22258   0.11691   0.82969   0.00000  Uiso   1.00
N536   N     0.21985   0.38594   0.68356   0.00000  Uiso   1.00
N537   N     0.11546   0.11408   0.66875   0.00000  Uiso   1.00
N538   N     0.10866   0.38284   0.81347   0.00000  Uiso   1.00
O539   O     0.16667   0.18572   0.79072   0.00000  Uiso   1.00
O540   O     0.16666   0.31427   0.70929   0.00000  Uiso   1.00
O541   O     0.16667   0.18573   0.70928   0.00000  Uiso   1.00
O542   O     0.16666   0.31427   0.79072   0.00000  Uiso   1.00
O543   O     0.09161   0.24999   0.78132   0.00000  Uiso   1.00
O544   O     0.24172   0.25001   0.71868   0.00000  Uiso   1.00
O545   O     0.09161   0.25000   0.69989   0.00000  Uiso   1.00
O546   O     0.24172   0.25000   0.80012   0.00000  Uiso   1.00
C547   C     0.50024   0.16489   0.75002   0.00000  Uiso   1.00
C548   C     0.53213   0.27895   0.94991   0.00000  Uiso   1.00
C549   C     0.49993   0.25001   0.52720   0.00000  Uiso   1.00
C550   C     0.49992   0.25002   0.97247   0.00000  Uiso   1.00
C551   C     0.40126   0.24990   0.73758   0.00000  Uiso   1.00
C552   C     0.59874   0.25003   0.76243   0.00000  Uiso   1.00
C553   C     0.34599   0.24972   0.73075   0.00000  Uiso   1.00
C554   C     0.65403   0.25009   0.76929   0.00000  Uiso   1.00
C555   C     0.52681   0.04739   0.79045   0.00000  Uiso   1.00
C556   C     0.52728   0.45378   0.71945   0.00000  Uiso   1.00
C557   C     0.52689   0.09351   0.79048   0.00000  Uiso   1.00
C558   C     0.49975   0.33509   0.74995   0.00000  Uiso   1.00
C559   C     0.52617   0.40773   0.71749   0.00000  Uiso   1.00
C560   C     0.50067   0.11635   0.75017   0.00000  Uiso   1.00
C561   C     0.49927   0.38360   0.74996   0.00000  Uiso   1.00
C562   C     0.47478   0.09225   0.71020   0.00000  Uiso   1.00
C563   C     0.47200   0.40633   0.78267   0.00000  Uiso   1.00
C564   C     0.47361   0.04619   0.71182   0.00000  Uiso   1.00
C565   C     0.47202   0.45247   0.78267   0.00000  Uiso   1.00
C566   C     0.49978   0.02400   0.75156   0.00000  Uiso   1.00
C567   C     0.50004   0.47592   0.75159   0.00000  Uiso   1.00
C568   C     0.53253   0.11730   0.87392   0.00000  Uiso   1.00
C569   C     0.54097   0.26879   0.55921   0.00000  Uiso   1.00
C570   C     0.52625   0.38563   0.63442   0.00000  Uiso   1.00
C571   C     0.47712   0.11474   0.62752   0.00000  Uiso   1.00
C572   C     0.46422   0.38206   0.86408   0.00000  Uiso   1.00
C573   C     0.46772   0.22111   0.94159   0.00000  Uiso   1.00
C574   C     0.53990   0.26916   0.60962   0.00000  Uiso   1.00
C575   C     0.46763   0.22220   0.89103   0.00000  Uiso   1.00
C576   C     0.46000   0.23093   0.59934   0.00000  Uiso   1.00
C577   C     0.53228   0.27784   0.89940   0.00000  Uiso   1.00
C578   C     0.45889   0.23126   0.54864   0.00000  Uiso   1.00
Cu579  Cu    0.50000   0.24999   0.79822   0.00000  Uiso   1.00
Cu580  Cu    0.50000   0.25000   0.70179   0.00000  Uiso   1.00
F581   F     0.55361   0.02527   0.82807   0.00000  Uiso   1.00
F582   F     0.55465   0.47711   0.68964   0.00000  Uiso   1.00
F583   F     0.44724   0.02292   0.67433   0.00000  Uiso   1.00
F584   F     0.44424   0.47451   0.81256   0.00000  Uiso   1.00
F585   F     0.57929   0.28924   0.63846   0.00000  Uiso   1.00
F586   F     0.43485   0.19513   0.86239   0.00000  Uiso   1.00
F587   F     0.42049   0.21110   0.61808   0.00000  Uiso   1.00
F588   F     0.56498   0.30499   0.87922   0.00000  Uiso   1.00
H589   H     0.65940   0.24923   0.69378   0.00000  Uiso   1.00
H590   H     0.55314   0.14172   0.89966   0.00000  Uiso   1.00
H591   H     0.59079   0.39702   0.68485   0.00000  Uiso   1.00
H592   H     0.52072   0.41982   0.62047   0.00000  Uiso   1.00
H593   H     0.48807   0.36887   0.63314   0.00000  Uiso   1.00
H594   H     0.54918   0.36765   0.61025   0.00000  Uiso   1.00
H595   H     0.41137   0.10287   0.65926   0.00000  Uiso   1.00
H596   H     0.48297   0.08064   0.61490   0.00000  Uiso   1.00
H597   H     0.51522   0.13139   0.63727   0.00000  Uiso   1.00
H598   H     0.45507   0.13303   0.59710   0.00000  Uiso   1.00
H599   H     0.40392   0.39218   0.80908   0.00000  Uiso   1.00
H600   H     0.34067   0.25048   0.80627   0.00000  Uiso   1.00
H601   H     0.46203   0.41513   0.88080   0.00000  Uiso   1.00
H602   H     0.50515   0.37202   0.86783   0.00000  Uiso   1.00
H603   H     0.44260   0.35794   0.88389   0.00000  Uiso   1.00
H604   H     0.57445   0.28303   0.54605   0.00000  Uiso   1.00
H605   H     0.44275   0.19723   0.95583   0.00000  Uiso   1.00
H606   H     0.42538   0.21705   0.52683   0.00000  Uiso   1.00
H607   H     0.55704   0.30288   0.97060   0.00000  Uiso   1.00
H608   H     0.59404   0.10776   0.83591   0.00000  Uiso   1.00
H609   H     0.53500   0.08426   0.89128   0.00000  Uiso   1.00
H610   H     0.49143   0.12672   0.86619   0.00000  Uiso   1.00
N611   N     0.50000   0.25001   0.62935   0.00000  Uiso   1.00
N612   N     0.50000   0.24999   0.87066   0.00000  Uiso   1.00
N613   N     0.55592   0.11691   0.82969   0.00000  Uiso   1.00
N614   N     0.55319   0.38594   0.68356   0.00000  Uiso   1.00
N615   N     0.44879   0.11408   0.66875   0.00000  Uiso   1.00
N616   N     0.44199   0.38284   0.81347   0.00000  Uiso   1.00
O617   O     0.50000   0.18572   0.79072   0.00000  Uiso   1.00
O618   O     0.50000   0.31427   0.70929   0.00000  Uiso   1.00
O619   O     0.50000   0.18573   0.70928   0.00000  Uiso   1.00
O620   O     0.50000   0.31427   0.79072   0.00000  Uiso   1.00
O621   O     0.42495   0.24999   0.78132   0.00000  Uiso   1.00
O622   O     0.57505   0.25001   0.71868   0.00000  Uiso   1.00
O623   O     0.42495   0.25000   0.69989   0.00000  Uiso   1.00
O624   O     0.57505   0.25000   0.80012   0.00000  Uiso   1.00
C625   C     0.83357   0.16489   0.75002   0.00000  Uiso   1.00
C626   C     0.86546   0.27895   0.94991   0.00000  Uiso   1.00
C627   C     0.83326   0.25001   0.52720   0.00000  Uiso   1.00
C628   C     0.83326   0.25002   0.97247   0.00000  Uiso   1.00
C629   C     0.73460   0.24990   0.73758   0.00000  Uiso   1.00
C630   C     0.93208   0.25003   0.76243   0.00000  Uiso   1.00
C631   C     0.67933   0.24972   0.73075   0.00000  Uiso   1.00
C632   C     0.98737   0.25009   0.76929   0.00000  Uiso   1.00
C633   C     0.86014   0.04739   0.79045   0.00000  Uiso   1.00
C634   C     0.86062   0.45378   0.71945   0.00000  Uiso   1.00
C635   C     0.86022   0.09351   0.79048   0.00000  Uiso   1.00
C636   C     0.83309   0.33509   0.74995   0.00000  Uiso   1.00
C637   C     0.85950   0.40773   0.71749   0.00000  Uiso   1.00
C638   C     0.83401   0.11635   0.75017   0.00000  Uiso   1.00
C639   C     0.83260   0.38360   0.74996   0.00000  Uiso   1.00
C640   C     0.80812   0.09225   0.71020   0.00000  Uiso   1.00
C641   C     0.80533   0.40633   0.78267   0.00000  Uiso   1.00
C642   C     0.80695   0.04619   0.71182   0.00000  Uiso   1.00
C643   C     0.80536   0.45247   0.78267   0.00000  Uiso   1.00
C644   C     0.83311   0.02400   0.75156   0.00000  Uiso   1.00
C645   C     0.83338   0.47592   0.75159   0.00000  Uiso   1.00
C646   C     0.86587   0.11730   0.87392   0.00000  Uiso   1.00
C647   C     0.87431   0.26879   0.55921   0.00000  Uiso   1.00
C648   C     0.85958   0.38563   0.63442   0.00000  Uiso   1.00
C649   C     0.81046   0.11474   0.62752   0.00000  Uiso   1.00
C650   C     0.79756   0.38206   0.86408   0.00000  Uiso   1.00
C651   C     0.80106   0.22111   0.94159   0.00000  Uiso   1.00
C652   C     0.87324   0.26916   0.60962   0.00000  Uiso   1.00
C653   C     0.80096   0.22220   0.89103   0.00000  Uiso   1.00
C654   C     0.79334   0.23093   0.59934   0.00000  Uiso   1.00
C655   C     0.86561   0.27784   0.89940   0.00000  Uiso   1.00
C656   C     0.79223   0.23126   0.54864   0.00000  Uiso   1.00
Cu657  Cu    0.83333   0.24999   0.79822   0.00000  Uiso   1.00
Cu658  Cu    0.83333   0.25000   0.70179   0.00000  Uiso   1.00
F659   F     0.88695   0.02527   0.82807   0.00000  Uiso   1.00
F660   F     0.88799   0.47711   0.68964   0.00000  Uiso   1.00
F661   F     0.78057   0.02292   0.67433   0.00000  Uiso   1.00
F662   F     0.77758   0.47451   0.81256   0.00000  Uiso   1.00
F663   F     0.91263   0.28924   0.63846   0.00000  Uiso   1.00
F664   F     0.76818   0.19513   0.86239   0.00000  Uiso   1.00
F665   F     0.75382   0.21110   0.61808   0.00000  Uiso   1.00
F666   F     0.89831   0.30499   0.87922   0.00000  Uiso   1.00
H667   H     0.99273   0.24923   0.69378   0.00000  Uiso   1.00
H668   H     0.88648   0.14172   0.89966   0.00000  Uiso   1.00
H669   H     0.92412   0.39702   0.68485   0.00000  Uiso   1.00
H670   H     0.85406   0.41982   0.62047   0.00000  Uiso   1.00
H671   H     0.82140   0.36887   0.63314   0.00000  Uiso   1.00
H672   H     0.88252   0.36765   0.61025   0.00000  Uiso   1.00
H673   H     0.74471   0.10287   0.65926   0.00000  Uiso   1.00
H674   H     0.81630   0.08064   0.61490   0.00000  Uiso   1.00
H675   H     0.84856   0.13139   0.63727   0.00000  Uiso   1.00
H676   H     0.78840   0.13303   0.59710   0.00000  Uiso   1.00
H677   H     0.73725   0.39218   0.80908   0.00000  Uiso   1.00
H678   H     0.67400   0.25048   0.80627   0.00000  Uiso   1.00
H679   H     0.79536   0.41513   0.88080   0.00000  Uiso   1.00
H680   H     0.83848   0.37202   0.86783   0.00000  Uiso   1.00
H681   H     0.77593   0.35794   0.88389   0.00000  Uiso   1.00
H682   H     0.90778   0.28303   0.54605   0.00000  Uiso   1.00
H683   H     0.77608   0.19723   0.95583   0.00000  Uiso   1.00
H684   H     0.75871   0.21705   0.52683   0.00000  Uiso   1.00
H685   H     0.89037   0.30288   0.97060   0.00000  Uiso   1.00
H686   H     0.92737   0.10776   0.83591   0.00000  Uiso   1.00
H687   H     0.86833   0.08426   0.89128   0.00000  Uiso   1.00
H688   H     0.82476   0.12672   0.86619   0.00000  Uiso   1.00
N689   N     0.83333   0.25001   0.62935   0.00000  Uiso   1.00
N690   N     0.83333   0.24999   0.87066   0.00000  Uiso   1.00
N691   N     0.88925   0.11691   0.82969   0.00000  Uiso   1.00
N692   N     0.88652   0.38594   0.68356   0.00000  Uiso   1.00
N693   N     0.78213   0.11408   0.66875   0.00000  Uiso   1.00
N694   N     0.77533   0.38284   0.81347   0.00000  Uiso   1.00
O695   O     0.83334   0.18572   0.79072   0.00000  Uiso   1.00
O696   O     0.83333   0.31427   0.70929   0.00000  Uiso   1.00
O697   O     0.83334   0.18573   0.70928   0.00000  Uiso   1.00
O698   O     0.83333   0.31427   0.79072   0.00000  Uiso   1.00
O699   O     0.75828   0.24999   0.78132   0.00000  Uiso   1.00
O700   O     0.90839   0.25001   0.71868   0.00000  Uiso   1.00
O701   O     0.75828   0.25000   0.69989   0.00000  Uiso   1.00
O702   O     0.90839   0.25000   0.80012   0.00000  Uiso   1.00
C703   C     0.16690   0.66489   0.75002   0.00000  Uiso   1.00
C704   C     0.19879   0.77895   0.94991   0.00000  Uiso   1.00
C705   C     0.16660   0.75001   0.52720   0.00000  Uiso   1.00
C706   C     0.16659   0.75002   0.97247   0.00000  Uiso   1.00
C707   C     0.06793   0.74990   0.73758   0.00000  Uiso   1.00
C708   C     0.26541   0.75003   0.76243   0.00000  Uiso   1.00
C709   C     0.01266   0.74972   0.73075   0.00000  Uiso   1.00
C710   C     0.32070   0.75009   0.76929   0.00000  Uiso   1.00
C711   C     0.19348   0.54739   0.79045   0.00000  Uiso   1.00
C712   C     0.19395   0.95378   0.71945   0.00000  Uiso   1.00
C713   C     0.19356   0.59351   0.79048   0.00000  Uiso   1.00
C714   C     0.16642   0.83509   0.74995   0.00000  Uiso   1.00
C715   C     0.19283   0.90773   0.71749   0.00000  Uiso   1.00
C716   C     0.16734   0.61635   0.75017   0.00000  Uiso   1.00
C717   C     0.16593   0.88360   0.74996   0.00000  Uiso   1.00
C718   C     0.14145   0.59225   0.71020   0.00000  Uiso   1.00
C719   C     0.13866   0.90633   0.78267   0.00000  Uiso   1.00
C720   C     0.14028   0.54619   0.71182   0.00000  Uiso   1.00
C721   C     0.13869   0.95247   0.78267   0.00000  Uiso   1.00
C722   C     0.16644   0.52400   0.75156   0.00000  Uiso   1.00
C723   C     0.16671   0.97592   0.75159   0.00000  Uiso   1.00
C724   C     0.19920   0.61730   0.87392   0.00000  Uiso   1.00
C725   C     0.20764   0.76879   0.55921   0.00000  Uiso   1.00
C726   C     0.19292   0.88563   0.63442   0.00000  Uiso   1.00
C727   C     0.14379   0.61474   0.62752   0.00000  Uiso   1.00
C728   C     0.13089   0.88206   0.86408   0.00000  Uiso   1.00
C729   C     0.13439   0.72111   0.94159   0.00000  Uiso   1.00
C730   C     0.20657   0.76916   0.60962   0.00000  Uiso   1.00
C731   C     0.13430   0.72220   0.89103   0.00000  Uiso   1.00
C732   C     0.12667   0.73093   0.59934   0.00000  Uiso   1.00
C733   C     0.19895   0.77784   0.89940   0.00000  Uiso   1.00
C734   C     0.12556   0.73126   0.54864   0.00000  Uiso   1.00
Cu735  Cu    0.16667   0.74999   0.79822   0.00000  Uiso   1.00
Cu736  Cu    0.16667   0.75000   0.70179   0.00000  Uiso   1.00
F737   F     0.22028   0.52527   0.82807   0.00000  Uiso   1.00
F738   F     0.22132   0.97711   0.68964   0.00000  Uiso   1.00
F739   F     0.11390   0.52292   0.67433   0.00000  Uiso   1.00
F740   F     0.11091   0.97451   0.81256   0.00000  Uiso   1.00
F741   F     0.24596   0.78924   0.63846   0.00000  Uiso   1.00
F742   F     0.10151   0.69513   0.86239   0.00000  Uiso   1.00
F743   F     0.08715   0.71110   0.61808   0.00000  Uiso   1.00
F744   F     0.23164   0.80499   0.87922   0.00000  Uiso   1.00
H745   H     0.32606   0.74923   0.69378   0.00000  Uiso   1.00
H746   H     0.21981   0.64172   0.89966   0.00000  Uiso   1.00
H747   H     0.25746   0.89702   0.68485   0.00000  Uiso   1.00
H748   H     0.18739   0.91982   0.62047   0.00000  Uiso   1.00
H749   H     0.15473   0.86887   0.63314   0.00000  Uiso   1.00
H750   H     0.21585   0.86765   0.61025   0.00000  Uiso   1.00
H751   H     0.07804   0.60287   0.65926   0.00000  Uiso   1.00
H752   H     0.14963   0.58064   0.61490   0.00000  Uiso   1.00
H753   H     0.18189   0.63139   0.63727   0.00000  Uiso   1.00
H754   H     0.12173   0.63303   0.59710   0.00000  Uiso   1.00
H755   H     0.07058   0.89218   0.80908   0.00000  Uiso   1.00
H756   H     0.00734   0.75048   0.80627   0.00000  Uiso   1.00
H757   H     0.12870   0.91513   0.88080   0.00000  Uiso   1.00
H758   H     0.17182   0.87202   0.86783   0.00000  Uiso   1.00
H759   H     0.10926   0.85794   0.88389   0.00000  Uiso   1.00
H760   H     0.24112   0.78303   0.54605   0.00000  Uiso   1.00
H761   H     0.10942   0.69723   0.95583   0.00000  Uiso   1.00
H762   H     0.09205   0.71705   0.52683   0.00000  Uiso   1.00
H763   H     0.22370   0.80288   0.97060   0.00000  Uiso   1.00
H764   H     0.26071   0.60776   0.83591   0.00000  Uiso   1.00
H765   H     0.20167   0.58426   0.89128   0.00000  Uiso   1.00
H766   H     0.15810   0.62672   0.86619   0.00000  Uiso   1.00
N767   N     0.16667   0.75001   0.62935   0.00000  Uiso   1.00
N768   N     0.16667   0.74999   0.87066   0.00000  Uiso   1.00
N769   N     0.22258   0.61691   0.82969   0.00000  Uiso   1.00
N770   N     0.21985   0.88594   0.68356   0.00000  Uiso   1.00
N771   N     0.11546   0.61408   0.66875   0.00000  Uiso   1.00
N772   N     0.10866   0.88284   0.81347   0.00000  Uiso   1.00
O773   O     0.16667   0.68572   0.79072   0.00000  Uiso   1.00
O774   O     0.16666   0.81427   0.70929   0.00000  Uiso   1.00
O775   O     0.16667   0.68573   0.70928   0.00000  Uiso   1.00
O776   O     0.16666   0.81427   0.79072   0.00000  Uiso   1.00
O777   O     0.09161   0.74999   0.78132   0.00000  Uiso   1.00
O778   O     0.24172   0.75001   0.71868   0.00000  Uiso   1.00
O779   O     0.09161   0.75000   0.69989   0.00000  Uiso   1.00
O780   O     0.24172   0.75000   0.80012   0.00000  Uiso   1.00
C781   C     0.50024   0.66489   0.75002   0.00000  Uiso   1.00
C782   C     0.53213   0.77895   0.94991   0.00000  Uiso   1.00
C783   C     0.49993   0.75001   0.52720   0.00000  Uiso   1.00
C784   C     0.49992   0.75002   0.97247   0.00000  Uiso   1.00
C785   C     0.40126   0.74990   0.73758   0.00000  Uiso   1.00
C786   C     0.59874   0.75003   0.76243   0.00000  Uiso   1.00
C787   C     0.34599   0.74972   0.73075   0.00000  Uiso   1.00
C788   C     0.65403   0.75009   0.76929   0.00000  Uiso   1.00
C789   C     0.52681   0.54739   0.79045   0.00000  Uiso   1.00
C790   C     0.52728   0.95378   0.71945   0.00000  Uiso   1.00
C791   C     0.52689   0.59351   0.79048   0.00000  Uiso   1.00
C792   C     0.49975   0.83509   0.74995   0.00000  Uiso   1.00
C793   C     0.52617   0.90773   0.71749   0.00000  Uiso   1.00
C794   C     0.50067   0.61635   0.75017   0.00000  Uiso   1.00
C795   C     0.49927   0.88360   0.74996   0.00000  Uiso   1.00
C796   C     0.47478   0.59225   0.71020   0.00000  Uiso   1.00
C797   C     0.47200   0.90633   0.78267   0.00000  Uiso   1.00
C798   C     0.47361   0.54619   0.71182   0.00000  Uiso   1.00
C799   C     0.47202   0.95247   0.78267   0.00000  Uiso   1.00
C800   C     0.49978   0.52400   0.75156   0.00000  Uiso   1.00
C801   C     0.50004   0.97592   0.75159   0.00000  Uiso   1.00
C802   C     0.53253   0.61730   0.87392   0.00000  Uiso   1.00
C803   C     0.54097   0.76879   0.55921   0.00000  Uiso   1.00
C804   C     0.52625   0.88563   0.63442   0.00000  Uiso   1.00
C805   C     0.47712   0.61474   0.62752   0.00000  Uiso   1.00
C806   C     0.46422   0.88206   0.86408   0.00000  Uiso   1.00
C807   C     0.46772   0.72111   0.94159   0.00000  Uiso   1.00
C808   C     0.53990   0.76916   0.60962   0.00000  Uiso   1.00
C809   C     0.46763   0.72220   0.89103   0.00000  Uiso   1.00
C810   C     0.46000   0.73093   0.59934   0.00000  Uiso   1.00
C811   C     0.53228   0.77784   0.89940   0.00000  Uiso   1.00
C812   C     0.45889   0.73126   0.54864   0.00000  Uiso   1.00
Cu813  Cu    0.50000   0.74999   0.79822   0.00000  Uiso   1.00
Cu814  Cu    0.50000   0.75000   0.70179   0.00000  Uiso   1.00
F815   F     0.55361   0.52527   0.82807   0.00000  Uiso   1.00
F816   F     0.55465   0.97711   0.68964   0.00000  Uiso   1.00
F817   F     0.44724   0.52292   0.67433   0.00000  Uiso   1.00
F818   F     0.44424   0.97451   0.81256   0.00000  Uiso   1.00
F819   F     0.57929   0.78924   0.63846   0.00000  Uiso   1.00
F820   F     0.43485   0.69513   0.86239   0.00000  Uiso   1.00
F821   F     0.42049   0.71110   0.61808   0.00000  Uiso   1.00
F822   F     0.56498   0.80499   0.87922   0.00000  Uiso   1.00
H823   H     0.65940   0.74923   0.69378   0.00000  Uiso   1.00
H824   H     0.55314   0.64172   0.89966   0.00000  Uiso   1.00
H825   H     0.59079   0.89702   0.68485   0.00000  Uiso   1.00
H826   H     0.52072   0.91982   0.62047   0.00000  Uiso   1.00
H827   H     0.48807   0.86887   0.63314   0.00000  Uiso   1.00
H828   H     0.54918   0.86765   0.61025   0.00000  Uiso   1.00
H829   H     0.41137   0.60287   0.65926   0.00000  Uiso   1.00
H830   H     0.48297   0.58064   0.61490   0.00000  Uiso   1.00
H831   H     0.51522   0.63139   0.63727   0.00000  Uiso   1.00
H832   H     0.45507   0.63303   0.59710   0.00000  Uiso   1.00
H833   H     0.40392   0.89218   0.80908   0.00000  Uiso   1.00
H834   H     0.34067   0.75048   0.80627   0.00000  Uiso   1.00
H835   H     0.46203   0.91513   0.88080   0.00000  Uiso   1.00
H836   H     0.50515   0.87202   0.86783   0.00000  Uiso   1.00
H837   H     0.44260   0.85794   0.88389   0.00000  Uiso   1.00
H838   H     0.57445   0.78303   0.54605   0.00000  Uiso   1.00
H839   H     0.44275   0.69723   0.95583   0.00000  Uiso   1.00
H840   H     0.42538   0.71705   0.52683   0.00000  Uiso   1.00
H841   H     0.55704   0.80288   0.97060   0.00000  Uiso   1.00
H842   H     0.59404   0.60776   0.83591   0.00000  Uiso   1.00
H843   H     0.53500   0.58426   0.89128   0.00000  Uiso   1.00
H844   H     0.49143   0.62672   0.86619   0.00000  Uiso   1.00
N845   N     0.50000   0.75001   0.62935   0.00000  Uiso   1.00
N846   N     0.50000   0.74999   0.87066   0.00000  Uiso   1.00
N847   N     0.55592   0.61691   0.82969   0.00000  Uiso   1.00
N848   N     0.55319   0.88594   0.68356   0.00000  Uiso   1.00
N849   N     0.44879   0.61408   0.66875   0.00000  Uiso   1.00
N850   N     0.44199   0.88284   0.81347   0.00000  Uiso   1.00
O851   O     0.50000   0.68572   0.79072   0.00000  Uiso   1.00
O852   O     0.50000   0.81427   0.70929   0.00000  Uiso   1.00
O853   O     0.50000   0.68573   0.70928   0.00000  Uiso   1.00
O854   O     0.50000   0.81427   0.79072   0.00000  Uiso   1.00
O855   O     0.42495   0.74999   0.78132   0.00000  Uiso   1.00
O856   O     0.57505   0.75001   0.71868   0.00000  Uiso   1.00
O857   O     0.42495   0.75000   0.69989   0.00000  Uiso   1.00
O858   O     0.57505   0.75000   0.80012   0.00000  Uiso   1.00
C859   C     0.83357   0.66489   0.75002   0.00000  Uiso   1.00
C860   C     0.86546   0.77895   0.94991   0.00000  Uiso   1.00
C861   C     0.83326   0.75001   0.52720   0.00000  Uiso   1.00
C862   C     0.83326   0.75002   0.97247   0.00000  Uiso   1.00
C863   C     0.73460   0.74990   0.73758   0.00000  Uiso   1.00
C864   C     0.93208   0.75003   0.76243   0.00000  Uiso   1.00
C865   C     0.67933   0.74972   0.73075   0.00000  Uiso   1.00
C866   C     0.98737   0.75009   0.76929   0.00000  Uiso   1.00
C867   C     0.86014   0.54739   0.79045   0.00000  Uiso   1.00
C868   C     0.86062   0.95378   0.71945   0.00000  Uiso   1.00
C869   C     0.86022   0.59351   0.79048   0.00000  Uiso   1.00
C870   C     0.83309   0.83509   0.74995   0.00000  Uiso   1.00
C871   C     0.85950   0.90773   0.71749   0.00000  Uiso   1.00
C872   C     0.83401   0.61635   0.75017   0.00000  Uiso   1.00
C873   C     0.83260   0.88360   0.74996   0.00000  Uiso   1.00
C874   C     0.80812   0.59225   0.71020   0.00000  Uiso   1.00
C875   C     0.80533   0.90633   0.78267   0.00000  Uiso   1.00
C876   C     0.80695   0.54619   0.71182   0.00000  Uiso   1.00
C877   C     0.80536   0.95247   0.78267   0.00000  Uiso   1.00
C878   C     0.83311   0.52400   0.75156   0.00000  Uiso   1.00
C879   C     0.83338   0.97592   0.75159   0.00000  Uiso   1.00
C880   C     0.86587   0.61730   0.87392   0.00000  Uiso   1.00
C881   C     0.87431   0.76879   0.55921   0.00000  Uiso   1.00
C882   C     0.85958   0.88563   0.63442   0.00000  Uiso   1.00
C883   C     0.81046   0.61474   0.62752   0.00000  Uiso   1.00
C884   C     0.79756   0.88206   0.86408   0.00000  Uiso   1.00
C885   C     0.80106   0.72111   0.94159   0.00000  Uiso   1.00
C886   C     0.87324   0.76916   0.60962   0.00000  Uiso   1.00
C887   C     0.80096   0.72220   0.89103   0.00000  Uiso   1.00
C888   C     0.79334   0.73093   0.59934   0.00000  Uiso   1.00
C889   C     0.86561   0.77784   0.89940   0.00000  Uiso   1.00
C890   C     0.79223   0.73126   0.54864   0.00000  Uiso   1.00
Cu891  Cu    0.83333   0.74999   0.79822   0.00000  Uiso   1.00
Cu892  Cu    0.83333   0.75000   0.70179   0.00000  Uiso   1.00
F893   F     0.88695   0.52527   0.82807   0.00000  Uiso   1.00
F894   F     0.88799   0.97711   0.68964   0.00000  Uiso   1.00
F895   F     0.78057   0.52292   0.67433   0.00000  Uiso   1.00
F896   F     0.77758   0.97451   0.81256   0.00000  Uiso   1.00
F897   F     0.91263   0.78924   0.63846   0.00000  Uiso   1.00
F898   F     0.76818   0.69513   0.86239   0.00000  Uiso   1.00
F899   F     0.75382   0.71110   0.61808   0.00000  Uiso   1.00
F900   F     0.89831   0.80499   0.87922   0.00000  Uiso   1.00
H901   H     0.99273   0.74923   0.69378   0.00000  Uiso   1.00
H902   H     0.88648   0.64172   0.89966   0.00000  Uiso   1.00
H903   H     0.92412   0.89702   0.68485   0.00000  Uiso   1.00
H904   H     0.85406   0.91982   0.62047   0.00000  Uiso   1.00
H905   H     0.82140   0.86887   0.63314   0.00000  Uiso   1.00
H906   H     0.88252   0.86765   0.61025   0.00000  Uiso   1.00
H907   H     0.74471   0.60287   0.65926   0.00000  Uiso   1.00
H908   H     0.81630   0.58064   0.61490   0.00000  Uiso   1.00
H909   H     0.84856   0.63139   0.63727   0.00000  Uiso   1.00
H910   H     0.78840   0.63303   0.59710   0.00000  Uiso   1.00
H911   H     0.73725   0.89218   0.80908   0.00000  Uiso   1.00
H912   H     0.67400   0.75048   0.80627   0.00000  Uiso   1.00
H913   H     0.79536   0.91513   0.88080   0.00000  Uiso   1.00
H914   H     0.83848   0.87202   0.86783   0.00000  Uiso   1.00
H915   H     0.77593   0.85794   0.88389   0.00000  Uiso   1.00
H916   H     0.90778   0.78303   0.54605   0.00000  Uiso   1.00
H917   H     0.77608   0.69723   0.95583   0.00000  Uiso   1.00
H918   H     0.75871   0.71705   0.52683   0.00000  Uiso   1.00
H919   H     0.89037   0.80288   0.97060   0.00000  Uiso   1.00
H920   H     0.92737   0.60776   0.83591   0.00000  Uiso   1.00
H921   H     0.86833   0.58426   0.89128   0.00000  Uiso   1.00
H922   H     0.82476   0.62672   0.86619   0.00000  Uiso   1.00
N923   N     0.83333   0.75001   0.62935   0.00000  Uiso   1.00
N924   N     0.83333   0.74999   0.87066   0.00000  Uiso   1.00
N925   N     0.88925   0.61691   0.82969   0.00000  Uiso   1.00
N926   N     0.88652   0.88594   0.68356   0.00000  Uiso   1.00
N927   N     0.78213   0.61408   0.66875   0.00000  Uiso   1.00
N928   N     0.77533   0.88284   0.81347   0.00000  Uiso   1.00
O929   O     0.83334   0.68572   0.79072   0.00000  Uiso   1.00
O930   O     0.83333   0.81427   0.70929   0.00000  Uiso   1.00
O931   O     0.83334   0.68573   0.70928   0.00000  Uiso   1.00
O932   O     0.83333   0.81427   0.79072   0.00000  Uiso   1.00
O933   O     0.75828   0.74999   0.78132   0.00000  Uiso   1.00
O934   O     0.90839   0.75001   0.71868   0.00000  Uiso   1.00
O935   O     0.75828   0.75000   0.69989   0.00000  Uiso   1.00
O936   O     0.90839   0.75000   0.80012   0.00000  Uiso   1.00
loop_
_geom_bond_atom_site_label_1
_geom_bond_atom_site_label_2
_geom_bond_distance
_geom_bond_site_symmetry_2
_ccdc_geom_bond_type
C1     O71     1.297   .     A
C1     O73     1.296   .     A
C1     C14     1.472   .     S
C2     H61     1.080   .     S
C2     C31     1.405   .     A
C2     C4      1.413   .     A
C3     C23     1.411   .     A
C3     C32     1.411   .     A
C3     C472    1.521   1_554 S
C4     C27     1.413   .     A
C4     C471    1.521   .     S
C5     C7      1.433   .     S
C5     O75     1.287   .     A
C5     O77     1.289   .     A
C6     O78     1.289   .     A
C6     C8      1.434   .     S
C6     O76     1.287   .     A
C7     C164    1.335   1_455 S
C7     H199    1.087   1_455 S
C8     C85     1.335   .     S
C8     H132    1.087   .     S
C9     C20     1.396   .     A
C9     C11     1.398   .     A
C9     F35     1.359   .     S
C10    C21     1.396   .     A
C10    C13     1.397   .     A
C10    F36     1.360   .     S
C11    C14     1.417   .     A
C11    N67     1.423   .     S
C12    O74     1.296   .     A
C12    O72     1.296   .     A
C12    C15     1.471   .     S
C13    C15     1.416   .     A
C13    N68     1.423   .     S
C14    C16     1.416   .     A
C15    C17     1.416   .     A
C16    N69     1.423   .     S
C16    C18     1.397   .     A
C17    N70     1.423   .     S
C17    C19     1.399   .     A
C18    F37     1.360   .     S
C18    C20     1.396   .     A
C19    C21     1.396   .     A
C19    F38     1.359   .     S
C20    C255    1.458   1_545 S
C21    C254    1.458   .     S
C22    H63     1.111   .     S
C22    H44     1.110   .     S
C22    N67     1.447   .     S
C22    H64     1.110   .     S
C23    H58     1.080   .     S
C23    C28     1.405   .     A
C24    H48     1.109   .     S
C24    H47     1.111   .     S
C24    H46     1.111   .     S
C24    N68     1.448   .     S
C25    H50     1.111   .     S
C25    H51     1.111   .     S
C25    N69     1.449   .     S
C25    H52     1.110   .     S
C26    H55     1.111   .     S
C26    N70     1.447   .     S
C26    H56     1.109   .     S
C26    H57     1.110   .     S
C27    C29     1.405   .     A
C27    H59     1.080   .     S
C28    F39     1.353   .     S
C28    N65     1.367   .     A
C29    F40     1.355   .     S
C29    N66     1.364   .     A
C30    F41     1.354   .     S
C30    C32     1.406   .     A
C30    N65     1.367   .     A
C31    F42     1.355   .     S
C31    N66     1.363   .     A
C32    H60     1.080   .     S
Cu33   O78     1.959   .     S
Cu33   O75     1.957   .     S
Cu33   N66     2.014   .     S
Cu33   O71     1.960   .     S
Cu33   Cu34    2.681   .     S
Cu33   O74     1.960   .     S
Cu34   O77     1.959   .     S
Cu34   N65     2.014   .     S
Cu34   O72     1.960   .     S
Cu34   O73     1.960   .     S
Cu34   O76     1.957   .     S
H43    C85     1.087   .     S
H45    N68     1.032   .     S
H49    N69     1.032   .     S
H53    N70     1.031   .     S
H54    C164    1.087   1_455 S
H62    N67     1.031   .     S
C79    O149    1.297   .     A
C79    O151    1.296   .     A
C79    C92     1.472   .     S
C80    H139    1.080   .     S
C80    C109    1.405   .     A
C80    C82     1.413   .     A
C81    C101    1.411   .     A
C81    C110    1.411   .     A
C81    C550    1.521   1_554 S
C82    C105    1.413   .     A
C82    C549    1.521   .     S
C83    C85     1.433   .     S
C83    O153    1.287   .     A
C83    O155    1.289   .     A
C84    O156    1.289   .     A
C84    C86     1.434   .     S
C84    O154    1.287   .     A
C86    C163    1.335   .     S
C86    H210    1.087   .     S
C87    C98     1.396   .     A
C87    C89     1.398   .     A
C87    F113    1.359   .     S
C88    C99     1.396   .     A
C88    C91     1.397   .     A
C88    F114    1.360   .     S
C89    C92     1.417   .     A
C89    N145    1.423   .     S
C90    O152    1.296   .     A
C90    O150    1.296   .     A
C90    C93     1.471   .     S
C91    C93     1.416   .     A
C91    N146    1.423   .     S
C92    C94     1.416   .     A
C93    C95     1.416   .     A
C94    N147    1.423   .     S
C94    C96     1.397   .     A
C95    N148    1.423   .     S
C95    C97     1.399   .     A
C96    F115    1.360   .     S
C96    C98     1.396   .     A
C97    C99     1.396   .     A
C97    F116    1.359   .     S
C98    C333    1.458   1_545 S
C99    C332    1.458   .     S
C100   H141    1.111   .     S
C100   H122    1.110   .     S
C100   N145    1.447   .     S
C100   H142    1.110   .     S
C101   H136    1.080   .     S
C101   C106    1.405   .     A
C102   H126    1.109   .     S
C102   H125    1.111   .     S
C102   H124    1.111   .     S
C102   N146    1.448   .     S
C103   H128    1.111   .     S
C103   H129    1.111   .     S
C103   N147    1.449   .     S
C103   H130    1.110   .     S
C104   H133    1.111   .     S
C104   N148    1.447   .     S
C104   H134    1.109   .     S
C104   H135    1.110   .     S
C105   C107    1.405   .     A
C105   H137    1.080   .     S
C106   F117    1.353   .     S
C106   N143    1.367   .     A
C107   F118    1.355   .     S
C107   N144    1.364   .     A
C108   F119    1.354   .     S
C108   C110    1.406   .     A
C108   N143    1.367   .     A
C109   F120    1.355   .     S
C109   N144    1.363   .     A
C110   H138    1.080   .     S
Cu111  O156    1.959   .     S
Cu111  O153    1.957   .     S
Cu111  N144    2.014   .     S
Cu111  O149    1.960   .     S
Cu111  Cu112   2.681   .     S
Cu111  O152    1.960   .     S
Cu112  O155    1.959   .     S
Cu112  N143    2.014   .     S
Cu112  O150    1.960   .     S
Cu112  O151    1.960   .     S
Cu112  O154    1.957   .     S
H121   C163    1.087   .     S
H123   N146    1.032   .     S
H127   N147    1.032   .     S
H131   N148    1.031   .     S
H140   N145    1.031   .     S
C157   O227    1.297   .     A
C157   O229    1.296   .     A
C157   C170    1.472   .     S
C158   H217    1.080   .     S
C158   C187    1.405   .     A
C158   C160    1.413   .     A
C159   C179    1.411   .     A
C159   C188    1.411   .     A
C159   C628    1.521   1_554 S
C160   C183    1.413   .     A
C160   C627    1.521   .     S
C161   C163    1.433   .     S
C161   O231    1.287   .     A
C161   O233    1.289   .     A
C162   O234    1.289   .     A
C162   C164    1.434   .     S
C162   O232    1.287   .     A
C164   C7      1.335   1_655 S
C164   H54     1.087   1_655 S
C165   C176    1.396   .     A
C165   C167    1.398   .     A
C165   F191    1.359   .     S
C166   C177    1.396   .     A
C166   C169    1.397   .     A
C166   F192    1.360   .     S
C167   C170    1.417   .     A
C167   N223    1.423   .     S
C168   O230    1.296   .     A
C168   O228    1.296   .     A
C168   C171    1.471   .     S
C169   C171    1.416   .     A
C169   N224    1.423   .     S
C170   C172    1.416   .     A
C171   C173    1.416   .     A
C172   N225    1.423   .     S
C172   C174    1.397   .     A
C173   N226    1.423   .     S
C173   C175    1.399   .     A
C174   F193    1.360   .     S
C174   C176    1.396   .     A
C175   C177    1.396   .     A
C175   F194    1.359   .     S
C176   C411    1.458   1_545 S
C177   C410    1.458   .     S
C178   H219    1.111   .     S
C178   H200    1.110   .     S
C178   N223    1.447   .     S
C178   H220    1.110   .     S
C179   H214    1.080   .     S
C179   C184    1.405   .     A
C180   H204    1.109   .     S
C180   H203    1.111   .     S
C180   H202    1.111   .     S
C180   N224    1.448   .     S
C181   H206    1.111   .     S
C181   H207    1.111   .     S
C181   N225    1.449   .     S
C181   H208    1.110   .     S
C182   H211    1.111   .     S
C182   N226    1.447   .     S
C182   H212    1.109   .     S
C182   H213    1.110   .     S
C183   C185    1.405   .     A
C183   H215    1.080   .     S
C184   F195    1.353   .     S
C184   N221    1.367   .     A
C185   F196    1.355   .     S
C185   N222    1.364   .     A
C186   F197    1.354   .     S
C186   C188    1.406   .     A
C186   N221    1.367   .     A
C187   F198    1.355   .     S
C187   N222    1.363   .     A
C188   H216    1.080   .     S
Cu189  O234    1.959   .     S
Cu189  O231    1.957   .     S
Cu189  N222    2.014   .     S
Cu189  O227    1.960   .     S
Cu189  Cu190   2.681   .     S
Cu189  O230    1.960   .     S
Cu190  O233    1.959   .     S
Cu190  N221    2.014   .     S
Cu190  O228    1.960   .     S
Cu190  O229    1.960   .     S
Cu190  O232    1.957   .     S
H199   C7      1.087   1_655 S
H201   N224    1.032   .     S
H205   N225    1.032   .     S
H209   N226    1.031   .     S
H218   N223    1.031   .     S
C235   O305    1.297   .     A
C235   O307    1.296   .     A
C235   C248    1.472   .     S
C236   H295    1.080   .     S
C236   C265    1.405   .     A
C236   C238    1.413   .     A
C237   C257    1.411   .     A
C237   C266    1.411   .     A
C237   C706    1.521   1_554 S
C238   C261    1.413   .     A
C238   C705    1.521   .     S
C239   C241    1.433   .     S
C239   O309    1.287   .     A
C239   O311    1.289   .     A
C240   O312    1.289   .     A
C240   C242    1.434   .     S
C240   O310    1.287   .     A
C241   C398    1.335   1_455 S
C241   H433    1.087   1_455 S
C242   C319    1.335   .     S
C242   H366    1.087   .     S
C243   C254    1.396   .     A
C243   C245    1.398   .     A
C243   F269    1.359   .     S
C244   C255    1.396   .     A
C244   C247    1.397   .     A
C244   F270    1.360   .     S
C245   C248    1.417   .     A
C245   N301    1.423   .     S
C246   O308    1.296   .     A
C246   O306    1.296   .     A
C246   C249    1.471   .     S
C247   C249    1.416   .     A
C247   N302    1.423   .     S
C248   C250    1.416   .     A
C249   C251    1.416   .     A
C250   N303    1.423   .     S
C250   C252    1.397   .     A
C251   N304    1.423   .     S
C251   C253    1.399   .     A
C252   F271    1.360   .     S
C252   C254    1.396   .     A
C253   C255    1.396   .     A
C253   F272    1.359   .     S
C255   C20     1.458   1_565 S
C256   H297    1.111   .     S
C256   H278    1.110   .     S
C256   N301    1.447   .     S
C256   H298    1.110   .     S
C257   H292    1.080   .     S
C257   C262    1.405   .     A
C258   H282    1.109   .     S
C258   H281    1.111   .     S
C258   H280    1.111   .     S
C258   N302    1.448   .     S
C259   H284    1.111   .     S
C259   H285    1.111   .     S
C259   N303    1.449   .     S
C259   H286    1.110   .     S
C260   H289    1.111   .     S
C260   N304    1.447   .     S
C260   H290    1.109   .     S
C260   H291    1.110   .     S
C261   C263    1.405   .     A
C261   H293    1.080   .     S
C262   F273    1.353   .     S
C262   N299    1.367   .     A
C263   F274    1.355   .     S
C263   N300    1.364   .     A
C264   F275    1.354   .     S
C264   C266    1.406   .     A
C264   N299    1.367   .     A
C265   F276    1.355   .     S
C265   N300    1.363   .     A
C266   H294    1.080   .     S
Cu267  O312    1.959   .     S
Cu267  O309    1.957   .     S
Cu267  N300    2.014   .     S
Cu267  O305    1.960   .     S
Cu267  Cu268   2.681   .     S
Cu267  O308    1.960   .     S
Cu268  O311    1.959   .     S
Cu268  N299    2.014   .     S
Cu268  O306    1.960   .     S
Cu268  O307    1.960   .     S
Cu268  O310    1.957   .     S
H277   C319    1.087   .     S
H279   N302    1.032   .     S
H283   N303    1.032   .     S
H287   N304    1.031   .     S
H288   C398    1.087   1_455 S
H296   N301    1.031   .     S
C313   O383    1.297   .     A
C313   O385    1.296   .     A
C313   C326    1.472   .     S
C314   H373    1.080   .     S
C314   C343    1.405   .     A
C314   C316    1.413   .     A
C315   C335    1.411   .     A
C315   C344    1.411   .     A
C315   C784    1.521   1_554 S
C316   C339    1.413   .     A
C316   C783    1.521   .     S
C317   C319    1.433   .     S
C317   O387    1.287   .     A
C317   O389    1.289   .     A
C318   O390    1.289   .     A
C318   C320    1.434   .     S
C318   O388    1.287   .     A
C320   C397    1.335   .     S
C320   H444    1.087   .     S
C321   C332    1.396   .     A
C321   C323    1.398   .     A
C321   F347    1.359   .     S
C322   C333    1.396   .     A
C322   C325    1.397   .     A
C322   F348    1.360   .     S
C323   C326    1.417   .     A
C323   N379    1.423   .     S
C324   O386    1.296   .     A
C324   O384    1.296   .     A
C324   C327    1.471   .     S
C325   C327    1.416   .     A
C325   N380    1.423   .     S
C326   C328    1.416   .     A
C327   C329    1.416   .     A
C328   N381    1.423   .     S
C328   C330    1.397   .     A
C329   N382    1.423   .     S
C329   C331    1.399   .     A
C330   F349    1.360   .     S
C330   C332    1.396   .     A
C331   C333    1.396   .     A
C331   F350    1.359   .     S
C333   C98     1.458   1_565 S
C334   H375    1.111   .     S
C334   H356    1.110   .     S
C334   N379    1.447   .     S
C334   H376    1.110   .     S
C335   H370    1.080   .     S
C335   C340    1.405   .     A
C336   H360    1.109   .     S
C336   H359    1.111   .     S
C336   H358    1.111   .     S
C336   N380    1.448   .     S
C337   H362    1.111   .     S
C337   H363    1.111   .     S
C337   N381    1.449   .     S
C337   H364    1.110   .     S
C338   H367    1.111   .     S
C338   N382    1.447   .     S
C338   H368    1.109   .     S
C338   H369    1.110   .     S
C339   C341    1.405   .     A
C339   H371    1.080   .     S
C340   F351    1.353   .     S
C340   N377    1.367   .     A
C341   F352    1.355   .     S
C341   N378    1.364   .     A
C342   F353    1.354   .     S
C342   C344    1.406   .     A
C342   N377    1.367   .     A
C343   F354    1.355   .     S
C343   N378    1.363   .     A
C344   H372    1.080   .     S
Cu345  O390    1.959   .     S
Cu345  O387    1.957   .     S
Cu345  N378    2.014   .     S
Cu345  O383    1.960   .     S
Cu345  Cu346   2.681   .     S
Cu345  O386    1.960   .     S
Cu346  O389    1.959   .     S
Cu346  N377    2.014   .     S
Cu346  O384    1.960   .     S
Cu346  O385    1.960   .     S
Cu346  O388    1.957   .     S
H355   C397    1.087   .     S
H357   N380    1.032   .     S
H361   N381    1.032   .     S
H365   N382    1.031   .     S
H374   N379    1.031   .     S
C391   O461    1.297   .     A
C391   O463    1.296   .     A
C391   C404    1.472   .     S
C392   H451    1.080   .     S
C392   C421    1.405   .     A
C392   C394    1.413   .     A
C393   C413    1.411   .     A
C393   C422    1.411   .     A
C393   C862    1.521   1_554 S
C394   C417    1.413   .     A
C394   C861    1.521   .     S
C395   C397    1.433   .     S
C395   O465    1.287   .     A
C395   O467    1.289   .     A
C396   O468    1.289   .     A
C396   C398    1.434   .     S
C396   O466    1.287   .     A
C398   C241    1.335   1_655 S
C398   H288    1.087   1_655 S
C399   C410    1.396   .     A
C399   C401    1.398   .     A
C399   F425    1.359   .     S
C400   C411    1.396   .     A
C400   C403    1.397   .     A
C400   F426    1.360   .     S
C401   C404    1.417   .     A
C401   N457    1.423   .     S
C402   O464    1.296   .     A
C402   O462    1.296   .     A
C402   C405    1.471   .     S
C403   C405    1.416   .     A
C403   N458    1.423   .     S
C404   C406    1.416   .     A
C405   C407    1.416   .     A
C406   N459    1.423   .     S
C406   C408    1.397   .     A
C407   N460    1.423   .     S
C407   C409    1.399   .     A
C408   F427    1.360   .     S
C408   C410    1.396   .     A
C409   C411    1.396   .     A
C409   F428    1.359   .     S
C411   C176    1.458   1_565 S
C412   H453    1.111   .     S
C412   H434    1.110   .     S
C412   N457    1.447   .     S
C412   H454    1.110   .     S
C413   H448    1.080   .     S
C413   C418    1.405   .     A
C414   H438    1.109   .     S
C414   H437    1.111   .     S
C414   H436    1.111   .     S
C414   N458    1.448   .     S
C415   H440    1.111   .     S
C415   H441    1.111   .     S
C415   N459    1.449   .     S
C415   H442    1.110   .     S
C416   H445    1.111   .     S
C416   N460    1.447   .     S
C416   H446    1.109   .     S
C416   H447    1.110   .     S
C417   C419    1.405   .     A
C417   H449    1.080   .     S
C418   F429    1.353   .     S
C418   N455    1.367   .     A
C419   F430    1.355   .     S
C419   N456    1.364   .     A
C420   F431    1.354   .     S
C420   C422    1.406   .     A
C420   N455    1.367   .     A
C421   F432    1.355   .     S
C421   N456    1.363   .     A
C422   H450    1.080   .     S
Cu423  O468    1.959   .     S
Cu423  O465    1.957   .     S
Cu423  N456    2.014   .     S
Cu423  O461    1.960   .     S
Cu423  Cu424   2.681   .     S
Cu423  O464    1.960   .     S
Cu424  O467    1.959   .     S
Cu424  N455    2.014   .     S
Cu424  O462    1.960   .     S
Cu424  O463    1.960   .     S
Cu424  O466    1.957   .     S
H433   C241    1.087   1_655 S
H435   N458    1.032   .     S
H439   N459    1.032   .     S
H443   N460    1.031   .     S
H452   N457    1.031   .     S
C469   O539    1.297   .     A
C469   O541    1.296   .     A
C469   C482    1.472   .     S
C470   H529    1.080   .     S
C470   C499    1.405   .     A
C470   C472    1.413   .     A
C471   C491    1.411   .     A
C471   C500    1.411   .     A
C472   C495    1.413   .     A
C472   C3      1.521   1_556 S
C473   C475    1.433   .     S
C473   O543    1.287   .     A
C473   O545    1.289   .     A
C474   O546    1.289   .     A
C474   C476    1.434   .     S
C474   O544    1.287   .     A
C475   C632    1.335   1_455 S
C475   H667    1.087   1_455 S
C476   C553    1.335   .     S
C476   H600    1.087   .     S
C477   C488    1.396   .     A
C477   C479    1.398   .     A
C477   F503    1.359   .     S
C478   C489    1.396   .     A
C478   C481    1.397   .     A
C478   F504    1.360   .     S
C479   C482    1.417   .     A
C479   N535    1.423   .     S
C480   O542    1.296   .     A
C480   O540    1.296   .     A
C480   C483    1.471   .     S
C481   C483    1.416   .     A
C481   N536    1.423   .     S
C482   C484    1.416   .     A
C483   C485    1.416   .     A
C484   N537    1.423   .     S
C484   C486    1.397   .     A
C485   N538    1.423   .     S
C485   C487    1.399   .     A
C486   F505    1.360   .     S
C486   C488    1.396   .     A
C487   C489    1.396   .     A
C487   F506    1.359   .     S
C488   C723    1.458   1_545 S
C489   C722    1.458   .     S
C490   H531    1.111   .     S
C490   H512    1.110   .     S
C490   N535    1.447   .     S
C490   H532    1.110   .     S
C491   H526    1.080   .     S
C491   C496    1.405   .     A
C492   H516    1.109   .     S
C492   H515    1.111   .     S
C492   H514    1.111   .     S
C492   N536    1.448   .     S
C493   H518    1.111   .     S
C493   H519    1.111   .     S
C493   N537    1.449   .     S
C493   H520    1.110   .     S
C494   H523    1.111   .     S
C494   N538    1.447   .     S
C494   H524    1.109   .     S
C494   H525    1.110   .     S
C495   C497    1.405   .     A
C495   H527    1.080   .     S
C496   F507    1.353   .     S
C496   N533    1.367   .     A
C497   F508    1.355   .     S
C497   N534    1.364   .     A
C498   F509    1.354   .     S
C498   C500    1.406   .     A
C498   N533    1.367   .     A
C499   F510    1.355   .     S
C499   N534    1.363   .     A
C500   H528    1.080   .     S
Cu501  O546    1.959   .     S
Cu501  O543    1.957   .     S
Cu501  N534    2.014   .     S
Cu501  O539    1.960   .     S
Cu501  Cu502   2.681   .     S
Cu501  O542    1.960   .     S
Cu502  O545    1.959   .     S
Cu502  N533    2.014   .     S
Cu502  O540    1.960   .     S
Cu502  O541    1.960   .     S
Cu502  O544    1.957   .     S
H511   C553    1.087   .     S
H513   N536    1.032   .     S
H517   N537    1.032   .     S
H521   N538    1.031   .     S
H522   C632    1.087   1_455 S
H530   N535    1.031   .     S
C547   O617    1.297   .     A
C547   O619    1.296   .     A
C547   C560    1.472   .     S
C548   H607    1.080   .     S
C548   C577    1.405   .     A
C548   C550    1.413   .     A
C549   C569    1.411   .     A
C549   C578    1.411   .     A
C550   C573    1.413   .     A
C550   C81     1.521   1_556 S
C551   C553    1.433   .     S
C551   O621    1.287   .     A
C551   O623    1.289   .     A
C552   O624    1.289   .     A
C552   C554    1.434   .     S
C552   O622    1.287   .     A
C554   C631    1.335   .     S
C554   H678    1.087   .     S
C555   C566    1.396   .     A
C555   C557    1.398   .     A
C555   F581    1.359   .     S
C556   C567    1.396   .     A
C556   C559    1.397   .     A
C556   F582    1.360   .     S
C557   C560    1.417   .     A
C557   N613    1.423   .     S
C558   O620    1.296   .     A
C558   O618    1.296   .     A
C558   C561    1.471   .     S
C559   C561    1.416   .     A
C559   N614    1.423   .     S
C560   C562    1.416   .     A
C561   C563    1.416   .     A
C562   N615    1.423   .     S
C562   C564    1.397   .     A
C563   N616    1.423   .     S
C563   C565    1.399   .     A
C564   F583    1.360   .     S
C564   C566    1.396   .     A
C565   C567    1.396   .     A
C565   F584    1.359   .     S
C566   C801    1.458   1_545 S
C567   C800    1.458   .     S
C568   H609    1.111   .     S
C568   H590    1.110   .     S
C568   N613    1.447   .     S
C568   H610    1.110   .     S
C569   H604    1.080   .     S
C569   C574    1.405   .     A
C570   H594    1.109   .     S
C570   H593    1.111   .     S
C570   H592    1.111   .     S
C570   N614    1.448   .     S
C571   H596    1.111   .     S
C571   H597    1.111   .     S
C571   N615    1.449   .     S
C571   H598    1.110   .     S
C572   H601    1.111   .     S
C572   N616    1.447   .     S
C572   H602    1.109   .     S
C572   H603    1.110   .     S
C573   C575    1.405   .     A
C573   H605    1.080   .     S
C574   F585    1.353   .     S
C574   N611    1.367   .     A
C575   F586    1.355   .     S
C575   N612    1.364   .     A
C576   F587    1.354   .     S
C576   C578    1.406   .     A
C576   N611    1.367   .     A
C577   F588    1.355   .     S
C577   N612    1.363   .     A
C578   H606    1.080   .     S
Cu579  O624    1.959   .     S
Cu579  O621    1.957   .     S
Cu579  N612    2.014   .     S
Cu579  O617    1.960   .     S
Cu579  Cu580   2.681   .     S
Cu579  O620    1.960   .     S
Cu580  O623    1.959   .     S
Cu580  N611    2.014   .     S
Cu580  O618    1.960   .     S
Cu580  O619    1.960   .     S
Cu580  O622    1.957   .     S
H589   C631    1.087   .     S
H591   N614    1.032   .     S
H595   N615    1.032   .     S
H599   N616    1.031   .     S
H608   N613    1.031   .     S
C625   O695    1.297   .     A
C625   O697    1.296   .     A
C625   C638    1.472   .     S
C626   H685    1.080   .     S
C626   C655    1.405   .     A
C626   C628    1.413   .     A
C627   C647    1.411   .     A
C627   C656    1.411   .     A
C628   C651    1.413   .     A
C628   C159    1.521   1_556 S
C629   C631    1.433   .     S
C629   O699    1.287   .     A
C629   O701    1.289   .     A
C630   O702    1.289   .     A
C630   C632    1.434   .     S
C630   O700    1.287   .     A
C632   C475    1.335   1_655 S
C632   H522    1.087   1_655 S
C633   C644    1.396   .     A
C633   C635    1.398   .     A
C633   F659    1.359   .     S
C634   C645    1.396   .     A
C634   C637    1.397   .     A
C634   F660    1.360   .     S
C635   C638    1.417   .     A
C635   N691    1.423   .     S
C636   O698    1.296   .     A
C636   O696    1.296   .     A
C636   C639    1.471   .     S
C637   C639    1.416   .     A
C637   N692    1.423   .     S
C638   C640    1.416   .     A
C639   C641    1.416   .     A
C640   N693    1.423   .     S
C640   C642    1.397   .     A
C641   N694    1.423   .     S
C641   C643    1.399   .     A
C642   F661    1.360   .     S
C642   C644    1.396   .     A
C643   C645    1.396   .     A
C643   F662    1.359   .     S
C644   C879    1.458   1_545 S
C645   C878    1.458   .     S
C646   H687    1.111   .     S
C646   H668    1.110   .     S
C646   N691    1.447   .     S
C646   H688    1.110   .     S
C647   H682    1.080   .     S
C647   C652    1.405   .     A
C648   H672    1.109   .     S
C648   H671    1.111   .     S
C648   H670    1.111   .     S
C648   N692    1.448   .     S
C649   H674    1.111   .     S
C649   H675    1.111   .     S
C649   N693    1.449   .     S
C649   H676    1.110   .     S
C650   H679    1.111   .     S
C650   N694    1.447   .     S
C650   H680    1.109   .     S
C650   H681    1.110   .     S
C651   C653    1.405   .     A
C651   H683    1.080   .     S
C652   F663    1.353   .     S
C652   N689    1.367   .     A
C653   F664    1.355   .     S
C653   N690    1.364   .     A
C654   F665    1.354   .     S
C654   C656    1.406   .     A
C654   N689    1.367   .     A
C655   F666    1.355   .     S
C655   N690    1.363   .     A
C656   H684    1.080   .     S
Cu657  O702    1.959   .     S
Cu657  O699    1.957   .     S
Cu657  N690    2.014   .     S
Cu657  O695    1.960   .     S
Cu657  Cu658   2.681   .     S
Cu657  O698    1.960   .     S
Cu658  O701    1.959   .     S
Cu658  N689    2.014   .     S
Cu658  O696    1.960   .     S
Cu658  O697    1.960   .     S
Cu658  O700    1.957   .     S
H667   C475    1.087   1_655 S
H669   N692    1.032   .     S
H673   N693    1.032   .     S
H677   N694    1.031   .     S
H686   N691    1.031   .     S
C703   O773    1.297   .     A
C703   O775    1.296   .     A
C703   C716    1.472   .     S
C704   H763    1.080   .     S
C704   C733    1.405   .     A
C704   C706    1.413   .     A
C705   C725    1.411   .     A
C705   C734    1.411   .     A
C706   C729    1.413   .     A
C706   C237    1.521   1_556 S
C707   C709    1.433   .     S
C707   O777    1.287   .     A
C707   O779    1.289   .     A
C708   O780    1.289   .     A
C708   C710    1.434   .     S
C708   O778    1.287   .     A
C709   C866    1.335   1_455 S
C709   H901    1.087   1_455 S
C710   C787    1.335   .     S
C710   H834    1.087   .     S
C711   C722    1.396   .     A
C711   C713    1.398   .     A
C711   F737    1.359   .     S
C712   C723    1.396   .     A
C712   C715    1.397   .     A
C712   F738    1.360   .     S
C713   C716    1.417   .     A
C713   N769    1.423   .     S
C714   O776    1.296   .     A
C714   O774    1.296   .     A
C714   C717    1.471   .     S
C715   C717    1.416   .     A
C715   N770    1.423   .     S
C716   C718    1.416   .     A
C717   C719    1.416   .     A
C718   N771    1.423   .     S
C718   C720    1.397   .     A
C719   N772    1.423   .     S
C719   C721    1.399   .     A
C720   F739    1.360   .     S
C720   C722    1.396   .     A
C721   C723    1.396   .     A
C721   F740    1.359   .     S
C723   C488    1.458   1_565 S
C724   H765    1.111   .     S
C724   H746    1.110   .     S
C724   N769    1.447   .     S
C724   H766    1.110   .     S
C725   H760    1.080   .     S
C725   C730    1.405   .     A
C726   H750    1.109   .     S
C726   H749    1.111   .     S
C726   H748    1.111   .     S
C726   N770    1.448   .     S
C727   H752    1.111   .     S
C727   H753    1.111   .     S
C727   N771    1.449   .     S
C727   H754    1.110   .     S
C728   H757    1.111   .     S
C728   N772    1.447   .     S
C728   H758    1.109   .     S
C728   H759    1.110   .     S
C729   C731    1.405   .     A
C729   H761    1.080   .     S
C730   F741    1.353   .     S
C730   N767    1.367   .     A
C731   F742    1.355   .     S
C731   N768    1.364   .     A
C732   F743    1.354   .     S
C732   C734    1.406   .     A
C732   N767    1.367   .     A
C733   F744    1.355   .     S
C733   N768    1.363   .     A
C734   H762    1.080   .     S
Cu735  O780    1.959   .     S
Cu735  O777    1.957   .     S
Cu735  N768    2.014   .     S
Cu735  O773    1.960   .     S
Cu735  Cu736   2.681   .     S
Cu735  O776    1.960   .     S
Cu736  O779    1.959   .     S
Cu736  N767    2.014   .     S
Cu736  O774    1.960   .     S
Cu736  O775    1.960   .     S
Cu736  O778    1.957   .     S
H745   C787    1.087   .     S
H747   N770    1.032   .     S
H751   N771    1.032   .     S
H755   N772    1.031   .     S
H756   C866    1.087   1_455 S
H764   N769    1.031   .     S
C781   O851    1.297   .     A
C781   O853    1.296   .     A
C781   C794    1.472   .     S
C782   H841    1.080   .     S
C782   C811    1.405   .     A
C782   C784    1.413   .     A
C783   C803    1.411   .     A
C783   C812    1.411   .     A
C784   C807    1.413   .     A
C784   C315    1.521   1_556 S
C785   C787    1.433   .     S
C785   O855    1.287   .     A
C785   O857    1.289   .     A
C786   O858    1.289   .     A
C786   C788    1.434   .     S
C786   O856    1.287   .     A
C788   C865    1.335   .     S
C788   H912    1.087   .     S
C789   C800    1.396   .     A
C789   C791    1.398   .     A
C789   F815    1.359   .     S
C790   C801    1.396   .     A
C790   C793    1.397   .     A
C790   F816    1.360   .     S
C791   C794    1.417   .     A
C791   N847    1.423   .     S
C792   O854    1.296   .     A
C792   O852    1.296   .     A
C792   C795    1.471   .     S
C793   C795    1.416   .     A
C793   N848    1.423   .     S
C794   C796    1.416   .     A
C795   C797    1.416   .     A
C796   N849    1.423   .     S
C796   C798    1.397   .     A
C797   N850    1.423   .     S
C797   C799    1.399   .     A
C798   F817    1.360   .     S
C798   C800    1.396   .     A
C799   C801    1.396   .     A
C799   F818    1.359   .     S
C801   C566    1.458   1_565 S
C802   H843    1.111   .     S
C802   H824    1.110   .     S
C802   N847    1.447   .     S
C802   H844    1.110   .     S
C803   H838    1.080   .     S
C803   C808    1.405   .     A
C804   H828    1.109   .     S
C804   H827    1.111   .     S
C804   H826    1.111   .     S
C804   N848    1.448   .     S
C805   H830    1.111   .     S
C805   H831    1.111   .     S
C805   N849    1.449   .     S
C805   H832    1.110   .     S
C806   H835    1.111   .     S
C806   N850    1.447   .     S
C806   H836    1.109   .     S
C806   H837    1.110   .     S
C807   C809    1.405   .     A
C807   H839    1.080   .     S
C808   F819    1.353   .     S
C808   N845    1.367   .     A
C809   F820    1.355   .     S
C809   N846    1.364   .     A
C810   F821    1.354   .     S
C810   C812    1.406   .     A
C810   N845    1.367   .     A
C811   F822    1.355   .     S
C811   N846    1.363   .     A
C812   H840    1.080   .     S
Cu813  O858    1.959   .     S
Cu813  O855    1.957   .     S
Cu813  N846    2.014   .     S
Cu813  O851    1.960   .     S
Cu813  Cu814   2.681   .     S
Cu813  O854    1.960   .     S
Cu814  O857    1.959   .     S
Cu814  N845    2.014   .     S
Cu814  O852    1.960   .     S
Cu814  O853    1.960   .     S
Cu814  O856    1.957   .     S
H823   C865    1.087   .     S
H825   N848    1.032   .     S
H829   N849    1.032   .     S
H833   N850    1.031   .     S
H842   N847    1.031   .     S
C859   O929    1.297   .     A
C859   O931    1.296   .     A
C859   C872    1.472   .     S
C860   H919    1.080   .     S
C860   C889    1.405   .     A
C860   C862    1.413   .     A
C861   C881    1.411   .     A
C861   C890    1.411   .     A
C862   C885    1.413   .     A
C862   C393    1.521   1_556 S
C863   C865    1.433   .     S
C863   O933    1.287   .     A
C863   O935    1.289   .     A
C864   O936    1.289   .     A
C864   C866    1.434   .     S
C864   O934    1.287   .     A
C866   C709    1.335   1_655 S
C866   H756    1.087   1_655 S
C867   C878    1.396   .     A
C867   C869    1.398   .     A
C867   F893    1.359   .     S
C868   C879    1.396   .     A
C868   C871    1.397   .     A
C868   F894    1.360   .     S
C869   C872    1.417   .     A
C869   N925    1.423   .     S
C870   O932    1.296   .     A
C870   O930    1.296   .     A
C870   C873    1.471   .     S
C871   C873    1.416   .     A
C871   N926    1.423   .     S
C872   C874    1.416   .     A
C873   C875    1.416   .     A
C874   N927    1.423   .     S
C874   C876    1.397   .     A
C875   N928    1.423   .     S
C875   C877    1.399   .     A
C876   F895    1.360   .     S
C876   C878    1.396   .     A
C877   C879    1.396   .     A
C877   F896    1.359   .     S
C879   C644    1.458   1_565 S
C880   H921    1.111   .     S
C880   H902    1.110   .     S
C880   N925    1.447   .     S
C880   H922    1.110   .     S
C881   H916    1.080   .     S
C881   C886    1.405   .     A
C882   H906    1.109   .     S
C882   H905    1.111   .     S
C882   H904    1.111   .     S
C882   N926    1.448   .     S
C883   H908    1.111   .     S
C883   H909    1.111   .     S
C883   N927    1.449   .     S
C883   H910    1.110   .     S
C884   H913    1.111   .     S
C884   N928    1.447   .     S
C884   H914    1.109   .     S
C884   H915    1.110   .     S
C885   C887    1.405   .     A
C885   H917    1.080   .     S
C886   F897    1.353   .     S
C886   N923    1.367   .     A
C887   F898    1.355   .     S
C887   N924    1.364   .     A
C888   F899    1.354   .     S
C888   C890    1.406   .     A
C888   N923    1.367   .     A
C889   F900    1.355   .     S
C889   N924    1.363   .     A
C890   H918    1.080   .     S
Cu891  O936    1.959   .     S
Cu891  O933    1.957   .     S
Cu891  N924    2.014   .     S
Cu891  O929    1.960   .     S
Cu891  Cu892   2.681   .     S
Cu891  O932    1.960   .     S
Cu892  O935    1.959   .     S
Cu892  N923    2.014   .     S
Cu892  O930    1.960   .     S
Cu892  O931    1.960   .     S
Cu892  O934    1.957   .     S
H901   C709    1.087   1_655 S
H903   N926    1.032   .     S
H907   N927    1.032   .     S
H911   N928    1.031   .     S
H920   N925    1.031   .     S
