data_str_m2_o1_o10_pcu_sym.15
_audit_creation_date              2020-01-03
_audit_creation_method            'Materials Studio'
_symmetry_space_group_name_H-M    'P1'
_symmetry_Int_Tables_number       1
_symmetry_cell_setting            triclinic
loop_
_symmetry_equiv_pos_as_xyz
  x,y,z
_cell_length_a                    26.3183
_cell_length_b                    32.2659
_cell_length_c                    28.8200
_cell_angle_alpha                 89.5645
_cell_angle_beta                  97.8392
_cell_angle_gamma                 91.4400
loop_
_atom_site_label
_atom_site_type_symbol
_atom_site_fract_x
_atom_site_fract_y
_atom_site_fract_z
_atom_site_U_iso_or_equiv
_atom_site_adp_type
_atom_site_occupancy
O1     O     0.16666   0.10655   0.20625   0.00000  Uiso   1.00
O2     O     0.16667   0.22678   0.12709   0.00000  Uiso   1.00
O3     O     0.16666   0.10654   0.12706   0.00000  Uiso   1.00
O4     O     0.16667   0.22679   0.20628   0.00000  Uiso   1.00
C5     C     0.16704   0.08758   0.16687   0.00000  Uiso   1.00
C6     C     0.16629   0.24575   0.16646   0.00000  Uiso   1.00
O7     O     0.09161   0.16667   0.19712   0.00000  Uiso   1.00
O8     O     0.24172   0.16666   0.13621   0.00000  Uiso   1.00
O9     O     0.09161   0.16666   0.11793   0.00000  Uiso   1.00
O10    O     0.24172   0.16667   0.21540   0.00000  Uiso   1.00
C11    C     0.06815   0.16535   0.15481   0.00000  Uiso   1.00
C12    C     0.26519   0.16796   0.17852   0.00000  Uiso   1.00
Cu13   Cu    0.16667   0.16667   0.21355   0.00000  Uiso   1.00
Cu14   Cu    0.16667   0.16666   0.11978   0.00000  Uiso   1.00
N15    N     0.16668   0.16668   0.28403   0.00000  Uiso   1.00
N16    N     0.16665   0.16666   0.04931   0.00000  Uiso   1.00
C17    C     0.01287   0.16023   0.14929   0.00000  Uiso   1.00
C18    C     0.32048   0.17304   0.18403   0.00000  Uiso   1.00
C19    C     0.21127   0.02235   0.15795   0.00000  Uiso   1.00
C20    C     0.12207   0.31097   0.17540   0.00000  Uiso   1.00
C21    C     0.21075   0.31213   0.15767   0.00000  Uiso   1.00
C22    C     0.12258   0.02120   0.17566   0.00000  Uiso   1.00
C23    C     0.16600   0.29044   0.16590   0.00000  Uiso   1.00
C24    C     0.16733   0.04289   0.16743   0.00000  Uiso   1.00
C25    C     0.13749   0.13812   0.02194   0.00000  Uiso   1.00
C26    C     0.19432   0.19610   0.31238   0.00000  Uiso   1.00
C27    C     0.13811   0.13770   0.30541   0.00000  Uiso   1.00
C28    C     0.19427   0.19586   0.02809   0.00000  Uiso   1.00
O29    O     0.32079   0.13990   0.11027   0.00000  Uiso   1.00
H30    H     0.01276   0.12973   0.09080   0.00000  Uiso   1.00
O31    O     0.01261   0.19334   0.22306   0.00000  Uiso   1.00
H32    H     0.32070   0.20344   0.24260   0.00000  Uiso   1.00
N33    N     0.25597   0.04574   0.14875   0.00000  Uiso   1.00
O34    O     0.27925   0.07092   0.18020   0.00000  Uiso   1.00
O35    O     0.27364   0.04169   0.10906   0.00000  Uiso   1.00
N36    N     0.07738   0.28759   0.18461   0.00000  Uiso   1.00
O37    O     0.05409   0.26240   0.15318   0.00000  Uiso   1.00
O38    O     0.05973   0.29164   0.22432   0.00000  Uiso   1.00
O39    O     0.25342   0.28964   0.15142   0.00000  Uiso   1.00
H40    H     0.28423   0.30809   0.15399   0.00000  Uiso   1.00
O41    O     0.07991   0.04369   0.18191   0.00000  Uiso   1.00
H42    H     0.04911   0.02522   0.17936   0.00000  Uiso   1.00
O43    O     0.10755   0.11051   0.04390   0.00000  Uiso   1.00
H44    H     0.08502   0.09383   0.02051   0.00000  Uiso   1.00
O45    O     0.22247   0.22760   0.29485   0.00000  Uiso   1.00
H46    H     0.23409   0.21812   0.26602   0.00000  Uiso   1.00
N47    N     0.10945   0.10620   0.27792   0.00000  Uiso   1.00
O48    O     0.12584   0.06843   0.28095   0.00000  Uiso   1.00
O49    O     0.06154   0.11224   0.26205   0.00000  Uiso   1.00
N50    N     0.22377   0.22712   0.05528   0.00000  Uiso   1.00
O51    O     0.27175   0.22056   0.07032   0.00000  Uiso   1.00
O52    O     0.20826   0.26513   0.05201   0.00000  Uiso   1.00
O53    O     0.50000   0.10655   0.20625   0.00000  Uiso   1.00
O54    O     0.50000   0.22678   0.12709   0.00000  Uiso   1.00
O55    O     0.50000   0.10654   0.12706   0.00000  Uiso   1.00
O56    O     0.50000   0.22679   0.20628   0.00000  Uiso   1.00
C57    C     0.50038   0.08758   0.16687   0.00000  Uiso   1.00
C58    C     0.49962   0.24575   0.16646   0.00000  Uiso   1.00
O59    O     0.42495   0.16667   0.19712   0.00000  Uiso   1.00
O60    O     0.57505   0.16666   0.13621   0.00000  Uiso   1.00
O61    O     0.42494   0.16666   0.11793   0.00000  Uiso   1.00
O62    O     0.57506   0.16667   0.21540   0.00000  Uiso   1.00
C63    C     0.40148   0.16535   0.15481   0.00000  Uiso   1.00
C64    C     0.59853   0.16796   0.17852   0.00000  Uiso   1.00
Cu65   Cu    0.50000   0.16667   0.21355   0.00000  Uiso   1.00
Cu66   Cu    0.50000   0.16666   0.11978   0.00000  Uiso   1.00
N67    N     0.50001   0.16668   0.28403   0.00000  Uiso   1.00
N68    N     0.49999   0.16666   0.04931   0.00000  Uiso   1.00
C69    C     0.34620   0.16023   0.14929   0.00000  Uiso   1.00
C70    C     0.65381   0.17304   0.18403   0.00000  Uiso   1.00
C71    C     0.54460   0.02235   0.15795   0.00000  Uiso   1.00
C72    C     0.45541   0.31097   0.17540   0.00000  Uiso   1.00
C73    C     0.54409   0.31213   0.15767   0.00000  Uiso   1.00
C74    C     0.45592   0.02120   0.17566   0.00000  Uiso   1.00
C75    C     0.49934   0.29044   0.16590   0.00000  Uiso   1.00
C76    C     0.50067   0.04289   0.16743   0.00000  Uiso   1.00
C77    C     0.47082   0.13812   0.02194   0.00000  Uiso   1.00
C78    C     0.52766   0.19610   0.31238   0.00000  Uiso   1.00
C79    C     0.47144   0.13770   0.30541   0.00000  Uiso   1.00
C80    C     0.52761   0.19586   0.02809   0.00000  Uiso   1.00
O81    O     0.65412   0.13990   0.11027   0.00000  Uiso   1.00
H82    H     0.34610   0.12973   0.09080   0.00000  Uiso   1.00
O83    O     0.34594   0.19334   0.22306   0.00000  Uiso   1.00
H84    H     0.65403   0.20344   0.24260   0.00000  Uiso   1.00
N85    N     0.58930   0.04574   0.14875   0.00000  Uiso   1.00
O86    O     0.61258   0.07092   0.18020   0.00000  Uiso   1.00
O87    O     0.60698   0.04169   0.10906   0.00000  Uiso   1.00
N88    N     0.41072   0.28759   0.18461   0.00000  Uiso   1.00
O89    O     0.38742   0.26240   0.15318   0.00000  Uiso   1.00
O90    O     0.39306   0.29164   0.22432   0.00000  Uiso   1.00
O91    O     0.58676   0.28964   0.15142   0.00000  Uiso   1.00
H92    H     0.61756   0.30809   0.15399   0.00000  Uiso   1.00
O93    O     0.41324   0.04369   0.18191   0.00000  Uiso   1.00
H94    H     0.38244   0.02522   0.17936   0.00000  Uiso   1.00
O95    O     0.44088   0.11051   0.04390   0.00000  Uiso   1.00
H96    H     0.41836   0.09383   0.02051   0.00000  Uiso   1.00
O97    O     0.55580   0.22760   0.29485   0.00000  Uiso   1.00
H98    H     0.56742   0.21812   0.26602   0.00000  Uiso   1.00
N99    N     0.44278   0.10620   0.27792   0.00000  Uiso   1.00
O100   O     0.45917   0.06843   0.28095   0.00000  Uiso   1.00
O101   O     0.39488   0.11224   0.26205   0.00000  Uiso   1.00
N102   N     0.55710   0.22712   0.05528   0.00000  Uiso   1.00
O103   O     0.60509   0.22056   0.07032   0.00000  Uiso   1.00
O104   O     0.54159   0.26513   0.05201   0.00000  Uiso   1.00
O105   O     0.83333   0.10655   0.20625   0.00000  Uiso   1.00
O106   O     0.83334   0.22678   0.12709   0.00000  Uiso   1.00
O107   O     0.83333   0.10654   0.12706   0.00000  Uiso   1.00
O108   O     0.83334   0.22679   0.20628   0.00000  Uiso   1.00
C109   C     0.83371   0.08758   0.16687   0.00000  Uiso   1.00
C110   C     0.83296   0.24575   0.16646   0.00000  Uiso   1.00
O111   O     0.75828   0.16667   0.19712   0.00000  Uiso   1.00
O112   O     0.90839   0.16666   0.13621   0.00000  Uiso   1.00
O113   O     0.75828   0.16666   0.11793   0.00000  Uiso   1.00
O114   O     0.90839   0.16667   0.21540   0.00000  Uiso   1.00
C115   C     0.73481   0.16535   0.15481   0.00000  Uiso   1.00
C116   C     0.93186   0.16796   0.17852   0.00000  Uiso   1.00
Cu117  Cu    0.83333   0.16667   0.21355   0.00000  Uiso   1.00
Cu118  Cu    0.83333   0.16666   0.11978   0.00000  Uiso   1.00
N119   N     0.83335   0.16668   0.28403   0.00000  Uiso   1.00
N120   N     0.83332   0.16666   0.04931   0.00000  Uiso   1.00
C121   C     0.67954   0.16023   0.14929   0.00000  Uiso   1.00
C122   C     0.98714   0.17304   0.18403   0.00000  Uiso   1.00
C123   C     0.87794   0.02235   0.15795   0.00000  Uiso   1.00
C124   C     0.78874   0.31097   0.17540   0.00000  Uiso   1.00
C125   C     0.87742   0.31213   0.15767   0.00000  Uiso   1.00
C126   C     0.78925   0.02120   0.17566   0.00000  Uiso   1.00
C127   C     0.83267   0.29044   0.16590   0.00000  Uiso   1.00
C128   C     0.83400   0.04289   0.16743   0.00000  Uiso   1.00
C129   C     0.80416   0.13812   0.02194   0.00000  Uiso   1.00
C130   C     0.86099   0.19610   0.31238   0.00000  Uiso   1.00
C131   C     0.80477   0.13770   0.30541   0.00000  Uiso   1.00
C132   C     0.86094   0.19586   0.02809   0.00000  Uiso   1.00
O133   O     0.98746   0.13990   0.11027   0.00000  Uiso   1.00
H134   H     0.67943   0.12973   0.09080   0.00000  Uiso   1.00
O135   O     0.67928   0.19334   0.22306   0.00000  Uiso   1.00
H136   H     0.98737   0.20344   0.24260   0.00000  Uiso   1.00
N137   N     0.92263   0.04574   0.14875   0.00000  Uiso   1.00
O138   O     0.94592   0.07092   0.18020   0.00000  Uiso   1.00
O139   O     0.94031   0.04169   0.10906   0.00000  Uiso   1.00
N140   N     0.74405   0.28759   0.18461   0.00000  Uiso   1.00
O141   O     0.72076   0.26240   0.15318   0.00000  Uiso   1.00
O142   O     0.72640   0.29164   0.22432   0.00000  Uiso   1.00
O143   O     0.92009   0.28964   0.15142   0.00000  Uiso   1.00
H144   H     0.95090   0.30809   0.15399   0.00000  Uiso   1.00
O145   O     0.74658   0.04369   0.18191   0.00000  Uiso   1.00
H146   H     0.71577   0.02522   0.17936   0.00000  Uiso   1.00
O147   O     0.77422   0.11051   0.04390   0.00000  Uiso   1.00
H148   H     0.75169   0.09383   0.02051   0.00000  Uiso   1.00
O149   O     0.88914   0.22760   0.29485   0.00000  Uiso   1.00
H150   H     0.90076   0.21812   0.26602   0.00000  Uiso   1.00
N151   N     0.77612   0.10620   0.27792   0.00000  Uiso   1.00
O152   O     0.79250   0.06843   0.28095   0.00000  Uiso   1.00
O153   O     0.72821   0.11224   0.26205   0.00000  Uiso   1.00
N154   N     0.89043   0.22712   0.05528   0.00000  Uiso   1.00
O155   O     0.93842   0.22056   0.07032   0.00000  Uiso   1.00
O156   O     0.87493   0.26513   0.05201   0.00000  Uiso   1.00
O157   O     0.16666   0.43989   0.20625   0.00000  Uiso   1.00
O158   O     0.16667   0.56011   0.12709   0.00000  Uiso   1.00
O159   O     0.16666   0.43988   0.12706   0.00000  Uiso   1.00
O160   O     0.16667   0.56012   0.20628   0.00000  Uiso   1.00
C161   C     0.16704   0.42092   0.16687   0.00000  Uiso   1.00
C162   C     0.16629   0.57908   0.16646   0.00000  Uiso   1.00
O163   O     0.09161   0.50000   0.19712   0.00000  Uiso   1.00
O164   O     0.24172   0.50000   0.13621   0.00000  Uiso   1.00
O165   O     0.09161   0.49999   0.11793   0.00000  Uiso   1.00
O166   O     0.24172   0.50001   0.21540   0.00000  Uiso   1.00
C167   C     0.06815   0.49868   0.15481   0.00000  Uiso   1.00
C168   C     0.26519   0.50129   0.17852   0.00000  Uiso   1.00
Cu169  Cu    0.16667   0.50001   0.21355   0.00000  Uiso   1.00
Cu170  Cu    0.16667   0.49999   0.11978   0.00000  Uiso   1.00
N171   N     0.16668   0.50001   0.28403   0.00000  Uiso   1.00
N172   N     0.16665   0.49999   0.04931   0.00000  Uiso   1.00
C173   C     0.01287   0.49357   0.14929   0.00000  Uiso   1.00
C174   C     0.32048   0.50637   0.18403   0.00000  Uiso   1.00
C175   C     0.21127   0.35569   0.15795   0.00000  Uiso   1.00
C176   C     0.12207   0.64431   0.17540   0.00000  Uiso   1.00
C177   C     0.21075   0.64546   0.15767   0.00000  Uiso   1.00
C178   C     0.12258   0.35453   0.17566   0.00000  Uiso   1.00
C179   C     0.16600   0.62377   0.16590   0.00000  Uiso   1.00
C180   C     0.16733   0.37622   0.16743   0.00000  Uiso   1.00
C181   C     0.13749   0.47145   0.02194   0.00000  Uiso   1.00
C182   C     0.19432   0.52944   0.31238   0.00000  Uiso   1.00
C183   C     0.13811   0.47104   0.30541   0.00000  Uiso   1.00
C184   C     0.19427   0.52919   0.02809   0.00000  Uiso   1.00
O185   O     0.32079   0.47323   0.11027   0.00000  Uiso   1.00
H186   H     0.01276   0.46307   0.09080   0.00000  Uiso   1.00
O187   O     0.01261   0.52667   0.22306   0.00000  Uiso   1.00
H188   H     0.32070   0.53677   0.24260   0.00000  Uiso   1.00
N189   N     0.25597   0.37907   0.14875   0.00000  Uiso   1.00
O190   O     0.27925   0.40425   0.18020   0.00000  Uiso   1.00
O191   O     0.27364   0.37502   0.10906   0.00000  Uiso   1.00
N192   N     0.07738   0.62092   0.18461   0.00000  Uiso   1.00
O193   O     0.05409   0.59574   0.15318   0.00000  Uiso   1.00
O194   O     0.05973   0.62497   0.22432   0.00000  Uiso   1.00
O195   O     0.25342   0.62297   0.15142   0.00000  Uiso   1.00
H196   H     0.28423   0.64143   0.15399   0.00000  Uiso   1.00
O197   O     0.07991   0.37702   0.18191   0.00000  Uiso   1.00
H198   H     0.04911   0.35856   0.17936   0.00000  Uiso   1.00
O199   O     0.10755   0.44384   0.04390   0.00000  Uiso   1.00
H200   H     0.08502   0.42716   0.02051   0.00000  Uiso   1.00
O201   O     0.22247   0.56093   0.29485   0.00000  Uiso   1.00
H202   H     0.23409   0.55145   0.26602   0.00000  Uiso   1.00
N203   N     0.10945   0.43953   0.27792   0.00000  Uiso   1.00
O204   O     0.12584   0.40176   0.28095   0.00000  Uiso   1.00
O205   O     0.06154   0.44558   0.26205   0.00000  Uiso   1.00
N206   N     0.22377   0.56045   0.05528   0.00000  Uiso   1.00
O207   O     0.27175   0.55389   0.07032   0.00000  Uiso   1.00
O208   O     0.20826   0.59846   0.05201   0.00000  Uiso   1.00
O209   O     0.50000   0.43989   0.20625   0.00000  Uiso   1.00
O210   O     0.50000   0.56011   0.12709   0.00000  Uiso   1.00
O211   O     0.50000   0.43988   0.12706   0.00000  Uiso   1.00
O212   O     0.50000   0.56012   0.20628   0.00000  Uiso   1.00
C213   C     0.50038   0.42092   0.16687   0.00000  Uiso   1.00
C214   C     0.49962   0.57908   0.16646   0.00000  Uiso   1.00
O215   O     0.42495   0.50000   0.19712   0.00000  Uiso   1.00
O216   O     0.57505   0.50000   0.13621   0.00000  Uiso   1.00
O217   O     0.42494   0.49999   0.11793   0.00000  Uiso   1.00
O218   O     0.57506   0.50001   0.21540   0.00000  Uiso   1.00
C219   C     0.40148   0.49868   0.15481   0.00000  Uiso   1.00
C220   C     0.59853   0.50129   0.17852   0.00000  Uiso   1.00
Cu221  Cu    0.50000   0.50001   0.21355   0.00000  Uiso   1.00
Cu222  Cu    0.50000   0.49999   0.11978   0.00000  Uiso   1.00
N223   N     0.50001   0.50001   0.28403   0.00000  Uiso   1.00
N224   N     0.49999   0.49999   0.04931   0.00000  Uiso   1.00
C225   C     0.34620   0.49357   0.14929   0.00000  Uiso   1.00
C226   C     0.65381   0.50637   0.18403   0.00000  Uiso   1.00
C227   C     0.54460   0.35569   0.15795   0.00000  Uiso   1.00
C228   C     0.45541   0.64431   0.17540   0.00000  Uiso   1.00
C229   C     0.54409   0.64546   0.15767   0.00000  Uiso   1.00
C230   C     0.45592   0.35453   0.17566   0.00000  Uiso   1.00
C231   C     0.49934   0.62377   0.16590   0.00000  Uiso   1.00
C232   C     0.50067   0.37622   0.16743   0.00000  Uiso   1.00
C233   C     0.47082   0.47145   0.02194   0.00000  Uiso   1.00
C234   C     0.52766   0.52944   0.31238   0.00000  Uiso   1.00
C235   C     0.47144   0.47104   0.30541   0.00000  Uiso   1.00
C236   C     0.52761   0.52919   0.02809   0.00000  Uiso   1.00
O237   O     0.65412   0.47323   0.11027   0.00000  Uiso   1.00
H238   H     0.34610   0.46307   0.09080   0.00000  Uiso   1.00
O239   O     0.34594   0.52667   0.22306   0.00000  Uiso   1.00
H240   H     0.65403   0.53677   0.24260   0.00000  Uiso   1.00
N241   N     0.58930   0.37907   0.14875   0.00000  Uiso   1.00
O242   O     0.61258   0.40425   0.18020   0.00000  Uiso   1.00
O243   O     0.60698   0.37502   0.10906   0.00000  Uiso   1.00
N244   N     0.41072   0.62092   0.18461   0.00000  Uiso   1.00
O245   O     0.38742   0.59574   0.15318   0.00000  Uiso   1.00
O246   O     0.39306   0.62497   0.22432   0.00000  Uiso   1.00
O247   O     0.58676   0.62297   0.15142   0.00000  Uiso   1.00
H248   H     0.61756   0.64143   0.15399   0.00000  Uiso   1.00
O249   O     0.41324   0.37702   0.18191   0.00000  Uiso   1.00
H250   H     0.38244   0.35856   0.17936   0.00000  Uiso   1.00
O251   O     0.44088   0.44384   0.04390   0.00000  Uiso   1.00
H252   H     0.41836   0.42716   0.02051   0.00000  Uiso   1.00
O253   O     0.55580   0.56093   0.29485   0.00000  Uiso   1.00
H254   H     0.56742   0.55145   0.26602   0.00000  Uiso   1.00
N255   N     0.44278   0.43953   0.27792   0.00000  Uiso   1.00
O256   O     0.45917   0.40176   0.28095   0.00000  Uiso   1.00
O257   O     0.39488   0.44558   0.26205   0.00000  Uiso   1.00
N258   N     0.55710   0.56045   0.05528   0.00000  Uiso   1.00
O259   O     0.60509   0.55389   0.07032   0.00000  Uiso   1.00
O260   O     0.54159   0.59846   0.05201   0.00000  Uiso   1.00
O261   O     0.83333   0.43989   0.20625   0.00000  Uiso   1.00
O262   O     0.83334   0.56011   0.12709   0.00000  Uiso   1.00
O263   O     0.83333   0.43988   0.12706   0.00000  Uiso   1.00
O264   O     0.83334   0.56012   0.20628   0.00000  Uiso   1.00
C265   C     0.83371   0.42092   0.16687   0.00000  Uiso   1.00
C266   C     0.83296   0.57908   0.16646   0.00000  Uiso   1.00
O267   O     0.75828   0.50000   0.19712   0.00000  Uiso   1.00
O268   O     0.90839   0.50000   0.13621   0.00000  Uiso   1.00
O269   O     0.75828   0.49999   0.11793   0.00000  Uiso   1.00
O270   O     0.90839   0.50001   0.21540   0.00000  Uiso   1.00
C271   C     0.73481   0.49868   0.15481   0.00000  Uiso   1.00
C272   C     0.93186   0.50129   0.17852   0.00000  Uiso   1.00
Cu273  Cu    0.83333   0.50001   0.21355   0.00000  Uiso   1.00
Cu274  Cu    0.83333   0.49999   0.11978   0.00000  Uiso   1.00
N275   N     0.83335   0.50001   0.28403   0.00000  Uiso   1.00
N276   N     0.83332   0.49999   0.04931   0.00000  Uiso   1.00
C277   C     0.67954   0.49357   0.14929   0.00000  Uiso   1.00
C278   C     0.98714   0.50637   0.18403   0.00000  Uiso   1.00
C279   C     0.87794   0.35569   0.15795   0.00000  Uiso   1.00
C280   C     0.78874   0.64431   0.17540   0.00000  Uiso   1.00
C281   C     0.87742   0.64546   0.15767   0.00000  Uiso   1.00
C282   C     0.78925   0.35453   0.17566   0.00000  Uiso   1.00
C283   C     0.83267   0.62377   0.16590   0.00000  Uiso   1.00
C284   C     0.83400   0.37622   0.16743   0.00000  Uiso   1.00
C285   C     0.80416   0.47145   0.02194   0.00000  Uiso   1.00
C286   C     0.86099   0.52944   0.31238   0.00000  Uiso   1.00
C287   C     0.80477   0.47104   0.30541   0.00000  Uiso   1.00
C288   C     0.86094   0.52919   0.02809   0.00000  Uiso   1.00
O289   O     0.98746   0.47323   0.11027   0.00000  Uiso   1.00
H290   H     0.67943   0.46307   0.09080   0.00000  Uiso   1.00
O291   O     0.67928   0.52667   0.22306   0.00000  Uiso   1.00
H292   H     0.98737   0.53677   0.24260   0.00000  Uiso   1.00
N293   N     0.92263   0.37907   0.14875   0.00000  Uiso   1.00
O294   O     0.94592   0.40425   0.18020   0.00000  Uiso   1.00
O295   O     0.94031   0.37502   0.10906   0.00000  Uiso   1.00
N296   N     0.74405   0.62092   0.18461   0.00000  Uiso   1.00
O297   O     0.72076   0.59574   0.15318   0.00000  Uiso   1.00
O298   O     0.72640   0.62497   0.22432   0.00000  Uiso   1.00
O299   O     0.92009   0.62297   0.15142   0.00000  Uiso   1.00
H300   H     0.95090   0.64143   0.15399   0.00000  Uiso   1.00
O301   O     0.74658   0.37702   0.18191   0.00000  Uiso   1.00
H302   H     0.71577   0.35856   0.17936   0.00000  Uiso   1.00
O303   O     0.77422   0.44384   0.04390   0.00000  Uiso   1.00
H304   H     0.75169   0.42716   0.02051   0.00000  Uiso   1.00
O305   O     0.88914   0.56093   0.29485   0.00000  Uiso   1.00
H306   H     0.90076   0.55145   0.26602   0.00000  Uiso   1.00
N307   N     0.77612   0.43953   0.27792   0.00000  Uiso   1.00
O308   O     0.79250   0.40176   0.28095   0.00000  Uiso   1.00
O309   O     0.72821   0.44558   0.26205   0.00000  Uiso   1.00
N310   N     0.89043   0.56045   0.05528   0.00000  Uiso   1.00
O311   O     0.93842   0.55389   0.07032   0.00000  Uiso   1.00
O312   O     0.87493   0.59846   0.05201   0.00000  Uiso   1.00
O313   O     0.16666   0.77322   0.20625   0.00000  Uiso   1.00
O314   O     0.16667   0.89345   0.12709   0.00000  Uiso   1.00
O315   O     0.16666   0.77321   0.12706   0.00000  Uiso   1.00
O316   O     0.16667   0.89346   0.20628   0.00000  Uiso   1.00
C317   C     0.16704   0.75425   0.16687   0.00000  Uiso   1.00
C318   C     0.16629   0.91242   0.16646   0.00000  Uiso   1.00
O319   O     0.09161   0.83334   0.19712   0.00000  Uiso   1.00
O320   O     0.24172   0.83333   0.13621   0.00000  Uiso   1.00
O321   O     0.09161   0.83333   0.11793   0.00000  Uiso   1.00
O322   O     0.24172   0.83334   0.21540   0.00000  Uiso   1.00
C323   C     0.06815   0.83201   0.15481   0.00000  Uiso   1.00
C324   C     0.26519   0.83463   0.17852   0.00000  Uiso   1.00
Cu325  Cu    0.16667   0.83334   0.21355   0.00000  Uiso   1.00
Cu326  Cu    0.16667   0.83333   0.11978   0.00000  Uiso   1.00
N327   N     0.16668   0.83334   0.28403   0.00000  Uiso   1.00
N328   N     0.16665   0.83332   0.04931   0.00000  Uiso   1.00
C329   C     0.01287   0.82690   0.14929   0.00000  Uiso   1.00
C330   C     0.32048   0.83970   0.18403   0.00000  Uiso   1.00
C331   C     0.21127   0.68902   0.15795   0.00000  Uiso   1.00
C332   C     0.12207   0.97764   0.17540   0.00000  Uiso   1.00
C333   C     0.21075   0.97880   0.15767   0.00000  Uiso   1.00
C334   C     0.12258   0.68786   0.17566   0.00000  Uiso   1.00
C335   C     0.16600   0.95710   0.16590   0.00000  Uiso   1.00
C336   C     0.16733   0.70956   0.16743   0.00000  Uiso   1.00
C337   C     0.13749   0.80479   0.02194   0.00000  Uiso   1.00
C338   C     0.19432   0.86277   0.31238   0.00000  Uiso   1.00
C339   C     0.13811   0.80437   0.30541   0.00000  Uiso   1.00
C340   C     0.19427   0.86252   0.02809   0.00000  Uiso   1.00
O341   O     0.32079   0.80656   0.11027   0.00000  Uiso   1.00
H342   H     0.01276   0.79640   0.09080   0.00000  Uiso   1.00
O343   O     0.01261   0.86001   0.22306   0.00000  Uiso   1.00
H344   H     0.32070   0.87011   0.24260   0.00000  Uiso   1.00
N345   N     0.25597   0.71240   0.14875   0.00000  Uiso   1.00
O346   O     0.27925   0.73758   0.18020   0.00000  Uiso   1.00
O347   O     0.27364   0.70836   0.10906   0.00000  Uiso   1.00
N348   N     0.07738   0.95426   0.18461   0.00000  Uiso   1.00
O349   O     0.05409   0.92907   0.15318   0.00000  Uiso   1.00
O350   O     0.05973   0.95830   0.22432   0.00000  Uiso   1.00
O351   O     0.25342   0.95630   0.15142   0.00000  Uiso   1.00
H352   H     0.28423   0.97476   0.15399   0.00000  Uiso   1.00
O353   O     0.07991   0.71035   0.18191   0.00000  Uiso   1.00
H354   H     0.04911   0.69189   0.17936   0.00000  Uiso   1.00
O355   O     0.10755   0.77718   0.04390   0.00000  Uiso   1.00
H356   H     0.08502   0.76050   0.02051   0.00000  Uiso   1.00
O357   O     0.22247   0.89426   0.29485   0.00000  Uiso   1.00
H358   H     0.23409   0.88479   0.26602   0.00000  Uiso   1.00
N359   N     0.10945   0.77286   0.27792   0.00000  Uiso   1.00
O360   O     0.12584   0.73510   0.28095   0.00000  Uiso   1.00
O361   O     0.06154   0.77891   0.26205   0.00000  Uiso   1.00
N362   N     0.22377   0.89378   0.05528   0.00000  Uiso   1.00
O363   O     0.27175   0.88722   0.07032   0.00000  Uiso   1.00
O364   O     0.20826   0.93180   0.05201   0.00000  Uiso   1.00
O365   O     0.50000   0.77322   0.20625   0.00000  Uiso   1.00
O366   O     0.50000   0.89345   0.12709   0.00000  Uiso   1.00
O367   O     0.50000   0.77321   0.12706   0.00000  Uiso   1.00
O368   O     0.50000   0.89346   0.20628   0.00000  Uiso   1.00
C369   C     0.50038   0.75425   0.16687   0.00000  Uiso   1.00
C370   C     0.49962   0.91242   0.16646   0.00000  Uiso   1.00
O371   O     0.42495   0.83334   0.19712   0.00000  Uiso   1.00
O372   O     0.57505   0.83333   0.13621   0.00000  Uiso   1.00
O373   O     0.42494   0.83333   0.11793   0.00000  Uiso   1.00
O374   O     0.57506   0.83334   0.21540   0.00000  Uiso   1.00
C375   C     0.40148   0.83201   0.15481   0.00000  Uiso   1.00
C376   C     0.59853   0.83463   0.17852   0.00000  Uiso   1.00
Cu377  Cu    0.50000   0.83334   0.21355   0.00000  Uiso   1.00
Cu378  Cu    0.50000   0.83333   0.11978   0.00000  Uiso   1.00
N379   N     0.50001   0.83334   0.28403   0.00000  Uiso   1.00
N380   N     0.49999   0.83332   0.04931   0.00000  Uiso   1.00
C381   C     0.34620   0.82690   0.14929   0.00000  Uiso   1.00
C382   C     0.65381   0.83970   0.18403   0.00000  Uiso   1.00
C383   C     0.54460   0.68902   0.15795   0.00000  Uiso   1.00
C384   C     0.45541   0.97764   0.17540   0.00000  Uiso   1.00
C385   C     0.54409   0.97880   0.15767   0.00000  Uiso   1.00
C386   C     0.45592   0.68786   0.17566   0.00000  Uiso   1.00
C387   C     0.49934   0.95710   0.16590   0.00000  Uiso   1.00
C388   C     0.50067   0.70956   0.16743   0.00000  Uiso   1.00
C389   C     0.47082   0.80479   0.02194   0.00000  Uiso   1.00
C390   C     0.52766   0.86277   0.31238   0.00000  Uiso   1.00
C391   C     0.47144   0.80437   0.30541   0.00000  Uiso   1.00
C392   C     0.52761   0.86252   0.02809   0.00000  Uiso   1.00
O393   O     0.65412   0.80656   0.11027   0.00000  Uiso   1.00
H394   H     0.34610   0.79640   0.09080   0.00000  Uiso   1.00
O395   O     0.34594   0.86001   0.22306   0.00000  Uiso   1.00
H396   H     0.65403   0.87011   0.24260   0.00000  Uiso   1.00
N397   N     0.58930   0.71240   0.14875   0.00000  Uiso   1.00
O398   O     0.61258   0.73758   0.18020   0.00000  Uiso   1.00
O399   O     0.60698   0.70836   0.10906   0.00000  Uiso   1.00
N400   N     0.41072   0.95426   0.18461   0.00000  Uiso   1.00
O401   O     0.38742   0.92907   0.15318   0.00000  Uiso   1.00
O402   O     0.39306   0.95830   0.22432   0.00000  Uiso   1.00
O403   O     0.58676   0.95630   0.15142   0.00000  Uiso   1.00
H404   H     0.61756   0.97476   0.15399   0.00000  Uiso   1.00
O405   O     0.41324   0.71035   0.18191   0.00000  Uiso   1.00
H406   H     0.38244   0.69189   0.17936   0.00000  Uiso   1.00
O407   O     0.44088   0.77718   0.04390   0.00000  Uiso   1.00
H408   H     0.41836   0.76050   0.02051   0.00000  Uiso   1.00
O409   O     0.55580   0.89426   0.29485   0.00000  Uiso   1.00
H410   H     0.56742   0.88479   0.26602   0.00000  Uiso   1.00
N411   N     0.44278   0.77286   0.27792   0.00000  Uiso   1.00
O412   O     0.45917   0.73510   0.28095   0.00000  Uiso   1.00
O413   O     0.39488   0.77891   0.26205   0.00000  Uiso   1.00
N414   N     0.55710   0.89378   0.05528   0.00000  Uiso   1.00
O415   O     0.60509   0.88722   0.07032   0.00000  Uiso   1.00
O416   O     0.54159   0.93180   0.05201   0.00000  Uiso   1.00
O417   O     0.83333   0.77322   0.20625   0.00000  Uiso   1.00
O418   O     0.83334   0.89345   0.12709   0.00000  Uiso   1.00
O419   O     0.83333   0.77321   0.12706   0.00000  Uiso   1.00
O420   O     0.83334   0.89346   0.20628   0.00000  Uiso   1.00
C421   C     0.83371   0.75425   0.16687   0.00000  Uiso   1.00
C422   C     0.83296   0.91242   0.16646   0.00000  Uiso   1.00
O423   O     0.75828   0.83334   0.19712   0.00000  Uiso   1.00
O424   O     0.90839   0.83333   0.13621   0.00000  Uiso   1.00
O425   O     0.75828   0.83333   0.11793   0.00000  Uiso   1.00
O426   O     0.90839   0.83334   0.21540   0.00000  Uiso   1.00
C427   C     0.73481   0.83201   0.15481   0.00000  Uiso   1.00
C428   C     0.93186   0.83463   0.17852   0.00000  Uiso   1.00
Cu429  Cu    0.83333   0.83334   0.21355   0.00000  Uiso   1.00
Cu430  Cu    0.83333   0.83333   0.11978   0.00000  Uiso   1.00
N431   N     0.83335   0.83334   0.28403   0.00000  Uiso   1.00
N432   N     0.83332   0.83332   0.04931   0.00000  Uiso   1.00
C433   C     0.67954   0.82690   0.14929   0.00000  Uiso   1.00
C434   C     0.98714   0.83970   0.18403   0.00000  Uiso   1.00
C435   C     0.87794   0.68902   0.15795   0.00000  Uiso   1.00
C436   C     0.78874   0.97764   0.17540   0.00000  Uiso   1.00
C437   C     0.87742   0.97880   0.15767   0.00000  Uiso   1.00
C438   C     0.78925   0.68786   0.17566   0.00000  Uiso   1.00
C439   C     0.83267   0.95710   0.16590   0.00000  Uiso   1.00
C440   C     0.83400   0.70956   0.16743   0.00000  Uiso   1.00
C441   C     0.80416   0.80479   0.02194   0.00000  Uiso   1.00
C442   C     0.86099   0.86277   0.31238   0.00000  Uiso   1.00
C443   C     0.80477   0.80437   0.30541   0.00000  Uiso   1.00
C444   C     0.86094   0.86252   0.02809   0.00000  Uiso   1.00
O445   O     0.98746   0.80656   0.11027   0.00000  Uiso   1.00
H446   H     0.67943   0.79640   0.09080   0.00000  Uiso   1.00
O447   O     0.67928   0.86001   0.22306   0.00000  Uiso   1.00
H448   H     0.98737   0.87011   0.24260   0.00000  Uiso   1.00
N449   N     0.92263   0.71240   0.14875   0.00000  Uiso   1.00
O450   O     0.94592   0.73758   0.18020   0.00000  Uiso   1.00
O451   O     0.94031   0.70836   0.10906   0.00000  Uiso   1.00
N452   N     0.74405   0.95426   0.18461   0.00000  Uiso   1.00
O453   O     0.72076   0.92907   0.15318   0.00000  Uiso   1.00
O454   O     0.72640   0.95830   0.22432   0.00000  Uiso   1.00
O455   O     0.92009   0.95630   0.15142   0.00000  Uiso   1.00
H456   H     0.95090   0.97476   0.15399   0.00000  Uiso   1.00
O457   O     0.74658   0.71035   0.18191   0.00000  Uiso   1.00
H458   H     0.71577   0.69189   0.17936   0.00000  Uiso   1.00
O459   O     0.77422   0.77718   0.04390   0.00000  Uiso   1.00
H460   H     0.75169   0.76050   0.02051   0.00000  Uiso   1.00
O461   O     0.88914   0.89426   0.29485   0.00000  Uiso   1.00
H462   H     0.90076   0.88479   0.26602   0.00000  Uiso   1.00
N463   N     0.77612   0.77286   0.27792   0.00000  Uiso   1.00
O464   O     0.79250   0.73510   0.28095   0.00000  Uiso   1.00
O465   O     0.72821   0.77891   0.26205   0.00000  Uiso   1.00
N466   N     0.89043   0.89378   0.05528   0.00000  Uiso   1.00
O467   O     0.93842   0.88722   0.07032   0.00000  Uiso   1.00
O468   O     0.87493   0.93180   0.05201   0.00000  Uiso   1.00
O469   O     0.16666   0.10655   0.53958   0.00000  Uiso   1.00
O470   O     0.16667   0.22678   0.46042   0.00000  Uiso   1.00
O471   O     0.16666   0.10654   0.46039   0.00000  Uiso   1.00
O472   O     0.16667   0.22679   0.53961   0.00000  Uiso   1.00
C473   C     0.16704   0.08758   0.50020   0.00000  Uiso   1.00
C474   C     0.16629   0.24575   0.49980   0.00000  Uiso   1.00
O475   O     0.09161   0.16667   0.53046   0.00000  Uiso   1.00
O476   O     0.24172   0.16666   0.46954   0.00000  Uiso   1.00
O477   O     0.09161   0.16666   0.45127   0.00000  Uiso   1.00
O478   O     0.24172   0.16667   0.54873   0.00000  Uiso   1.00
C479   C     0.06815   0.16535   0.48815   0.00000  Uiso   1.00
C480   C     0.26519   0.16796   0.51185   0.00000  Uiso   1.00
Cu481  Cu    0.16667   0.16667   0.54689   0.00000  Uiso   1.00
Cu482  Cu    0.16667   0.16666   0.45311   0.00000  Uiso   1.00
N483   N     0.16668   0.16668   0.61736   0.00000  Uiso   1.00
N484   N     0.16665   0.16666   0.38264   0.00000  Uiso   1.00
C485   C     0.01287   0.16023   0.48262   0.00000  Uiso   1.00
C486   C     0.32048   0.17304   0.51736   0.00000  Uiso   1.00
C487   C     0.21127   0.02235   0.49128   0.00000  Uiso   1.00
C488   C     0.12207   0.31097   0.50873   0.00000  Uiso   1.00
C489   C     0.21075   0.31213   0.49101   0.00000  Uiso   1.00
C490   C     0.12258   0.02120   0.50900   0.00000  Uiso   1.00
C491   C     0.16600   0.29044   0.49924   0.00000  Uiso   1.00
C492   C     0.16733   0.04289   0.50077   0.00000  Uiso   1.00
C493   C     0.13749   0.13812   0.35527   0.00000  Uiso   1.00
C494   C     0.19432   0.19610   0.64571   0.00000  Uiso   1.00
C495   C     0.13811   0.13770   0.63874   0.00000  Uiso   1.00
C496   C     0.19427   0.19586   0.36142   0.00000  Uiso   1.00
O497   O     0.32079   0.13990   0.44360   0.00000  Uiso   1.00
H498   H     0.01276   0.12973   0.42413   0.00000  Uiso   1.00
O499   O     0.01261   0.19334   0.55639   0.00000  Uiso   1.00
H500   H     0.32070   0.20344   0.57594   0.00000  Uiso   1.00
N501   N     0.25597   0.04574   0.48209   0.00000  Uiso   1.00
O502   O     0.27925   0.07092   0.51353   0.00000  Uiso   1.00
O503   O     0.27364   0.04169   0.44239   0.00000  Uiso   1.00
N504   N     0.07738   0.28759   0.51795   0.00000  Uiso   1.00
O505   O     0.05409   0.26240   0.48651   0.00000  Uiso   1.00
O506   O     0.05973   0.29164   0.55765   0.00000  Uiso   1.00
O507   O     0.25342   0.28964   0.48475   0.00000  Uiso   1.00
H508   H     0.28423   0.30809   0.48732   0.00000  Uiso   1.00
O509   O     0.07991   0.04369   0.51524   0.00000  Uiso   1.00
H510   H     0.04911   0.02522   0.51269   0.00000  Uiso   1.00
O511   O     0.10755   0.11051   0.37723   0.00000  Uiso   1.00
H512   H     0.08502   0.09383   0.35384   0.00000  Uiso   1.00
O513   O     0.22247   0.22760   0.62818   0.00000  Uiso   1.00
H514   H     0.23409   0.21812   0.59936   0.00000  Uiso   1.00
N515   N     0.10945   0.10620   0.61125   0.00000  Uiso   1.00
O516   O     0.12584   0.06843   0.61428   0.00000  Uiso   1.00
O517   O     0.06154   0.11224   0.59538   0.00000  Uiso   1.00
N518   N     0.22377   0.22712   0.38862   0.00000  Uiso   1.00
O519   O     0.27175   0.22056   0.40365   0.00000  Uiso   1.00
O520   O     0.20826   0.26513   0.38535   0.00000  Uiso   1.00
O521   O     0.50000   0.10655   0.53958   0.00000  Uiso   1.00
O522   O     0.50000   0.22678   0.46042   0.00000  Uiso   1.00
O523   O     0.50000   0.10654   0.46039   0.00000  Uiso   1.00
O524   O     0.50000   0.22679   0.53961   0.00000  Uiso   1.00
C525   C     0.50038   0.08758   0.50020   0.00000  Uiso   1.00
C526   C     0.49962   0.24575   0.49980   0.00000  Uiso   1.00
O527   O     0.42495   0.16667   0.53046   0.00000  Uiso   1.00
O528   O     0.57505   0.16666   0.46954   0.00000  Uiso   1.00
O529   O     0.42494   0.16666   0.45127   0.00000  Uiso   1.00
O530   O     0.57506   0.16667   0.54873   0.00000  Uiso   1.00
C531   C     0.40148   0.16535   0.48815   0.00000  Uiso   1.00
C532   C     0.59853   0.16796   0.51185   0.00000  Uiso   1.00
Cu533  Cu    0.50000   0.16667   0.54689   0.00000  Uiso   1.00
Cu534  Cu    0.50000   0.16666   0.45311   0.00000  Uiso   1.00
N535   N     0.50001   0.16668   0.61736   0.00000  Uiso   1.00
N536   N     0.49999   0.16666   0.38264   0.00000  Uiso   1.00
C537   C     0.34620   0.16023   0.48262   0.00000  Uiso   1.00
C538   C     0.65381   0.17304   0.51736   0.00000  Uiso   1.00
C539   C     0.54460   0.02235   0.49128   0.00000  Uiso   1.00
C540   C     0.45541   0.31097   0.50873   0.00000  Uiso   1.00
C541   C     0.54409   0.31213   0.49101   0.00000  Uiso   1.00
C542   C     0.45592   0.02120   0.50900   0.00000  Uiso   1.00
C543   C     0.49934   0.29044   0.49924   0.00000  Uiso   1.00
C544   C     0.50067   0.04289   0.50077   0.00000  Uiso   1.00
C545   C     0.47082   0.13812   0.35527   0.00000  Uiso   1.00
C546   C     0.52766   0.19610   0.64571   0.00000  Uiso   1.00
C547   C     0.47144   0.13770   0.63874   0.00000  Uiso   1.00
C548   C     0.52761   0.19586   0.36142   0.00000  Uiso   1.00
O549   O     0.65412   0.13990   0.44360   0.00000  Uiso   1.00
H550   H     0.34610   0.12973   0.42413   0.00000  Uiso   1.00
O551   O     0.34594   0.19334   0.55639   0.00000  Uiso   1.00
H552   H     0.65403   0.20344   0.57594   0.00000  Uiso   1.00
N553   N     0.58930   0.04574   0.48209   0.00000  Uiso   1.00
O554   O     0.61258   0.07092   0.51353   0.00000  Uiso   1.00
O555   O     0.60698   0.04169   0.44239   0.00000  Uiso   1.00
N556   N     0.41072   0.28759   0.51795   0.00000  Uiso   1.00
O557   O     0.38742   0.26240   0.48651   0.00000  Uiso   1.00
O558   O     0.39306   0.29164   0.55765   0.00000  Uiso   1.00
O559   O     0.58676   0.28964   0.48475   0.00000  Uiso   1.00
H560   H     0.61756   0.30809   0.48732   0.00000  Uiso   1.00
O561   O     0.41324   0.04369   0.51524   0.00000  Uiso   1.00
H562   H     0.38244   0.02522   0.51269   0.00000  Uiso   1.00
O563   O     0.44088   0.11051   0.37723   0.00000  Uiso   1.00
H564   H     0.41836   0.09383   0.35384   0.00000  Uiso   1.00
O565   O     0.55580   0.22760   0.62818   0.00000  Uiso   1.00
H566   H     0.56742   0.21812   0.59936   0.00000  Uiso   1.00
N567   N     0.44278   0.10620   0.61125   0.00000  Uiso   1.00
O568   O     0.45917   0.06843   0.61428   0.00000  Uiso   1.00
O569   O     0.39488   0.11224   0.59538   0.00000  Uiso   1.00
N570   N     0.55710   0.22712   0.38862   0.00000  Uiso   1.00
O571   O     0.60509   0.22056   0.40365   0.00000  Uiso   1.00
O572   O     0.54159   0.26513   0.38535   0.00000  Uiso   1.00
O573   O     0.83333   0.10655   0.53958   0.00000  Uiso   1.00
O574   O     0.83334   0.22678   0.46042   0.00000  Uiso   1.00
O575   O     0.83333   0.10654   0.46039   0.00000  Uiso   1.00
O576   O     0.83334   0.22679   0.53961   0.00000  Uiso   1.00
C577   C     0.83371   0.08758   0.50020   0.00000  Uiso   1.00
C578   C     0.83296   0.24575   0.49980   0.00000  Uiso   1.00
O579   O     0.75828   0.16667   0.53046   0.00000  Uiso   1.00
O580   O     0.90839   0.16666   0.46954   0.00000  Uiso   1.00
O581   O     0.75828   0.16666   0.45127   0.00000  Uiso   1.00
O582   O     0.90839   0.16667   0.54873   0.00000  Uiso   1.00
C583   C     0.73481   0.16535   0.48815   0.00000  Uiso   1.00
C584   C     0.93186   0.16796   0.51185   0.00000  Uiso   1.00
Cu585  Cu    0.83333   0.16667   0.54689   0.00000  Uiso   1.00
Cu586  Cu    0.83333   0.16666   0.45311   0.00000  Uiso   1.00
N587   N     0.83335   0.16668   0.61736   0.00000  Uiso   1.00
N588   N     0.83332   0.16666   0.38264   0.00000  Uiso   1.00
C589   C     0.67954   0.16023   0.48262   0.00000  Uiso   1.00
C590   C     0.98714   0.17304   0.51736   0.00000  Uiso   1.00
C591   C     0.87794   0.02235   0.49128   0.00000  Uiso   1.00
C592   C     0.78874   0.31097   0.50873   0.00000  Uiso   1.00
C593   C     0.87742   0.31213   0.49101   0.00000  Uiso   1.00
C594   C     0.78925   0.02120   0.50900   0.00000  Uiso   1.00
C595   C     0.83267   0.29044   0.49924   0.00000  Uiso   1.00
C596   C     0.83400   0.04289   0.50077   0.00000  Uiso   1.00
C597   C     0.80416   0.13812   0.35527   0.00000  Uiso   1.00
C598   C     0.86099   0.19610   0.64571   0.00000  Uiso   1.00
C599   C     0.80477   0.13770   0.63874   0.00000  Uiso   1.00
C600   C     0.86094   0.19586   0.36142   0.00000  Uiso   1.00
O601   O     0.98746   0.13990   0.44360   0.00000  Uiso   1.00
H602   H     0.67943   0.12973   0.42413   0.00000  Uiso   1.00
O603   O     0.67928   0.19334   0.55639   0.00000  Uiso   1.00
H604   H     0.98737   0.20344   0.57594   0.00000  Uiso   1.00
N605   N     0.92263   0.04574   0.48209   0.00000  Uiso   1.00
O606   O     0.94592   0.07092   0.51353   0.00000  Uiso   1.00
O607   O     0.94031   0.04169   0.44239   0.00000  Uiso   1.00
N608   N     0.74405   0.28759   0.51795   0.00000  Uiso   1.00
O609   O     0.72076   0.26240   0.48651   0.00000  Uiso   1.00
O610   O     0.72640   0.29164   0.55765   0.00000  Uiso   1.00
O611   O     0.92009   0.28964   0.48475   0.00000  Uiso   1.00
H612   H     0.95090   0.30809   0.48732   0.00000  Uiso   1.00
O613   O     0.74658   0.04369   0.51524   0.00000  Uiso   1.00
H614   H     0.71577   0.02522   0.51269   0.00000  Uiso   1.00
O615   O     0.77422   0.11051   0.37723   0.00000  Uiso   1.00
H616   H     0.75169   0.09383   0.35384   0.00000  Uiso   1.00
O617   O     0.88914   0.22760   0.62818   0.00000  Uiso   1.00
H618   H     0.90076   0.21812   0.59936   0.00000  Uiso   1.00
N619   N     0.77612   0.10620   0.61125   0.00000  Uiso   1.00
O620   O     0.79250   0.06843   0.61428   0.00000  Uiso   1.00
O621   O     0.72821   0.11224   0.59538   0.00000  Uiso   1.00
N622   N     0.89043   0.22712   0.38862   0.00000  Uiso   1.00
O623   O     0.93842   0.22056   0.40365   0.00000  Uiso   1.00
O624   O     0.87493   0.26513   0.38535   0.00000  Uiso   1.00
O625   O     0.16666   0.43989   0.53958   0.00000  Uiso   1.00
O626   O     0.16667   0.56011   0.46042   0.00000  Uiso   1.00
O627   O     0.16666   0.43988   0.46039   0.00000  Uiso   1.00
O628   O     0.16667   0.56012   0.53961   0.00000  Uiso   1.00
C629   C     0.16704   0.42092   0.50020   0.00000  Uiso   1.00
C630   C     0.16629   0.57908   0.49980   0.00000  Uiso   1.00
O631   O     0.09161   0.50000   0.53046   0.00000  Uiso   1.00
O632   O     0.24172   0.50000   0.46954   0.00000  Uiso   1.00
O633   O     0.09161   0.49999   0.45127   0.00000  Uiso   1.00
O634   O     0.24172   0.50001   0.54873   0.00000  Uiso   1.00
C635   C     0.06815   0.49868   0.48815   0.00000  Uiso   1.00
C636   C     0.26519   0.50129   0.51185   0.00000  Uiso   1.00
Cu637  Cu    0.16667   0.50001   0.54689   0.00000  Uiso   1.00
Cu638  Cu    0.16667   0.49999   0.45311   0.00000  Uiso   1.00
N639   N     0.16668   0.50001   0.61736   0.00000  Uiso   1.00
N640   N     0.16665   0.49999   0.38264   0.00000  Uiso   1.00
C641   C     0.01287   0.49357   0.48262   0.00000  Uiso   1.00
C642   C     0.32048   0.50637   0.51736   0.00000  Uiso   1.00
C643   C     0.21127   0.35569   0.49128   0.00000  Uiso   1.00
C644   C     0.12207   0.64431   0.50873   0.00000  Uiso   1.00
C645   C     0.21075   0.64546   0.49101   0.00000  Uiso   1.00
C646   C     0.12258   0.35453   0.50900   0.00000  Uiso   1.00
C647   C     0.16600   0.62377   0.49924   0.00000  Uiso   1.00
C648   C     0.16733   0.37622   0.50077   0.00000  Uiso   1.00
C649   C     0.13749   0.47145   0.35527   0.00000  Uiso   1.00
C650   C     0.19432   0.52944   0.64571   0.00000  Uiso   1.00
C651   C     0.13811   0.47104   0.63874   0.00000  Uiso   1.00
C652   C     0.19427   0.52919   0.36142   0.00000  Uiso   1.00
O653   O     0.32079   0.47323   0.44360   0.00000  Uiso   1.00
H654   H     0.01276   0.46307   0.42413   0.00000  Uiso   1.00
O655   O     0.01261   0.52667   0.55639   0.00000  Uiso   1.00
H656   H     0.32070   0.53677   0.57594   0.00000  Uiso   1.00
N657   N     0.25597   0.37907   0.48209   0.00000  Uiso   1.00
O658   O     0.27925   0.40425   0.51353   0.00000  Uiso   1.00
O659   O     0.27364   0.37502   0.44239   0.00000  Uiso   1.00
N660   N     0.07738   0.62092   0.51795   0.00000  Uiso   1.00
O661   O     0.05409   0.59574   0.48651   0.00000  Uiso   1.00
O662   O     0.05973   0.62497   0.55765   0.00000  Uiso   1.00
O663   O     0.25342   0.62297   0.48475   0.00000  Uiso   1.00
H664   H     0.28423   0.64143   0.48732   0.00000  Uiso   1.00
O665   O     0.07991   0.37702   0.51524   0.00000  Uiso   1.00
H666   H     0.04911   0.35856   0.51269   0.00000  Uiso   1.00
O667   O     0.10755   0.44384   0.37723   0.00000  Uiso   1.00
H668   H     0.08502   0.42716   0.35384   0.00000  Uiso   1.00
O669   O     0.22247   0.56093   0.62818   0.00000  Uiso   1.00
H670   H     0.23409   0.55145   0.59936   0.00000  Uiso   1.00
N671   N     0.10945   0.43953   0.61125   0.00000  Uiso   1.00
O672   O     0.12584   0.40176   0.61428   0.00000  Uiso   1.00
O673   O     0.06154   0.44558   0.59538   0.00000  Uiso   1.00
N674   N     0.22377   0.56045   0.38862   0.00000  Uiso   1.00
O675   O     0.27175   0.55389   0.40365   0.00000  Uiso   1.00
O676   O     0.20826   0.59846   0.38535   0.00000  Uiso   1.00
O677   O     0.50000   0.43989   0.53958   0.00000  Uiso   1.00
O678   O     0.50000   0.56011   0.46042   0.00000  Uiso   1.00
O679   O     0.50000   0.43988   0.46039   0.00000  Uiso   1.00
O680   O     0.50000   0.56012   0.53961   0.00000  Uiso   1.00
C681   C     0.50038   0.42092   0.50020   0.00000  Uiso   1.00
C682   C     0.49962   0.57908   0.49980   0.00000  Uiso   1.00
O683   O     0.42495   0.50000   0.53046   0.00000  Uiso   1.00
O684   O     0.57505   0.50000   0.46954   0.00000  Uiso   1.00
O685   O     0.42494   0.49999   0.45127   0.00000  Uiso   1.00
O686   O     0.57506   0.50001   0.54873   0.00000  Uiso   1.00
C687   C     0.40148   0.49868   0.48815   0.00000  Uiso   1.00
C688   C     0.59853   0.50129   0.51185   0.00000  Uiso   1.00
Cu689  Cu    0.50000   0.50001   0.54689   0.00000  Uiso   1.00
Cu690  Cu    0.50000   0.49999   0.45311   0.00000  Uiso   1.00
N691   N     0.50001   0.50001   0.61736   0.00000  Uiso   1.00
N692   N     0.49999   0.49999   0.38264   0.00000  Uiso   1.00
C693   C     0.34620   0.49357   0.48262   0.00000  Uiso   1.00
C694   C     0.65381   0.50637   0.51736   0.00000  Uiso   1.00
C695   C     0.54460   0.35569   0.49128   0.00000  Uiso   1.00
C696   C     0.45541   0.64431   0.50873   0.00000  Uiso   1.00
C697   C     0.54409   0.64546   0.49101   0.00000  Uiso   1.00
C698   C     0.45592   0.35453   0.50900   0.00000  Uiso   1.00
C699   C     0.49934   0.62377   0.49924   0.00000  Uiso   1.00
C700   C     0.50067   0.37622   0.50077   0.00000  Uiso   1.00
C701   C     0.47082   0.47145   0.35527   0.00000  Uiso   1.00
C702   C     0.52766   0.52944   0.64571   0.00000  Uiso   1.00
C703   C     0.47144   0.47104   0.63874   0.00000  Uiso   1.00
C704   C     0.52761   0.52919   0.36142   0.00000  Uiso   1.00
O705   O     0.65412   0.47323   0.44360   0.00000  Uiso   1.00
H706   H     0.34610   0.46307   0.42413   0.00000  Uiso   1.00
O707   O     0.34594   0.52667   0.55639   0.00000  Uiso   1.00
H708   H     0.65403   0.53677   0.57594   0.00000  Uiso   1.00
N709   N     0.58930   0.37907   0.48209   0.00000  Uiso   1.00
O710   O     0.61258   0.40425   0.51353   0.00000  Uiso   1.00
O711   O     0.60698   0.37502   0.44239   0.00000  Uiso   1.00
N712   N     0.41072   0.62092   0.51795   0.00000  Uiso   1.00
O713   O     0.38742   0.59574   0.48651   0.00000  Uiso   1.00
O714   O     0.39306   0.62497   0.55765   0.00000  Uiso   1.00
O715   O     0.58676   0.62297   0.48475   0.00000  Uiso   1.00
H716   H     0.61756   0.64143   0.48732   0.00000  Uiso   1.00
O717   O     0.41324   0.37702   0.51524   0.00000  Uiso   1.00
H718   H     0.38244   0.35856   0.51269   0.00000  Uiso   1.00
O719   O     0.44088   0.44384   0.37723   0.00000  Uiso   1.00
H720   H     0.41836   0.42716   0.35384   0.00000  Uiso   1.00
O721   O     0.55580   0.56093   0.62818   0.00000  Uiso   1.00
H722   H     0.56742   0.55145   0.59936   0.00000  Uiso   1.00
N723   N     0.44278   0.43953   0.61125   0.00000  Uiso   1.00
O724   O     0.45917   0.40176   0.61428   0.00000  Uiso   1.00
O725   O     0.39488   0.44558   0.59538   0.00000  Uiso   1.00
N726   N     0.55710   0.56045   0.38862   0.00000  Uiso   1.00
O727   O     0.60509   0.55389   0.40365   0.00000  Uiso   1.00
O728   O     0.54159   0.59846   0.38535   0.00000  Uiso   1.00
O729   O     0.83333   0.43989   0.53958   0.00000  Uiso   1.00
O730   O     0.83334   0.56011   0.46042   0.00000  Uiso   1.00
O731   O     0.83333   0.43988   0.46039   0.00000  Uiso   1.00
O732   O     0.83334   0.56012   0.53961   0.00000  Uiso   1.00
C733   C     0.83371   0.42092   0.50020   0.00000  Uiso   1.00
C734   C     0.83296   0.57908   0.49980   0.00000  Uiso   1.00
O735   O     0.75828   0.50000   0.53046   0.00000  Uiso   1.00
O736   O     0.90839   0.50000   0.46954   0.00000  Uiso   1.00
O737   O     0.75828   0.49999   0.45127   0.00000  Uiso   1.00
O738   O     0.90839   0.50001   0.54873   0.00000  Uiso   1.00
C739   C     0.73481   0.49868   0.48815   0.00000  Uiso   1.00
C740   C     0.93186   0.50129   0.51185   0.00000  Uiso   1.00
Cu741  Cu    0.83333   0.50001   0.54689   0.00000  Uiso   1.00
Cu742  Cu    0.83333   0.49999   0.45311   0.00000  Uiso   1.00
N743   N     0.83335   0.50001   0.61736   0.00000  Uiso   1.00
N744   N     0.83332   0.49999   0.38264   0.00000  Uiso   1.00
C745   C     0.67954   0.49357   0.48262   0.00000  Uiso   1.00
C746   C     0.98714   0.50637   0.51736   0.00000  Uiso   1.00
C747   C     0.87794   0.35569   0.49128   0.00000  Uiso   1.00
C748   C     0.78874   0.64431   0.50873   0.00000  Uiso   1.00
C749   C     0.87742   0.64546   0.49101   0.00000  Uiso   1.00
C750   C     0.78925   0.35453   0.50900   0.00000  Uiso   1.00
C751   C     0.83267   0.62377   0.49924   0.00000  Uiso   1.00
C752   C     0.83400   0.37622   0.50077   0.00000  Uiso   1.00
C753   C     0.80416   0.47145   0.35527   0.00000  Uiso   1.00
C754   C     0.86099   0.52944   0.64571   0.00000  Uiso   1.00
C755   C     0.80477   0.47104   0.63874   0.00000  Uiso   1.00
C756   C     0.86094   0.52919   0.36142   0.00000  Uiso   1.00
O757   O     0.98746   0.47323   0.44360   0.00000  Uiso   1.00
H758   H     0.67943   0.46307   0.42413   0.00000  Uiso   1.00
O759   O     0.67928   0.52667   0.55639   0.00000  Uiso   1.00
H760   H     0.98737   0.53677   0.57594   0.00000  Uiso   1.00
N761   N     0.92263   0.37907   0.48209   0.00000  Uiso   1.00
O762   O     0.94592   0.40425   0.51353   0.00000  Uiso   1.00
O763   O     0.94031   0.37502   0.44239   0.00000  Uiso   1.00
N764   N     0.74405   0.62092   0.51795   0.00000  Uiso   1.00
O765   O     0.72076   0.59574   0.48651   0.00000  Uiso   1.00
O766   O     0.72640   0.62497   0.55765   0.00000  Uiso   1.00
O767   O     0.92009   0.62297   0.48475   0.00000  Uiso   1.00
H768   H     0.95090   0.64143   0.48732   0.00000  Uiso   1.00
O769   O     0.74658   0.37702   0.51524   0.00000  Uiso   1.00
H770   H     0.71577   0.35856   0.51269   0.00000  Uiso   1.00
O771   O     0.77422   0.44384   0.37723   0.00000  Uiso   1.00
H772   H     0.75169   0.42716   0.35384   0.00000  Uiso   1.00
O773   O     0.88914   0.56093   0.62818   0.00000  Uiso   1.00
H774   H     0.90076   0.55145   0.59936   0.00000  Uiso   1.00
N775   N     0.77612   0.43953   0.61125   0.00000  Uiso   1.00
O776   O     0.79250   0.40176   0.61428   0.00000  Uiso   1.00
O777   O     0.72821   0.44558   0.59538   0.00000  Uiso   1.00
N778   N     0.89043   0.56045   0.38862   0.00000  Uiso   1.00
O779   O     0.93842   0.55389   0.40365   0.00000  Uiso   1.00
O780   O     0.87493   0.59846   0.38535   0.00000  Uiso   1.00
O781   O     0.16666   0.77322   0.53958   0.00000  Uiso   1.00
O782   O     0.16667   0.89345   0.46042   0.00000  Uiso   1.00
O783   O     0.16666   0.77321   0.46039   0.00000  Uiso   1.00
O784   O     0.16667   0.89346   0.53961   0.00000  Uiso   1.00
C785   C     0.16704   0.75425   0.50020   0.00000  Uiso   1.00
C786   C     0.16629   0.91242   0.49980   0.00000  Uiso   1.00
O787   O     0.09161   0.83334   0.53046   0.00000  Uiso   1.00
O788   O     0.24172   0.83333   0.46954   0.00000  Uiso   1.00
O789   O     0.09161   0.83333   0.45127   0.00000  Uiso   1.00
O790   O     0.24172   0.83334   0.54873   0.00000  Uiso   1.00
C791   C     0.06815   0.83201   0.48815   0.00000  Uiso   1.00
C792   C     0.26519   0.83463   0.51185   0.00000  Uiso   1.00
Cu793  Cu    0.16667   0.83334   0.54689   0.00000  Uiso   1.00
Cu794  Cu    0.16667   0.83333   0.45311   0.00000  Uiso   1.00
N795   N     0.16668   0.83334   0.61736   0.00000  Uiso   1.00
N796   N     0.16665   0.83332   0.38264   0.00000  Uiso   1.00
C797   C     0.01287   0.82690   0.48262   0.00000  Uiso   1.00
C798   C     0.32048   0.83970   0.51736   0.00000  Uiso   1.00
C799   C     0.21127   0.68902   0.49128   0.00000  Uiso   1.00
C800   C     0.12207   0.97764   0.50873   0.00000  Uiso   1.00
C801   C     0.21075   0.97880   0.49101   0.00000  Uiso   1.00
C802   C     0.12258   0.68786   0.50900   0.00000  Uiso   1.00
C803   C     0.16600   0.95710   0.49924   0.00000  Uiso   1.00
C804   C     0.16733   0.70956   0.50077   0.00000  Uiso   1.00
C805   C     0.13749   0.80479   0.35527   0.00000  Uiso   1.00
C806   C     0.19432   0.86277   0.64571   0.00000  Uiso   1.00
C807   C     0.13811   0.80437   0.63874   0.00000  Uiso   1.00
C808   C     0.19427   0.86252   0.36142   0.00000  Uiso   1.00
O809   O     0.32079   0.80656   0.44360   0.00000  Uiso   1.00
H810   H     0.01276   0.79640   0.42413   0.00000  Uiso   1.00
O811   O     0.01261   0.86001   0.55639   0.00000  Uiso   1.00
H812   H     0.32070   0.87011   0.57594   0.00000  Uiso   1.00
N813   N     0.25597   0.71240   0.48209   0.00000  Uiso   1.00
O814   O     0.27925   0.73758   0.51353   0.00000  Uiso   1.00
O815   O     0.27364   0.70836   0.44239   0.00000  Uiso   1.00
N816   N     0.07738   0.95426   0.51795   0.00000  Uiso   1.00
O817   O     0.05409   0.92907   0.48651   0.00000  Uiso   1.00
O818   O     0.05973   0.95830   0.55765   0.00000  Uiso   1.00
O819   O     0.25342   0.95630   0.48475   0.00000  Uiso   1.00
H820   H     0.28423   0.97476   0.48732   0.00000  Uiso   1.00
O821   O     0.07991   0.71035   0.51524   0.00000  Uiso   1.00
H822   H     0.04911   0.69189   0.51269   0.00000  Uiso   1.00
O823   O     0.10755   0.77718   0.37723   0.00000  Uiso   1.00
H824   H     0.08502   0.76050   0.35384   0.00000  Uiso   1.00
O825   O     0.22247   0.89426   0.62818   0.00000  Uiso   1.00
H826   H     0.23409   0.88479   0.59936   0.00000  Uiso   1.00
N827   N     0.10945   0.77286   0.61125   0.00000  Uiso   1.00
O828   O     0.12584   0.73510   0.61428   0.00000  Uiso   1.00
O829   O     0.06154   0.77891   0.59538   0.00000  Uiso   1.00
N830   N     0.22377   0.89378   0.38862   0.00000  Uiso   1.00
O831   O     0.27175   0.88722   0.40365   0.00000  Uiso   1.00
O832   O     0.20826   0.93180   0.38535   0.00000  Uiso   1.00
O833   O     0.50000   0.77322   0.53958   0.00000  Uiso   1.00
O834   O     0.50000   0.89345   0.46042   0.00000  Uiso   1.00
O835   O     0.50000   0.77321   0.46039   0.00000  Uiso   1.00
O836   O     0.50000   0.89346   0.53961   0.00000  Uiso   1.00
C837   C     0.50038   0.75425   0.50020   0.00000  Uiso   1.00
C838   C     0.49962   0.91242   0.49980   0.00000  Uiso   1.00
O839   O     0.42495   0.83334   0.53046   0.00000  Uiso   1.00
O840   O     0.57505   0.83333   0.46954   0.00000  Uiso   1.00
O841   O     0.42494   0.83333   0.45127   0.00000  Uiso   1.00
O842   O     0.57506   0.83334   0.54873   0.00000  Uiso   1.00
C843   C     0.40148   0.83201   0.48815   0.00000  Uiso   1.00
C844   C     0.59853   0.83463   0.51185   0.00000  Uiso   1.00
Cu845  Cu    0.50000   0.83334   0.54689   0.00000  Uiso   1.00
Cu846  Cu    0.50000   0.83333   0.45311   0.00000  Uiso   1.00
N847   N     0.50001   0.83334   0.61736   0.00000  Uiso   1.00
N848   N     0.49999   0.83332   0.38264   0.00000  Uiso   1.00
C849   C     0.34620   0.82690   0.48262   0.00000  Uiso   1.00
C850   C     0.65381   0.83970   0.51736   0.00000  Uiso   1.00
C851   C     0.54460   0.68902   0.49128   0.00000  Uiso   1.00
C852   C     0.45541   0.97764   0.50873   0.00000  Uiso   1.00
C853   C     0.54409   0.97880   0.49101   0.00000  Uiso   1.00
C854   C     0.45592   0.68786   0.50900   0.00000  Uiso   1.00
C855   C     0.49934   0.95710   0.49924   0.00000  Uiso   1.00
C856   C     0.50067   0.70956   0.50077   0.00000  Uiso   1.00
C857   C     0.47082   0.80479   0.35527   0.00000  Uiso   1.00
C858   C     0.52766   0.86277   0.64571   0.00000  Uiso   1.00
C859   C     0.47144   0.80437   0.63874   0.00000  Uiso   1.00
C860   C     0.52761   0.86252   0.36142   0.00000  Uiso   1.00
O861   O     0.65412   0.80656   0.44360   0.00000  Uiso   1.00
H862   H     0.34610   0.79640   0.42413   0.00000  Uiso   1.00
O863   O     0.34594   0.86001   0.55639   0.00000  Uiso   1.00
H864   H     0.65403   0.87011   0.57594   0.00000  Uiso   1.00
N865   N     0.58930   0.71240   0.48209   0.00000  Uiso   1.00
O866   O     0.61258   0.73758   0.51353   0.00000  Uiso   1.00
O867   O     0.60698   0.70836   0.44239   0.00000  Uiso   1.00
N868   N     0.41072   0.95426   0.51795   0.00000  Uiso   1.00
O869   O     0.38742   0.92907   0.48651   0.00000  Uiso   1.00
O870   O     0.39306   0.95830   0.55765   0.00000  Uiso   1.00
O871   O     0.58676   0.95630   0.48475   0.00000  Uiso   1.00
H872   H     0.61756   0.97476   0.48732   0.00000  Uiso   1.00
O873   O     0.41324   0.71035   0.51524   0.00000  Uiso   1.00
H874   H     0.38244   0.69189   0.51269   0.00000  Uiso   1.00
O875   O     0.44088   0.77718   0.37723   0.00000  Uiso   1.00
H876   H     0.41836   0.76050   0.35384   0.00000  Uiso   1.00
O877   O     0.55580   0.89426   0.62818   0.00000  Uiso   1.00
H878   H     0.56742   0.88479   0.59936   0.00000  Uiso   1.00
N879   N     0.44278   0.77286   0.61125   0.00000  Uiso   1.00
O880   O     0.45917   0.73510   0.61428   0.00000  Uiso   1.00
O881   O     0.39488   0.77891   0.59538   0.00000  Uiso   1.00
N882   N     0.55710   0.89378   0.38862   0.00000  Uiso   1.00
O883   O     0.60509   0.88722   0.40365   0.00000  Uiso   1.00
O884   O     0.54159   0.93180   0.38535   0.00000  Uiso   1.00
O885   O     0.83333   0.77322   0.53958   0.00000  Uiso   1.00
O886   O     0.83334   0.89345   0.46042   0.00000  Uiso   1.00
O887   O     0.83333   0.77321   0.46039   0.00000  Uiso   1.00
O888   O     0.83334   0.89346   0.53961   0.00000  Uiso   1.00
C889   C     0.83371   0.75425   0.50020   0.00000  Uiso   1.00
C890   C     0.83296   0.91242   0.49980   0.00000  Uiso   1.00
O891   O     0.75828   0.83334   0.53046   0.00000  Uiso   1.00
O892   O     0.90839   0.83333   0.46954   0.00000  Uiso   1.00
O893   O     0.75828   0.83333   0.45127   0.00000  Uiso   1.00
O894   O     0.90839   0.83334   0.54873   0.00000  Uiso   1.00
C895   C     0.73481   0.83201   0.48815   0.00000  Uiso   1.00
C896   C     0.93186   0.83463   0.51185   0.00000  Uiso   1.00
Cu897  Cu    0.83333   0.83334   0.54689   0.00000  Uiso   1.00
Cu898  Cu    0.83333   0.83333   0.45311   0.00000  Uiso   1.00
N899   N     0.83335   0.83334   0.61736   0.00000  Uiso   1.00
N900   N     0.83332   0.83332   0.38264   0.00000  Uiso   1.00
C901   C     0.67954   0.82690   0.48262   0.00000  Uiso   1.00
C902   C     0.98714   0.83970   0.51736   0.00000  Uiso   1.00
C903   C     0.87794   0.68902   0.49128   0.00000  Uiso   1.00
C904   C     0.78874   0.97764   0.50873   0.00000  Uiso   1.00
C905   C     0.87742   0.97880   0.49101   0.00000  Uiso   1.00
C906   C     0.78925   0.68786   0.50900   0.00000  Uiso   1.00
C907   C     0.83267   0.95710   0.49924   0.00000  Uiso   1.00
C908   C     0.83400   0.70956   0.50077   0.00000  Uiso   1.00
C909   C     0.80416   0.80479   0.35527   0.00000  Uiso   1.00
C910   C     0.86099   0.86277   0.64571   0.00000  Uiso   1.00
C911   C     0.80477   0.80437   0.63874   0.00000  Uiso   1.00
C912   C     0.86094   0.86252   0.36142   0.00000  Uiso   1.00
O913   O     0.98746   0.80656   0.44360   0.00000  Uiso   1.00
H914   H     0.67943   0.79640   0.42413   0.00000  Uiso   1.00
O915   O     0.67928   0.86001   0.55639   0.00000  Uiso   1.00
H916   H     0.98737   0.87011   0.57594   0.00000  Uiso   1.00
N917   N     0.92263   0.71240   0.48209   0.00000  Uiso   1.00
O918   O     0.94592   0.73758   0.51353   0.00000  Uiso   1.00
O919   O     0.94031   0.70836   0.44239   0.00000  Uiso   1.00
N920   N     0.74405   0.95426   0.51795   0.00000  Uiso   1.00
O921   O     0.72076   0.92907   0.48651   0.00000  Uiso   1.00
O922   O     0.72640   0.95830   0.55765   0.00000  Uiso   1.00
O923   O     0.92009   0.95630   0.48475   0.00000  Uiso   1.00
H924   H     0.95090   0.97476   0.48732   0.00000  Uiso   1.00
O925   O     0.74658   0.71035   0.51524   0.00000  Uiso   1.00
H926   H     0.71577   0.69189   0.51269   0.00000  Uiso   1.00
O927   O     0.77422   0.77718   0.37723   0.00000  Uiso   1.00
H928   H     0.75169   0.76050   0.35384   0.00000  Uiso   1.00
O929   O     0.88914   0.89426   0.62818   0.00000  Uiso   1.00
H930   H     0.90076   0.88479   0.59936   0.00000  Uiso   1.00
N931   N     0.77612   0.77286   0.61125   0.00000  Uiso   1.00
O932   O     0.79250   0.73510   0.61428   0.00000  Uiso   1.00
O933   O     0.72821   0.77891   0.59538   0.00000  Uiso   1.00
N934   N     0.89043   0.89378   0.38862   0.00000  Uiso   1.00
O935   O     0.93842   0.88722   0.40365   0.00000  Uiso   1.00
O936   O     0.87493   0.93180   0.38535   0.00000  Uiso   1.00
O937   O     0.16666   0.10655   0.87291   0.00000  Uiso   1.00
O938   O     0.16667   0.22678   0.79375   0.00000  Uiso   1.00
O939   O     0.16666   0.10654   0.79372   0.00000  Uiso   1.00
O940   O     0.16667   0.22679   0.87294   0.00000  Uiso   1.00
C941   C     0.16704   0.08758   0.83354   0.00000  Uiso   1.00
C942   C     0.16629   0.24575   0.83313   0.00000  Uiso   1.00
O943   O     0.09161   0.16667   0.86379   0.00000  Uiso   1.00
O944   O     0.24172   0.16666   0.80288   0.00000  Uiso   1.00
O945   O     0.09161   0.16666   0.78460   0.00000  Uiso   1.00
O946   O     0.24172   0.16667   0.88207   0.00000  Uiso   1.00
C947   C     0.06815   0.16535   0.82148   0.00000  Uiso   1.00
C948   C     0.26519   0.16796   0.84518   0.00000  Uiso   1.00
Cu949  Cu    0.16667   0.16667   0.88022   0.00000  Uiso   1.00
Cu950  Cu    0.16667   0.16666   0.78645   0.00000  Uiso   1.00
N951   N     0.16668   0.16668   0.95069   0.00000  Uiso   1.00
N952   N     0.16665   0.16666   0.71597   0.00000  Uiso   1.00
C953   C     0.01287   0.16023   0.81596   0.00000  Uiso   1.00
C954   C     0.32048   0.17304   0.85070   0.00000  Uiso   1.00
C955   C     0.21127   0.02235   0.82462   0.00000  Uiso   1.00
C956   C     0.12207   0.31097   0.84206   0.00000  Uiso   1.00
C957   C     0.21075   0.31213   0.82434   0.00000  Uiso   1.00
C958   C     0.12258   0.02120   0.84233   0.00000  Uiso   1.00
C959   C     0.16600   0.29044   0.83257   0.00000  Uiso   1.00
C960   C     0.16733   0.04289   0.83410   0.00000  Uiso   1.00
C961   C     0.13749   0.13812   0.68861   0.00000  Uiso   1.00
C962   C     0.19432   0.19610   0.97904   0.00000  Uiso   1.00
C963   C     0.13811   0.13770   0.97207   0.00000  Uiso   1.00
C964   C     0.19427   0.19586   0.69475   0.00000  Uiso   1.00
O965   O     0.32079   0.13990   0.77693   0.00000  Uiso   1.00
H966   H     0.01276   0.12973   0.75747   0.00000  Uiso   1.00
O967   O     0.01261   0.19334   0.88972   0.00000  Uiso   1.00
H968   H     0.32070   0.20344   0.90927   0.00000  Uiso   1.00
N969   N     0.25597   0.04574   0.81542   0.00000  Uiso   1.00
O970   O     0.27925   0.07092   0.84686   0.00000  Uiso   1.00
O971   O     0.27364   0.04169   0.77572   0.00000  Uiso   1.00
N972   N     0.07738   0.28759   0.85128   0.00000  Uiso   1.00
O973   O     0.05409   0.26240   0.81985   0.00000  Uiso   1.00
O974   O     0.05973   0.29164   0.89099   0.00000  Uiso   1.00
O975   O     0.25342   0.28964   0.81809   0.00000  Uiso   1.00
H976   H     0.28423   0.30809   0.82065   0.00000  Uiso   1.00
O977   O     0.07991   0.04369   0.84857   0.00000  Uiso   1.00
H978   H     0.04911   0.02522   0.84603   0.00000  Uiso   1.00
O979   O     0.10755   0.11051   0.71056   0.00000  Uiso   1.00
H980   H     0.08502   0.09383   0.68717   0.00000  Uiso   1.00
O981   O     0.22247   0.22760   0.96151   0.00000  Uiso   1.00
H982   H     0.23409   0.21812   0.93269   0.00000  Uiso   1.00
N983   N     0.10945   0.10620   0.94459   0.00000  Uiso   1.00
O984   O     0.12584   0.06843   0.94761   0.00000  Uiso   1.00
O985   O     0.06154   0.11224   0.92872   0.00000  Uiso   1.00
N986   N     0.22377   0.22712   0.72195   0.00000  Uiso   1.00
O987   O     0.27175   0.22056   0.73699   0.00000  Uiso   1.00
O988   O     0.20826   0.26513   0.71868   0.00000  Uiso   1.00
O989   O     0.50000   0.10655   0.87291   0.00000  Uiso   1.00
O990   O     0.50000   0.22678   0.79375   0.00000  Uiso   1.00
O991   O     0.50000   0.10654   0.79372   0.00000  Uiso   1.00
O992   O     0.50000   0.22679   0.87294   0.00000  Uiso   1.00
C993   C     0.50038   0.08758   0.83354   0.00000  Uiso   1.00
C994   C     0.49962   0.24575   0.83313   0.00000  Uiso   1.00
O995   O     0.42495   0.16667   0.86379   0.00000  Uiso   1.00
O996   O     0.57505   0.16666   0.80288   0.00000  Uiso   1.00
O997   O     0.42494   0.16666   0.78460   0.00000  Uiso   1.00
O998   O     0.57506   0.16667   0.88207   0.00000  Uiso   1.00
C999   C     0.40148   0.16535   0.82148   0.00000  Uiso   1.00
C1000  C     0.59853   0.16796   0.84518   0.00000  Uiso   1.00
Cu1001 Cu    0.50000   0.16667   0.88022   0.00000  Uiso   1.00
Cu1002 Cu    0.50000   0.16666   0.78645   0.00000  Uiso   1.00
N1003  N     0.50001   0.16668   0.95069   0.00000  Uiso   1.00
N1004  N     0.49999   0.16666   0.71597   0.00000  Uiso   1.00
C1005  C     0.34620   0.16023   0.81596   0.00000  Uiso   1.00
C1006  C     0.65381   0.17304   0.85070   0.00000  Uiso   1.00
C1007  C     0.54460   0.02235   0.82462   0.00000  Uiso   1.00
C1008  C     0.45541   0.31097   0.84206   0.00000  Uiso   1.00
C1009  C     0.54409   0.31213   0.82434   0.00000  Uiso   1.00
C1010  C     0.45592   0.02120   0.84233   0.00000  Uiso   1.00
C1011  C     0.49934   0.29044   0.83257   0.00000  Uiso   1.00
C1012  C     0.50067   0.04289   0.83410   0.00000  Uiso   1.00
C1013  C     0.47082   0.13812   0.68861   0.00000  Uiso   1.00
C1014  C     0.52766   0.19610   0.97904   0.00000  Uiso   1.00
C1015  C     0.47144   0.13770   0.97207   0.00000  Uiso   1.00
C1016  C     0.52761   0.19586   0.69475   0.00000  Uiso   1.00
O1017  O     0.65412   0.13990   0.77693   0.00000  Uiso   1.00
H1018  H     0.34610   0.12973   0.75747   0.00000  Uiso   1.00
O1019  O     0.34594   0.19334   0.88972   0.00000  Uiso   1.00
H1020  H     0.65403   0.20344   0.90927   0.00000  Uiso   1.00
N1021  N     0.58930   0.04574   0.81542   0.00000  Uiso   1.00
O1022  O     0.61258   0.07092   0.84686   0.00000  Uiso   1.00
O1023  O     0.60698   0.04169   0.77572   0.00000  Uiso   1.00
N1024  N     0.41072   0.28759   0.85128   0.00000  Uiso   1.00
O1025  O     0.38742   0.26240   0.81985   0.00000  Uiso   1.00
O1026  O     0.39306   0.29164   0.89099   0.00000  Uiso   1.00
O1027  O     0.58676   0.28964   0.81809   0.00000  Uiso   1.00
H1028  H     0.61756   0.30809   0.82065   0.00000  Uiso   1.00
O1029  O     0.41324   0.04369   0.84857   0.00000  Uiso   1.00
H1030  H     0.38244   0.02522   0.84603   0.00000  Uiso   1.00
O1031  O     0.44088   0.11051   0.71056   0.00000  Uiso   1.00
H1032  H     0.41836   0.09383   0.68717   0.00000  Uiso   1.00
O1033  O     0.55580   0.22760   0.96151   0.00000  Uiso   1.00
H1034  H     0.56742   0.21812   0.93269   0.00000  Uiso   1.00
N1035  N     0.44278   0.10620   0.94459   0.00000  Uiso   1.00
O1036  O     0.45917   0.06843   0.94761   0.00000  Uiso   1.00
O1037  O     0.39488   0.11224   0.92872   0.00000  Uiso   1.00
N1038  N     0.55710   0.22712   0.72195   0.00000  Uiso   1.00
O1039  O     0.60509   0.22056   0.73699   0.00000  Uiso   1.00
O1040  O     0.54159   0.26513   0.71868   0.00000  Uiso   1.00
O1041  O     0.83333   0.10655   0.87291   0.00000  Uiso   1.00
O1042  O     0.83334   0.22678   0.79375   0.00000  Uiso   1.00
O1043  O     0.83333   0.10654   0.79372   0.00000  Uiso   1.00
O1044  O     0.83334   0.22679   0.87294   0.00000  Uiso   1.00
C1045  C     0.83371   0.08758   0.83354   0.00000  Uiso   1.00
C1046  C     0.83296   0.24575   0.83313   0.00000  Uiso   1.00
O1047  O     0.75828   0.16667   0.86379   0.00000  Uiso   1.00
O1048  O     0.90839   0.16666   0.80288   0.00000  Uiso   1.00
O1049  O     0.75828   0.16666   0.78460   0.00000  Uiso   1.00
O1050  O     0.90839   0.16667   0.88207   0.00000  Uiso   1.00
C1051  C     0.73481   0.16535   0.82148   0.00000  Uiso   1.00
C1052  C     0.93186   0.16796   0.84518   0.00000  Uiso   1.00
Cu1053 Cu    0.83333   0.16667   0.88022   0.00000  Uiso   1.00
Cu1054 Cu    0.83333   0.16666   0.78645   0.00000  Uiso   1.00
N1055  N     0.83335   0.16668   0.95069   0.00000  Uiso   1.00
N1056  N     0.83332   0.16666   0.71597   0.00000  Uiso   1.00
C1057  C     0.67954   0.16023   0.81596   0.00000  Uiso   1.00
C1058  C     0.98714   0.17304   0.85070   0.00000  Uiso   1.00
C1059  C     0.87794   0.02235   0.82462   0.00000  Uiso   1.00
C1060  C     0.78874   0.31097   0.84206   0.00000  Uiso   1.00
C1061  C     0.87742   0.31213   0.82434   0.00000  Uiso   1.00
C1062  C     0.78925   0.02120   0.84233   0.00000  Uiso   1.00
C1063  C     0.83267   0.29044   0.83257   0.00000  Uiso   1.00
C1064  C     0.83400   0.04289   0.83410   0.00000  Uiso   1.00
C1065  C     0.80416   0.13812   0.68861   0.00000  Uiso   1.00
C1066  C     0.86099   0.19610   0.97904   0.00000  Uiso   1.00
C1067  C     0.80477   0.13770   0.97207   0.00000  Uiso   1.00
C1068  C     0.86094   0.19586   0.69475   0.00000  Uiso   1.00
O1069  O     0.98746   0.13990   0.77693   0.00000  Uiso   1.00
H1070  H     0.67943   0.12973   0.75747   0.00000  Uiso   1.00
O1071  O     0.67928   0.19334   0.88972   0.00000  Uiso   1.00
H1072  H     0.98737   0.20344   0.90927   0.00000  Uiso   1.00
N1073  N     0.92263   0.04574   0.81542   0.00000  Uiso   1.00
O1074  O     0.94592   0.07092   0.84686   0.00000  Uiso   1.00
O1075  O     0.94031   0.04169   0.77572   0.00000  Uiso   1.00
N1076  N     0.74405   0.28759   0.85128   0.00000  Uiso   1.00
O1077  O     0.72076   0.26240   0.81985   0.00000  Uiso   1.00
O1078  O     0.72640   0.29164   0.89099   0.00000  Uiso   1.00
O1079  O     0.92009   0.28964   0.81809   0.00000  Uiso   1.00
H1080  H     0.95090   0.30809   0.82065   0.00000  Uiso   1.00
O1081  O     0.74658   0.04369   0.84857   0.00000  Uiso   1.00
H1082  H     0.71577   0.02522   0.84603   0.00000  Uiso   1.00
O1083  O     0.77422   0.11051   0.71056   0.00000  Uiso   1.00
H1084  H     0.75169   0.09383   0.68717   0.00000  Uiso   1.00
O1085  O     0.88914   0.22760   0.96151   0.00000  Uiso   1.00
H1086  H     0.90076   0.21812   0.93269   0.00000  Uiso   1.00
N1087  N     0.77612   0.10620   0.94459   0.00000  Uiso   1.00
O1088  O     0.79250   0.06843   0.94761   0.00000  Uiso   1.00
O1089  O     0.72821   0.11224   0.92872   0.00000  Uiso   1.00
N1090  N     0.89043   0.22712   0.72195   0.00000  Uiso   1.00
O1091  O     0.93842   0.22056   0.73699   0.00000  Uiso   1.00
O1092  O     0.87493   0.26513   0.71868   0.00000  Uiso   1.00
O1093  O     0.16666   0.43989   0.87291   0.00000  Uiso   1.00
O1094  O     0.16667   0.56011   0.79375   0.00000  Uiso   1.00
O1095  O     0.16666   0.43988   0.79372   0.00000  Uiso   1.00
O1096  O     0.16667   0.56012   0.87294   0.00000  Uiso   1.00
C1097  C     0.16704   0.42092   0.83354   0.00000  Uiso   1.00
C1098  C     0.16629   0.57908   0.83313   0.00000  Uiso   1.00
O1099  O     0.09161   0.50000   0.86379   0.00000  Uiso   1.00
O1100  O     0.24172   0.50000   0.80288   0.00000  Uiso   1.00
O1101  O     0.09161   0.49999   0.78460   0.00000  Uiso   1.00
O1102  O     0.24172   0.50001   0.88207   0.00000  Uiso   1.00
C1103  C     0.06815   0.49868   0.82148   0.00000  Uiso   1.00
C1104  C     0.26519   0.50129   0.84518   0.00000  Uiso   1.00
Cu1105 Cu    0.16667   0.50001   0.88022   0.00000  Uiso   1.00
Cu1106 Cu    0.16667   0.49999   0.78645   0.00000  Uiso   1.00
N1107  N     0.16668   0.50001   0.95069   0.00000  Uiso   1.00
N1108  N     0.16665   0.49999   0.71597   0.00000  Uiso   1.00
C1109  C     0.01287   0.49357   0.81596   0.00000  Uiso   1.00
C1110  C     0.32048   0.50637   0.85070   0.00000  Uiso   1.00
C1111  C     0.21127   0.35569   0.82462   0.00000  Uiso   1.00
C1112  C     0.12207   0.64431   0.84206   0.00000  Uiso   1.00
C1113  C     0.21075   0.64546   0.82434   0.00000  Uiso   1.00
C1114  C     0.12258   0.35453   0.84233   0.00000  Uiso   1.00
C1115  C     0.16600   0.62377   0.83257   0.00000  Uiso   1.00
C1116  C     0.16733   0.37622   0.83410   0.00000  Uiso   1.00
C1117  C     0.13749   0.47145   0.68861   0.00000  Uiso   1.00
C1118  C     0.19432   0.52944   0.97904   0.00000  Uiso   1.00
C1119  C     0.13811   0.47104   0.97207   0.00000  Uiso   1.00
C1120  C     0.19427   0.52919   0.69475   0.00000  Uiso   1.00
O1121  O     0.32079   0.47323   0.77693   0.00000  Uiso   1.00
H1122  H     0.01276   0.46307   0.75747   0.00000  Uiso   1.00
O1123  O     0.01261   0.52667   0.88972   0.00000  Uiso   1.00
H1124  H     0.32070   0.53677   0.90927   0.00000  Uiso   1.00
N1125  N     0.25597   0.37907   0.81542   0.00000  Uiso   1.00
O1126  O     0.27925   0.40425   0.84686   0.00000  Uiso   1.00
O1127  O     0.27364   0.37502   0.77572   0.00000  Uiso   1.00
N1128  N     0.07738   0.62092   0.85128   0.00000  Uiso   1.00
O1129  O     0.05409   0.59574   0.81985   0.00000  Uiso   1.00
O1130  O     0.05973   0.62497   0.89099   0.00000  Uiso   1.00
O1131  O     0.25342   0.62297   0.81809   0.00000  Uiso   1.00
H1132  H     0.28423   0.64143   0.82065   0.00000  Uiso   1.00
O1133  O     0.07991   0.37702   0.84857   0.00000  Uiso   1.00
H1134  H     0.04911   0.35856   0.84603   0.00000  Uiso   1.00
O1135  O     0.10755   0.44384   0.71056   0.00000  Uiso   1.00
H1136  H     0.08502   0.42716   0.68717   0.00000  Uiso   1.00
O1137  O     0.22247   0.56093   0.96151   0.00000  Uiso   1.00
H1138  H     0.23409   0.55145   0.93269   0.00000  Uiso   1.00
N1139  N     0.10945   0.43953   0.94459   0.00000  Uiso   1.00
O1140  O     0.12584   0.40176   0.94761   0.00000  Uiso   1.00
O1141  O     0.06154   0.44558   0.92872   0.00000  Uiso   1.00
N1142  N     0.22377   0.56045   0.72195   0.00000  Uiso   1.00
O1143  O     0.27175   0.55389   0.73699   0.00000  Uiso   1.00
O1144  O     0.20826   0.59846   0.71868   0.00000  Uiso   1.00
O1145  O     0.50000   0.43989   0.87291   0.00000  Uiso   1.00
O1146  O     0.50000   0.56011   0.79375   0.00000  Uiso   1.00
O1147  O     0.50000   0.43988   0.79372   0.00000  Uiso   1.00
O1148  O     0.50000   0.56012   0.87294   0.00000  Uiso   1.00
C1149  C     0.50038   0.42092   0.83354   0.00000  Uiso   1.00
C1150  C     0.49962   0.57908   0.83313   0.00000  Uiso   1.00
O1151  O     0.42495   0.50000   0.86379   0.00000  Uiso   1.00
O1152  O     0.57505   0.50000   0.80288   0.00000  Uiso   1.00
O1153  O     0.42494   0.49999   0.78460   0.00000  Uiso   1.00
O1154  O     0.57506   0.50001   0.88207   0.00000  Uiso   1.00
C1155  C     0.40148   0.49868   0.82148   0.00000  Uiso   1.00
C1156  C     0.59853   0.50129   0.84518   0.00000  Uiso   1.00
Cu1157 Cu    0.50000   0.50001   0.88022   0.00000  Uiso   1.00
Cu1158 Cu    0.50000   0.49999   0.78645   0.00000  Uiso   1.00
N1159  N     0.50001   0.50001   0.95069   0.00000  Uiso   1.00
N1160  N     0.49999   0.49999   0.71597   0.00000  Uiso   1.00
C1161  C     0.34620   0.49357   0.81596   0.00000  Uiso   1.00
C1162  C     0.65381   0.50637   0.85070   0.00000  Uiso   1.00
C1163  C     0.54460   0.35569   0.82462   0.00000  Uiso   1.00
C1164  C     0.45541   0.64431   0.84206   0.00000  Uiso   1.00
C1165  C     0.54409   0.64546   0.82434   0.00000  Uiso   1.00
C1166  C     0.45592   0.35453   0.84233   0.00000  Uiso   1.00
C1167  C     0.49934   0.62377   0.83257   0.00000  Uiso   1.00
C1168  C     0.50067   0.37622   0.83410   0.00000  Uiso   1.00
C1169  C     0.47082   0.47145   0.68861   0.00000  Uiso   1.00
C1170  C     0.52766   0.52944   0.97904   0.00000  Uiso   1.00
C1171  C     0.47144   0.47104   0.97207   0.00000  Uiso   1.00
C1172  C     0.52761   0.52919   0.69475   0.00000  Uiso   1.00
O1173  O     0.65412   0.47323   0.77693   0.00000  Uiso   1.00
H1174  H     0.34610   0.46307   0.75747   0.00000  Uiso   1.00
O1175  O     0.34594   0.52667   0.88972   0.00000  Uiso   1.00
H1176  H     0.65403   0.53677   0.90927   0.00000  Uiso   1.00
N1177  N     0.58930   0.37907   0.81542   0.00000  Uiso   1.00
O1178  O     0.61258   0.40425   0.84686   0.00000  Uiso   1.00
O1179  O     0.60698   0.37502   0.77572   0.00000  Uiso   1.00
N1180  N     0.41072   0.62092   0.85128   0.00000  Uiso   1.00
O1181  O     0.38742   0.59574   0.81985   0.00000  Uiso   1.00
O1182  O     0.39306   0.62497   0.89099   0.00000  Uiso   1.00
O1183  O     0.58676   0.62297   0.81809   0.00000  Uiso   1.00
H1184  H     0.61756   0.64143   0.82065   0.00000  Uiso   1.00
O1185  O     0.41324   0.37702   0.84857   0.00000  Uiso   1.00
H1186  H     0.38244   0.35856   0.84603   0.00000  Uiso   1.00
O1187  O     0.44088   0.44384   0.71056   0.00000  Uiso   1.00
H1188  H     0.41836   0.42716   0.68717   0.00000  Uiso   1.00
O1189  O     0.55580   0.56093   0.96151   0.00000  Uiso   1.00
H1190  H     0.56742   0.55145   0.93269   0.00000  Uiso   1.00
N1191  N     0.44278   0.43953   0.94459   0.00000  Uiso   1.00
O1192  O     0.45917   0.40176   0.94761   0.00000  Uiso   1.00
O1193  O     0.39488   0.44558   0.92872   0.00000  Uiso   1.00
N1194  N     0.55710   0.56045   0.72195   0.00000  Uiso   1.00
O1195  O     0.60509   0.55389   0.73699   0.00000  Uiso   1.00
O1196  O     0.54159   0.59846   0.71868   0.00000  Uiso   1.00
O1197  O     0.83333   0.43989   0.87291   0.00000  Uiso   1.00
O1198  O     0.83334   0.56011   0.79375   0.00000  Uiso   1.00
O1199  O     0.83333   0.43988   0.79372   0.00000  Uiso   1.00
O1200  O     0.83334   0.56012   0.87294   0.00000  Uiso   1.00
C1201  C     0.83371   0.42092   0.83354   0.00000  Uiso   1.00
C1202  C     0.83296   0.57908   0.83313   0.00000  Uiso   1.00
O1203  O     0.75828   0.50000   0.86379   0.00000  Uiso   1.00
O1204  O     0.90839   0.50000   0.80288   0.00000  Uiso   1.00
O1205  O     0.75828   0.49999   0.78460   0.00000  Uiso   1.00
O1206  O     0.90839   0.50001   0.88207   0.00000  Uiso   1.00
C1207  C     0.73481   0.49868   0.82148   0.00000  Uiso   1.00
C1208  C     0.93186   0.50129   0.84518   0.00000  Uiso   1.00
Cu1209 Cu    0.83333   0.50001   0.88022   0.00000  Uiso   1.00
Cu1210 Cu    0.83333   0.49999   0.78645   0.00000  Uiso   1.00
N1211  N     0.83335   0.50001   0.95069   0.00000  Uiso   1.00
N1212  N     0.83332   0.49999   0.71597   0.00000  Uiso   1.00
C1213  C     0.67954   0.49357   0.81596   0.00000  Uiso   1.00
C1214  C     0.98714   0.50637   0.85070   0.00000  Uiso   1.00
C1215  C     0.87794   0.35569   0.82462   0.00000  Uiso   1.00
C1216  C     0.78874   0.64431   0.84206   0.00000  Uiso   1.00
C1217  C     0.87742   0.64546   0.82434   0.00000  Uiso   1.00
C1218  C     0.78925   0.35453   0.84233   0.00000  Uiso   1.00
C1219  C     0.83267   0.62377   0.83257   0.00000  Uiso   1.00
C1220  C     0.83400   0.37622   0.83410   0.00000  Uiso   1.00
C1221  C     0.80416   0.47145   0.68861   0.00000  Uiso   1.00
C1222  C     0.86099   0.52944   0.97904   0.00000  Uiso   1.00
C1223  C     0.80477   0.47104   0.97207   0.00000  Uiso   1.00
C1224  C     0.86094   0.52919   0.69475   0.00000  Uiso   1.00
O1225  O     0.98746   0.47323   0.77693   0.00000  Uiso   1.00
H1226  H     0.67943   0.46307   0.75747   0.00000  Uiso   1.00
O1227  O     0.67928   0.52667   0.88972   0.00000  Uiso   1.00
H1228  H     0.98737   0.53677   0.90927   0.00000  Uiso   1.00
N1229  N     0.92263   0.37907   0.81542   0.00000  Uiso   1.00
O1230  O     0.94592   0.40425   0.84686   0.00000  Uiso   1.00
O1231  O     0.94031   0.37502   0.77572   0.00000  Uiso   1.00
N1232  N     0.74405   0.62092   0.85128   0.00000  Uiso   1.00
O1233  O     0.72076   0.59574   0.81985   0.00000  Uiso   1.00
O1234  O     0.72640   0.62497   0.89099   0.00000  Uiso   1.00
O1235  O     0.92009   0.62297   0.81809   0.00000  Uiso   1.00
H1236  H     0.95090   0.64143   0.82065   0.00000  Uiso   1.00
O1237  O     0.74658   0.37702   0.84857   0.00000  Uiso   1.00
H1238  H     0.71577   0.35856   0.84603   0.00000  Uiso   1.00
O1239  O     0.77422   0.44384   0.71056   0.00000  Uiso   1.00
H1240  H     0.75169   0.42716   0.68717   0.00000  Uiso   1.00
O1241  O     0.88914   0.56093   0.96151   0.00000  Uiso   1.00
H1242  H     0.90076   0.55145   0.93269   0.00000  Uiso   1.00
N1243  N     0.77612   0.43953   0.94459   0.00000  Uiso   1.00
O1244  O     0.79250   0.40176   0.94761   0.00000  Uiso   1.00
O1245  O     0.72821   0.44558   0.92872   0.00000  Uiso   1.00
N1246  N     0.89043   0.56045   0.72195   0.00000  Uiso   1.00
O1247  O     0.93842   0.55389   0.73699   0.00000  Uiso   1.00
O1248  O     0.87493   0.59846   0.71868   0.00000  Uiso   1.00
O1249  O     0.16666   0.77322   0.87291   0.00000  Uiso   1.00
O1250  O     0.16667   0.89345   0.79375   0.00000  Uiso   1.00
O1251  O     0.16666   0.77321   0.79372   0.00000  Uiso   1.00
O1252  O     0.16667   0.89346   0.87294   0.00000  Uiso   1.00
C1253  C     0.16704   0.75425   0.83354   0.00000  Uiso   1.00
C1254  C     0.16629   0.91242   0.83313   0.00000  Uiso   1.00
O1255  O     0.09161   0.83334   0.86379   0.00000  Uiso   1.00
O1256  O     0.24172   0.83333   0.80288   0.00000  Uiso   1.00
O1257  O     0.09161   0.83333   0.78460   0.00000  Uiso   1.00
O1258  O     0.24172   0.83334   0.88207   0.00000  Uiso   1.00
C1259  C     0.06815   0.83201   0.82148   0.00000  Uiso   1.00
C1260  C     0.26519   0.83463   0.84518   0.00000  Uiso   1.00
Cu1261 Cu    0.16667   0.83334   0.88022   0.00000  Uiso   1.00
Cu1262 Cu    0.16667   0.83333   0.78645   0.00000  Uiso   1.00
N1263  N     0.16668   0.83334   0.95069   0.00000  Uiso   1.00
N1264  N     0.16665   0.83332   0.71597   0.00000  Uiso   1.00
C1265  C     0.01287   0.82690   0.81596   0.00000  Uiso   1.00
C1266  C     0.32048   0.83970   0.85070   0.00000  Uiso   1.00
C1267  C     0.21127   0.68902   0.82462   0.00000  Uiso   1.00
C1268  C     0.12207   0.97764   0.84206   0.00000  Uiso   1.00
C1269  C     0.21075   0.97880   0.82434   0.00000  Uiso   1.00
C1270  C     0.12258   0.68786   0.84233   0.00000  Uiso   1.00
C1271  C     0.16600   0.95710   0.83257   0.00000  Uiso   1.00
C1272  C     0.16733   0.70956   0.83410   0.00000  Uiso   1.00
C1273  C     0.13749   0.80479   0.68861   0.00000  Uiso   1.00
C1274  C     0.19432   0.86277   0.97904   0.00000  Uiso   1.00
C1275  C     0.13811   0.80437   0.97207   0.00000  Uiso   1.00
C1276  C     0.19427   0.86252   0.69475   0.00000  Uiso   1.00
O1277  O     0.32079   0.80656   0.77693   0.00000  Uiso   1.00
H1278  H     0.01276   0.79640   0.75747   0.00000  Uiso   1.00
O1279  O     0.01261   0.86001   0.88972   0.00000  Uiso   1.00
H1280  H     0.32070   0.87011   0.90927   0.00000  Uiso   1.00
N1281  N     0.25597   0.71240   0.81542   0.00000  Uiso   1.00
O1282  O     0.27925   0.73758   0.84686   0.00000  Uiso   1.00
O1283  O     0.27364   0.70836   0.77572   0.00000  Uiso   1.00
N1284  N     0.07738   0.95426   0.85128   0.00000  Uiso   1.00
O1285  O     0.05409   0.92907   0.81985   0.00000  Uiso   1.00
O1286  O     0.05973   0.95830   0.89099   0.00000  Uiso   1.00
O1287  O     0.25342   0.95630   0.81809   0.00000  Uiso   1.00
H1288  H     0.28423   0.97476   0.82065   0.00000  Uiso   1.00
O1289  O     0.07991   0.71035   0.84857   0.00000  Uiso   1.00
H1290  H     0.04911   0.69189   0.84603   0.00000  Uiso   1.00
O1291  O     0.10755   0.77718   0.71056   0.00000  Uiso   1.00
H1292  H     0.08502   0.76050   0.68717   0.00000  Uiso   1.00
O1293  O     0.22247   0.89426   0.96151   0.00000  Uiso   1.00
H1294  H     0.23409   0.88479   0.93269   0.00000  Uiso   1.00
N1295  N     0.10945   0.77286   0.94459   0.00000  Uiso   1.00
O1296  O     0.12584   0.73510   0.94761   0.00000  Uiso   1.00
O1297  O     0.06154   0.77891   0.92872   0.00000  Uiso   1.00
N1298  N     0.22377   0.89378   0.72195   0.00000  Uiso   1.00
O1299  O     0.27175   0.88722   0.73699   0.00000  Uiso   1.00
O1300  O     0.20826   0.93180   0.71868   0.00000  Uiso   1.00
O1301  O     0.50000   0.77322   0.87291   0.00000  Uiso   1.00
O1302  O     0.50000   0.89345   0.79375   0.00000  Uiso   1.00
O1303  O     0.50000   0.77321   0.79372   0.00000  Uiso   1.00
O1304  O     0.50000   0.89346   0.87294   0.00000  Uiso   1.00
C1305  C     0.50038   0.75425   0.83354   0.00000  Uiso   1.00
C1306  C     0.49962   0.91242   0.83313   0.00000  Uiso   1.00
O1307  O     0.42495   0.83334   0.86379   0.00000  Uiso   1.00
O1308  O     0.57505   0.83333   0.80288   0.00000  Uiso   1.00
O1309  O     0.42494   0.83333   0.78460   0.00000  Uiso   1.00
O1310  O     0.57506   0.83334   0.88207   0.00000  Uiso   1.00
C1311  C     0.40148   0.83201   0.82148   0.00000  Uiso   1.00
C1312  C     0.59853   0.83463   0.84518   0.00000  Uiso   1.00
Cu1313 Cu    0.50000   0.83334   0.88022   0.00000  Uiso   1.00
Cu1314 Cu    0.50000   0.83333   0.78645   0.00000  Uiso   1.00
N1315  N     0.50001   0.83334   0.95069   0.00000  Uiso   1.00
N1316  N     0.49999   0.83332   0.71597   0.00000  Uiso   1.00
C1317  C     0.34620   0.82690   0.81596   0.00000  Uiso   1.00
C1318  C     0.65381   0.83970   0.85070   0.00000  Uiso   1.00
C1319  C     0.54460   0.68902   0.82462   0.00000  Uiso   1.00
C1320  C     0.45541   0.97764   0.84206   0.00000  Uiso   1.00
C1321  C     0.54409   0.97880   0.82434   0.00000  Uiso   1.00
C1322  C     0.45592   0.68786   0.84233   0.00000  Uiso   1.00
C1323  C     0.49934   0.95710   0.83257   0.00000  Uiso   1.00
C1324  C     0.50067   0.70956   0.83410   0.00000  Uiso   1.00
C1325  C     0.47082   0.80479   0.68861   0.00000  Uiso   1.00
C1326  C     0.52766   0.86277   0.97904   0.00000  Uiso   1.00
C1327  C     0.47144   0.80437   0.97207   0.00000  Uiso   1.00
C1328  C     0.52761   0.86252   0.69475   0.00000  Uiso   1.00
O1329  O     0.65412   0.80656   0.77693   0.00000  Uiso   1.00
H1330  H     0.34610   0.79640   0.75747   0.00000  Uiso   1.00
O1331  O     0.34594   0.86001   0.88972   0.00000  Uiso   1.00
H1332  H     0.65403   0.87011   0.90927   0.00000  Uiso   1.00
N1333  N     0.58930   0.71240   0.81542   0.00000  Uiso   1.00
O1334  O     0.61258   0.73758   0.84686   0.00000  Uiso   1.00
O1335  O     0.60698   0.70836   0.77572   0.00000  Uiso   1.00
N1336  N     0.41072   0.95426   0.85128   0.00000  Uiso   1.00
O1337  O     0.38742   0.92907   0.81985   0.00000  Uiso   1.00
O1338  O     0.39306   0.95830   0.89099   0.00000  Uiso   1.00
O1339  O     0.58676   0.95630   0.81809   0.00000  Uiso   1.00
H1340  H     0.61756   0.97476   0.82065   0.00000  Uiso   1.00
O1341  O     0.41324   0.71035   0.84857   0.00000  Uiso   1.00
H1342  H     0.38244   0.69189   0.84603   0.00000  Uiso   1.00
O1343  O     0.44088   0.77718   0.71056   0.00000  Uiso   1.00
H1344  H     0.41836   0.76050   0.68717   0.00000  Uiso   1.00
O1345  O     0.55580   0.89426   0.96151   0.00000  Uiso   1.00
H1346  H     0.56742   0.88479   0.93269   0.00000  Uiso   1.00
N1347  N     0.44278   0.77286   0.94459   0.00000  Uiso   1.00
O1348  O     0.45917   0.73510   0.94761   0.00000  Uiso   1.00
O1349  O     0.39488   0.77891   0.92872   0.00000  Uiso   1.00
N1350  N     0.55710   0.89378   0.72195   0.00000  Uiso   1.00
O1351  O     0.60509   0.88722   0.73699   0.00000  Uiso   1.00
O1352  O     0.54159   0.93180   0.71868   0.00000  Uiso   1.00
O1353  O     0.83333   0.77322   0.87291   0.00000  Uiso   1.00
O1354  O     0.83334   0.89345   0.79375   0.00000  Uiso   1.00
O1355  O     0.83333   0.77321   0.79372   0.00000  Uiso   1.00
O1356  O     0.83334   0.89346   0.87294   0.00000  Uiso   1.00
C1357  C     0.83371   0.75425   0.83354   0.00000  Uiso   1.00
C1358  C     0.83296   0.91242   0.83313   0.00000  Uiso   1.00
O1359  O     0.75828   0.83334   0.86379   0.00000  Uiso   1.00
O1360  O     0.90839   0.83333   0.80288   0.00000  Uiso   1.00
O1361  O     0.75828   0.83333   0.78460   0.00000  Uiso   1.00
O1362  O     0.90839   0.83334   0.88207   0.00000  Uiso   1.00
C1363  C     0.73481   0.83201   0.82148   0.00000  Uiso   1.00
C1364  C     0.93186   0.83463   0.84518   0.00000  Uiso   1.00
Cu1365 Cu    0.83333   0.83334   0.88022   0.00000  Uiso   1.00
Cu1366 Cu    0.83333   0.83333   0.78645   0.00000  Uiso   1.00
N1367  N     0.83335   0.83334   0.95069   0.00000  Uiso   1.00
N1368  N     0.83332   0.83332   0.71597   0.00000  Uiso   1.00
C1369  C     0.67954   0.82690   0.81596   0.00000  Uiso   1.00
C1370  C     0.98714   0.83970   0.85070   0.00000  Uiso   1.00
C1371  C     0.87794   0.68902   0.82462   0.00000  Uiso   1.00
C1372  C     0.78874   0.97764   0.84206   0.00000  Uiso   1.00
C1373  C     0.87742   0.97880   0.82434   0.00000  Uiso   1.00
C1374  C     0.78925   0.68786   0.84233   0.00000  Uiso   1.00
C1375  C     0.83267   0.95710   0.83257   0.00000  Uiso   1.00
C1376  C     0.83400   0.70956   0.83410   0.00000  Uiso   1.00
C1377  C     0.80416   0.80479   0.68861   0.00000  Uiso   1.00
C1378  C     0.86099   0.86277   0.97904   0.00000  Uiso   1.00
C1379  C     0.80477   0.80437   0.97207   0.00000  Uiso   1.00
C1380  C     0.86094   0.86252   0.69475   0.00000  Uiso   1.00
O1381  O     0.98746   0.80656   0.77693   0.00000  Uiso   1.00
H1382  H     0.67943   0.79640   0.75747   0.00000  Uiso   1.00
O1383  O     0.67928   0.86001   0.88972   0.00000  Uiso   1.00
H1384  H     0.98737   0.87011   0.90927   0.00000  Uiso   1.00
N1385  N     0.92263   0.71240   0.81542   0.00000  Uiso   1.00
O1386  O     0.94592   0.73758   0.84686   0.00000  Uiso   1.00
O1387  O     0.94031   0.70836   0.77572   0.00000  Uiso   1.00
N1388  N     0.74405   0.95426   0.85128   0.00000  Uiso   1.00
O1389  O     0.72076   0.92907   0.81985   0.00000  Uiso   1.00
O1390  O     0.72640   0.95830   0.89099   0.00000  Uiso   1.00
O1391  O     0.92009   0.95630   0.81809   0.00000  Uiso   1.00
H1392  H     0.95090   0.97476   0.82065   0.00000  Uiso   1.00
O1393  O     0.74658   0.71035   0.84857   0.00000  Uiso   1.00
H1394  H     0.71577   0.69189   0.84603   0.00000  Uiso   1.00
O1395  O     0.77422   0.77718   0.71056   0.00000  Uiso   1.00
H1396  H     0.75169   0.76050   0.68717   0.00000  Uiso   1.00
O1397  O     0.88914   0.89426   0.96151   0.00000  Uiso   1.00
H1398  H     0.90076   0.88479   0.93269   0.00000  Uiso   1.00
N1399  N     0.77612   0.77286   0.94459   0.00000  Uiso   1.00
O1400  O     0.79250   0.73510   0.94761   0.00000  Uiso   1.00
O1401  O     0.72821   0.77891   0.92872   0.00000  Uiso   1.00
N1402  N     0.89043   0.89378   0.72195   0.00000  Uiso   1.00
O1403  O     0.93842   0.88722   0.73699   0.00000  Uiso   1.00
O1404  O     0.87493   0.93180   0.71868   0.00000  Uiso   1.00
loop_
_geom_bond_atom_site_label_1
_geom_bond_atom_site_label_2
_geom_bond_distance
_geom_bond_site_symmetry_2
_ccdc_geom_bond_type
O1     C5      1.295   .     A
O1     Cu13    1.953   .     S
O2     C6      1.295   .     A
O2     Cu14    1.953   .     S
O3     Cu14    1.949   .     S
O3     C5      1.295   .     A
O4     C6      1.295   .     A
O4     Cu13    1.949   .     S
C5     C24     1.442   .     S
C6     C23     1.442   .     S
O7     Cu13    1.967   .     S
O7     C11     1.290   .     A
O8     C12     1.290   .     A
O8     Cu14    1.967   .     S
O9     Cu14    1.969   .     S
O9     C11     1.300   .     A
O10    C12     1.300   .     A
O10    Cu13    1.969   .     S
C11    C17     1.447   .     S
C12    C18     1.447   .     S
Cu13   Cu14    2.703   .     S
Cu13   N15     2.031   .     S
Cu14   N16     2.031   .     S
N15    C27     1.379   .     A
N15    C26     1.383   .     A
N16    C28     1.367   .     A
N16    C25     1.367   .     A
C17    C122    1.355   1_455 S
C17    O133    1.388   1_455 S
C18    C69     1.355   .     S
C18    O83     1.388   .     S
C19    C24     1.407   .     A
C19    N33     1.436   .     S
C19    C333    1.405   1_545 S
C20    C23     1.407   .     A
C20    N36     1.436   .     S
C20    C178    1.405   .     S
C21    O39     1.385   .     S
C21    C23     1.402   .     A
C21    C175    1.405   .     S
C22    C24     1.402   .     A
C22    O41     1.385   .     S
C22    C332    1.405   1_545 S
C25    O43     1.381   .     S
C25    C963    1.440   1_554 S
C26    O45     1.376   .     S
C26    C496    1.414   .     S
C27    N47     1.428   .     S
C27    C493    1.440   .     S
C28    N50     1.429   .     S
C28    C962    1.414   1_554 S
O29    C69     1.388   .     S
O29    H82     0.991   .     S
H30    O133    0.991   1_455 S
O31    C122    1.388   1_455 S
O31    H136    0.990   1_455 S
H32    O83     0.990   .     S
N33    O35     1.301   .     A
N33    O34     1.301   .     A
N36    O38     1.301   .     A
N36    O37     1.301   .     A
O39    H40     0.989   .     S
O41    H42     0.989   .     S
O43    H44     0.988   .     S
O45    H46     0.977   .     S
N47    O49     1.300   .     A
N47    O48     1.301   .     A
N50    O52     1.301   .     A
N50    O51     1.300   .     A
O53    C57     1.295   .     A
O53    Cu65    1.953   .     S
O54    C58     1.295   .     A
O54    Cu66    1.953   .     S
O55    Cu66    1.949   .     S
O55    C57     1.295   .     A
O56    C58     1.295   .     A
O56    Cu65    1.949   .     S
C57    C76     1.442   .     S
C58    C75     1.442   .     S
O59    Cu65    1.967   .     S
O59    C63     1.290   .     A
O60    C64     1.290   .     A
O60    Cu66    1.967   .     S
O61    Cu66    1.969   .     S
O61    C63     1.300   .     A
O62    C64     1.300   .     A
O62    Cu65    1.969   .     S
C63    C69     1.447   .     S
C64    C70     1.447   .     S
Cu65   Cu66    2.703   .     S
Cu65   N67     2.031   .     S
Cu66   N68     2.031   .     S
N67    C79     1.379   .     A
N67    C78     1.383   .     A
N68    C80     1.367   .     A
N68    C77     1.367   .     A
C70    C121    1.355   .     S
C70    O135    1.388   .     S
C71    C76     1.407   .     A
C71    N85     1.436   .     S
C71    C385    1.405   1_545 S
C72    C75     1.407   .     A
C72    N88     1.436   .     S
C72    C230    1.405   .     S
C73    O91     1.385   .     S
C73    C75     1.402   .     A
C73    C227    1.405   .     S
C74    C76     1.402   .     A
C74    O93     1.385   .     S
C74    C384    1.405   1_545 S
C77    O95     1.381   .     S
C77    C1015   1.440   1_554 S
C78    O97     1.376   .     S
C78    C548    1.414   .     S
C79    N99     1.428   .     S
C79    C545    1.440   .     S
C80    N102    1.429   .     S
C80    C1014   1.414   1_554 S
O81    C121    1.388   .     S
O81    H134    0.991   .     S
H84    O135    0.990   .     S
N85    O87     1.301   .     A
N85    O86     1.301   .     A
N88    O90     1.301   .     A
N88    O89     1.301   .     A
O91    H92     0.989   .     S
O93    H94     0.989   .     S
O95    H96     0.988   .     S
O97    H98     0.977   .     S
N99    O101    1.300   .     A
N99    O100    1.301   .     A
N102   O104    1.301   .     A
N102   O103    1.300   .     A
O105   C109    1.295   .     A
O105   Cu117   1.953   .     S
O106   C110    1.295   .     A
O106   Cu118   1.953   .     S
O107   Cu118   1.949   .     S
O107   C109    1.295   .     A
O108   C110    1.295   .     A
O108   Cu117   1.949   .     S
C109   C128    1.442   .     S
C110   C127    1.442   .     S
O111   Cu117   1.967   .     S
O111   C115    1.290   .     A
O112   C116    1.290   .     A
O112   Cu118   1.967   .     S
O113   Cu118   1.969   .     S
O113   C115    1.300   .     A
O114   C116    1.300   .     A
O114   Cu117   1.969   .     S
C115   C121    1.447   .     S
C116   C122    1.447   .     S
Cu117  Cu118   2.703   .     S
Cu117  N119    2.031   .     S
Cu118  N120    2.031   .     S
N119   C131    1.379   .     A
N119   C130    1.383   .     A
N120   C132    1.367   .     A
N120   C129    1.367   .     A
C122   C17     1.355   1_655 S
C122   O31     1.388   1_655 S
C123   C128    1.407   .     A
C123   N137    1.436   .     S
C123   C437    1.405   1_545 S
C124   C127    1.407   .     A
C124   N140    1.436   .     S
C124   C282    1.405   .     S
C125   O143    1.385   .     S
C125   C127    1.402   .     A
C125   C279    1.405   .     S
C126   C128    1.402   .     A
C126   O145    1.385   .     S
C126   C436    1.405   1_545 S
C129   O147    1.381   .     S
C129   C1067   1.440   1_554 S
C130   O149    1.376   .     S
C130   C600    1.414   .     S
C131   N151    1.428   .     S
C131   C597    1.440   .     S
C132   N154    1.429   .     S
C132   C1066   1.414   1_554 S
O133   C17     1.388   1_655 S
O133   H30     0.991   1_655 S
H136   O31     0.990   1_655 S
N137   O139    1.301   .     A
N137   O138    1.301   .     A
N140   O142    1.301   .     A
N140   O141    1.301   .     A
O143   H144    0.989   .     S
O145   H146    0.989   .     S
O147   H148    0.988   .     S
O149   H150    0.977   .     S
N151   O153    1.300   .     A
N151   O152    1.301   .     A
N154   O156    1.301   .     A
N154   O155    1.300   .     A
O157   C161    1.295   .     A
O157   Cu169   1.953   .     S
O158   C162    1.295   .     A
O158   Cu170   1.953   .     S
O159   Cu170   1.949   .     S
O159   C161    1.295   .     A
O160   C162    1.295   .     A
O160   Cu169   1.949   .     S
C161   C180    1.442   .     S
C162   C179    1.442   .     S
O163   Cu169   1.967   .     S
O163   C167    1.290   .     A
O164   C168    1.290   .     A
O164   Cu170   1.967   .     S
O165   Cu170   1.969   .     S
O165   C167    1.300   .     A
O166   C168    1.300   .     A
O166   Cu169   1.969   .     S
C167   C173    1.447   .     S
C168   C174    1.447   .     S
Cu169  Cu170   2.703   .     S
Cu169  N171    2.031   .     S
Cu170  N172    2.031   .     S
N171   C183    1.379   .     A
N171   C182    1.383   .     A
N172   C184    1.367   .     A
N172   C181    1.367   .     A
C173   C278    1.355   1_455 S
C173   O289    1.388   1_455 S
C174   C225    1.355   .     S
C174   O239    1.388   .     S
C175   C180    1.407   .     A
C175   N189    1.436   .     S
C176   C179    1.407   .     A
C176   N192    1.436   .     S
C176   C334    1.405   .     S
C177   O195    1.385   .     S
C177   C179    1.402   .     A
C177   C331    1.405   .     S
C178   C180    1.402   .     A
C178   O197    1.385   .     S
C181   O199    1.381   .     S
C181   C1119   1.440   1_554 S
C182   O201    1.376   .     S
C182   C652    1.414   .     S
C183   N203    1.428   .     S
C183   C649    1.440   .     S
C184   N206    1.429   .     S
C184   C1118   1.414   1_554 S
O185   C225    1.388   .     S
O185   H238    0.991   .     S
H186   O289    0.991   1_455 S
O187   C278    1.388   1_455 S
O187   H292    0.990   1_455 S
H188   O239    0.990   .     S
N189   O191    1.301   .     A
N189   O190    1.301   .     A
N192   O194    1.301   .     A
N192   O193    1.301   .     A
O195   H196    0.989   .     S
O197   H198    0.989   .     S
O199   H200    0.988   .     S
O201   H202    0.977   .     S
N203   O205    1.300   .     A
N203   O204    1.301   .     A
N206   O208    1.301   .     A
N206   O207    1.300   .     A
O209   C213    1.295   .     A
O209   Cu221   1.953   .     S
O210   C214    1.295   .     A
O210   Cu222   1.953   .     S
O211   Cu222   1.949   .     S
O211   C213    1.295   .     A
O212   C214    1.295   .     A
O212   Cu221   1.949   .     S
C213   C232    1.442   .     S
C214   C231    1.442   .     S
O215   Cu221   1.967   .     S
O215   C219    1.290   .     A
O216   C220    1.290   .     A
O216   Cu222   1.967   .     S
O217   Cu222   1.969   .     S
O217   C219    1.300   .     A
O218   C220    1.300   .     A
O218   Cu221   1.969   .     S
C219   C225    1.447   .     S
C220   C226    1.447   .     S
Cu221  Cu222   2.703   .     S
Cu221  N223    2.031   .     S
Cu222  N224    2.031   .     S
N223   C235    1.379   .     A
N223   C234    1.383   .     A
N224   C236    1.367   .     A
N224   C233    1.367   .     A
C226   C277    1.355   .     S
C226   O291    1.388   .     S
C227   C232    1.407   .     A
C227   N241    1.436   .     S
C228   C231    1.407   .     A
C228   N244    1.436   .     S
C228   C386    1.405   .     S
C229   O247    1.385   .     S
C229   C231    1.402   .     A
C229   C383    1.405   .     S
C230   C232    1.402   .     A
C230   O249    1.385   .     S
C233   O251    1.381   .     S
C233   C1171   1.440   1_554 S
C234   O253    1.376   .     S
C234   C704    1.414   .     S
C235   N255    1.428   .     S
C235   C701    1.440   .     S
C236   N258    1.429   .     S
C236   C1170   1.414   1_554 S
O237   C277    1.388   .     S
O237   H290    0.991   .     S
H240   O291    0.990   .     S
N241   O243    1.301   .     A
N241   O242    1.301   .     A
N244   O246    1.301   .     A
N244   O245    1.301   .     A
O247   H248    0.989   .     S
O249   H250    0.989   .     S
O251   H252    0.988   .     S
O253   H254    0.977   .     S
N255   O257    1.300   .     A
N255   O256    1.301   .     A
N258   O260    1.301   .     A
N258   O259    1.300   .     A
O261   C265    1.295   .     A
O261   Cu273   1.953   .     S
O262   C266    1.295   .     A
O262   Cu274   1.953   .     S
O263   Cu274   1.949   .     S
O263   C265    1.295   .     A
O264   C266    1.295   .     A
O264   Cu273   1.949   .     S
C265   C284    1.442   .     S
C266   C283    1.442   .     S
O267   Cu273   1.967   .     S
O267   C271    1.290   .     A
O268   C272    1.290   .     A
O268   Cu274   1.967   .     S
O269   Cu274   1.969   .     S
O269   C271    1.300   .     A
O270   C272    1.300   .     A
O270   Cu273   1.969   .     S
C271   C277    1.447   .     S
C272   C278    1.447   .     S
Cu273  Cu274   2.703   .     S
Cu273  N275    2.031   .     S
Cu274  N276    2.031   .     S
N275   C287    1.379   .     A
N275   C286    1.383   .     A
N276   C288    1.367   .     A
N276   C285    1.367   .     A
C278   C173    1.355   1_655 S
C278   O187    1.388   1_655 S
C279   C284    1.407   .     A
C279   N293    1.436   .     S
C280   C283    1.407   .     A
C280   N296    1.436   .     S
C280   C438    1.405   .     S
C281   O299    1.385   .     S
C281   C283    1.402   .     A
C281   C435    1.405   .     S
C282   C284    1.402   .     A
C282   O301    1.385   .     S
C285   O303    1.381   .     S
C285   C1223   1.440   1_554 S
C286   O305    1.376   .     S
C286   C756    1.414   .     S
C287   N307    1.428   .     S
C287   C753    1.440   .     S
C288   N310    1.429   .     S
C288   C1222   1.414   1_554 S
O289   C173    1.388   1_655 S
O289   H186    0.991   1_655 S
H292   O187    0.990   1_655 S
N293   O295    1.301   .     A
N293   O294    1.301   .     A
N296   O298    1.301   .     A
N296   O297    1.301   .     A
O299   H300    0.989   .     S
O301   H302    0.989   .     S
O303   H304    0.988   .     S
O305   H306    0.977   .     S
N307   O309    1.300   .     A
N307   O308    1.301   .     A
N310   O312    1.301   .     A
N310   O311    1.300   .     A
O313   C317    1.295   .     A
O313   Cu325   1.953   .     S
O314   C318    1.295   .     A
O314   Cu326   1.953   .     S
O315   Cu326   1.949   .     S
O315   C317    1.295   .     A
O316   C318    1.295   .     A
O316   Cu325   1.949   .     S
C317   C336    1.442   .     S
C318   C335    1.442   .     S
O319   Cu325   1.967   .     S
O319   C323    1.290   .     A
O320   C324    1.290   .     A
O320   Cu326   1.967   .     S
O321   Cu326   1.969   .     S
O321   C323    1.300   .     A
O322   C324    1.300   .     A
O322   Cu325   1.969   .     S
C323   C329    1.447   .     S
C324   C330    1.447   .     S
Cu325  Cu326   2.703   .     S
Cu325  N327    2.031   .     S
Cu326  N328    2.031   .     S
N327   C339    1.379   .     A
N327   C338    1.383   .     A
N328   C340    1.367   .     A
N328   C337    1.367   .     A
C329   C434    1.355   1_455 S
C329   O445    1.388   1_455 S
C330   C381    1.355   .     S
C330   O395    1.388   .     S
C331   C336    1.407   .     A
C331   N345    1.436   .     S
C332   C335    1.407   .     A
C332   N348    1.436   .     S
C332   C22     1.405   1_565 S
C333   O351    1.385   .     S
C333   C335    1.402   .     A
C333   C19     1.405   1_565 S
C334   C336    1.402   .     A
C334   O353    1.385   .     S
C337   O355    1.381   .     S
C337   C1275   1.440   1_554 S
C338   O357    1.376   .     S
C338   C808    1.414   .     S
C339   N359    1.428   .     S
C339   C805    1.440   .     S
C340   N362    1.429   .     S
C340   C1274   1.414   1_554 S
O341   C381    1.388   .     S
O341   H394    0.991   .     S
H342   O445    0.991   1_455 S
O343   C434    1.388   1_455 S
O343   H448    0.990   1_455 S
H344   O395    0.990   .     S
N345   O347    1.301   .     A
N345   O346    1.301   .     A
N348   O350    1.301   .     A
N348   O349    1.301   .     A
O351   H352    0.989   .     S
O353   H354    0.989   .     S
O355   H356    0.988   .     S
O357   H358    0.977   .     S
N359   O361    1.300   .     A
N359   O360    1.301   .     A
N362   O364    1.301   .     A
N362   O363    1.300   .     A
O365   C369    1.295   .     A
O365   Cu377   1.953   .     S
O366   C370    1.295   .     A
O366   Cu378   1.953   .     S
O367   Cu378   1.949   .     S
O367   C369    1.295   .     A
O368   C370    1.295   .     A
O368   Cu377   1.949   .     S
C369   C388    1.442   .     S
C370   C387    1.442   .     S
O371   Cu377   1.967   .     S
O371   C375    1.290   .     A
O372   C376    1.290   .     A
O372   Cu378   1.967   .     S
O373   Cu378   1.969   .     S
O373   C375    1.300   .     A
O374   C376    1.300   .     A
O374   Cu377   1.969   .     S
C375   C381    1.447   .     S
C376   C382    1.447   .     S
Cu377  Cu378   2.703   .     S
Cu377  N379    2.031   .     S
Cu378  N380    2.031   .     S
N379   C391    1.379   .     A
N379   C390    1.383   .     A
N380   C392    1.367   .     A
N380   C389    1.367   .     A
C382   C433    1.355   .     S
C382   O447    1.388   .     S
C383   C388    1.407   .     A
C383   N397    1.436   .     S
C384   C387    1.407   .     A
C384   N400    1.436   .     S
C384   C74     1.405   1_565 S
C385   O403    1.385   .     S
C385   C387    1.402   .     A
C385   C71     1.405   1_565 S
C386   C388    1.402   .     A
C386   O405    1.385   .     S
C389   O407    1.381   .     S
C389   C1327   1.440   1_554 S
C390   O409    1.376   .     S
C390   C860    1.414   .     S
C391   N411    1.428   .     S
C391   C857    1.440   .     S
C392   N414    1.429   .     S
C392   C1326   1.414   1_554 S
O393   C433    1.388   .     S
O393   H446    0.991   .     S
H396   O447    0.990   .     S
N397   O399    1.301   .     A
N397   O398    1.301   .     A
N400   O402    1.301   .     A
N400   O401    1.301   .     A
O403   H404    0.989   .     S
O405   H406    0.989   .     S
O407   H408    0.988   .     S
O409   H410    0.977   .     S
N411   O413    1.300   .     A
N411   O412    1.301   .     A
N414   O416    1.301   .     A
N414   O415    1.300   .     A
O417   C421    1.295   .     A
O417   Cu429   1.953   .     S
O418   C422    1.295   .     A
O418   Cu430   1.953   .     S
O419   Cu430   1.949   .     S
O419   C421    1.295   .     A
O420   C422    1.295   .     A
O420   Cu429   1.949   .     S
C421   C440    1.442   .     S
C422   C439    1.442   .     S
O423   Cu429   1.967   .     S
O423   C427    1.290   .     A
O424   C428    1.290   .     A
O424   Cu430   1.967   .     S
O425   Cu430   1.969   .     S
O425   C427    1.300   .     A
O426   C428    1.300   .     A
O426   Cu429   1.969   .     S
C427   C433    1.447   .     S
C428   C434    1.447   .     S
Cu429  Cu430   2.703   .     S
Cu429  N431    2.031   .     S
Cu430  N432    2.031   .     S
N431   C443    1.379   .     A
N431   C442    1.383   .     A
N432   C444    1.367   .     A
N432   C441    1.367   .     A
C434   C329    1.355   1_655 S
C434   O343    1.388   1_655 S
C435   C440    1.407   .     A
C435   N449    1.436   .     S
C436   C439    1.407   .     A
C436   N452    1.436   .     S
C436   C126    1.405   1_565 S
C437   O455    1.385   .     S
C437   C439    1.402   .     A
C437   C123    1.405   1_565 S
C438   C440    1.402   .     A
C438   O457    1.385   .     S
C441   O459    1.381   .     S
C441   C1379   1.440   1_554 S
C442   O461    1.376   .     S
C442   C912    1.414   .     S
C443   N463    1.428   .     S
C443   C909    1.440   .     S
C444   N466    1.429   .     S
C444   C1378   1.414   1_554 S
O445   C329    1.388   1_655 S
O445   H342    0.991   1_655 S
H448   O343    0.990   1_655 S
N449   O451    1.301   .     A
N449   O450    1.301   .     A
N452   O454    1.301   .     A
N452   O453    1.301   .     A
O455   H456    0.989   .     S
O457   H458    0.989   .     S
O459   H460    0.988   .     S
O461   H462    0.977   .     S
N463   O465    1.300   .     A
N463   O464    1.301   .     A
N466   O468    1.301   .     A
N466   O467    1.300   .     A
O469   C473    1.295   .     A
O469   Cu481   1.953   .     S
O470   C474    1.295   .     A
O470   Cu482   1.953   .     S
O471   Cu482   1.949   .     S
O471   C473    1.295   .     A
O472   C474    1.295   .     A
O472   Cu481   1.949   .     S
C473   C492    1.442   .     S
C474   C491    1.442   .     S
O475   Cu481   1.967   .     S
O475   C479    1.290   .     A
O476   C480    1.290   .     A
O476   Cu482   1.967   .     S
O477   Cu482   1.969   .     S
O477   C479    1.300   .     A
O478   C480    1.300   .     A
O478   Cu481   1.969   .     S
C479   C485    1.447   .     S
C480   C486    1.447   .     S
Cu481  Cu482   2.703   .     S
Cu481  N483    2.031   .     S
Cu482  N484    2.031   .     S
N483   C495    1.379   .     A
N483   C494    1.383   .     A
N484   C496    1.367   .     A
N484   C493    1.367   .     A
C485   C590    1.355   1_455 S
C485   O601    1.388   1_455 S
C486   C537    1.355   .     S
C486   O551    1.388   .     S
C487   C492    1.407   .     A
C487   N501    1.436   .     S
C487   C801    1.405   1_545 S
C488   C491    1.407   .     A
C488   N504    1.436   .     S
C488   C646    1.405   .     S
C489   O507    1.385   .     S
C489   C491    1.402   .     A
C489   C643    1.405   .     S
C490   C492    1.402   .     A
C490   O509    1.385   .     S
C490   C800    1.405   1_545 S
C493   O511    1.381   .     S
C494   O513    1.376   .     S
C494   C964    1.414   .     S
C495   N515    1.428   .     S
C495   C961    1.440   .     S
C496   N518    1.429   .     S
O497   C537    1.388   .     S
O497   H550    0.991   .     S
H498   O601    0.991   1_455 S
O499   C590    1.388   1_455 S
O499   H604    0.990   1_455 S
H500   O551    0.990   .     S
N501   O503    1.301   .     A
N501   O502    1.301   .     A
N504   O506    1.301   .     A
N504   O505    1.301   .     A
O507   H508    0.989   .     S
O509   H510    0.989   .     S
O511   H512    0.988   .     S
O513   H514    0.977   .     S
N515   O517    1.300   .     A
N515   O516    1.301   .     A
N518   O520    1.301   .     A
N518   O519    1.300   .     A
O521   C525    1.295   .     A
O521   Cu533   1.953   .     S
O522   C526    1.295   .     A
O522   Cu534   1.953   .     S
O523   Cu534   1.949   .     S
O523   C525    1.295   .     A
O524   C526    1.295   .     A
O524   Cu533   1.949   .     S
C525   C544    1.442   .     S
C526   C543    1.442   .     S
O527   Cu533   1.967   .     S
O527   C531    1.290   .     A
O528   C532    1.290   .     A
O528   Cu534   1.967   .     S
O529   Cu534   1.969   .     S
O529   C531    1.300   .     A
O530   C532    1.300   .     A
O530   Cu533   1.969   .     S
C531   C537    1.447   .     S
C532   C538    1.447   .     S
Cu533  Cu534   2.703   .     S
Cu533  N535    2.031   .     S
Cu534  N536    2.031   .     S
N535   C547    1.379   .     A
N535   C546    1.383   .     A
N536   C548    1.367   .     A
N536   C545    1.367   .     A
C538   C589    1.355   .     S
C538   O603    1.388   .     S
C539   C544    1.407   .     A
C539   N553    1.436   .     S
C539   C853    1.405   1_545 S
C540   C543    1.407   .     A
C540   N556    1.436   .     S
C540   C698    1.405   .     S
C541   O559    1.385   .     S
C541   C543    1.402   .     A
C541   C695    1.405   .     S
C542   C544    1.402   .     A
C542   O561    1.385   .     S
C542   C852    1.405   1_545 S
C545   O563    1.381   .     S
C546   O565    1.376   .     S
C546   C1016   1.414   .     S
C547   N567    1.428   .     S
C547   C1013   1.440   .     S
C548   N570    1.429   .     S
O549   C589    1.388   .     S
O549   H602    0.991   .     S
H552   O603    0.990   .     S
N553   O555    1.301   .     A
N553   O554    1.301   .     A
N556   O558    1.301   .     A
N556   O557    1.301   .     A
O559   H560    0.989   .     S
O561   H562    0.989   .     S
O563   H564    0.988   .     S
O565   H566    0.977   .     S
N567   O569    1.300   .     A
N567   O568    1.301   .     A
N570   O572    1.301   .     A
N570   O571    1.300   .     A
O573   C577    1.295   .     A
O573   Cu585   1.953   .     S
O574   C578    1.295   .     A
O574   Cu586   1.953   .     S
O575   Cu586   1.949   .     S
O575   C577    1.295   .     A
O576   C578    1.295   .     A
O576   Cu585   1.949   .     S
C577   C596    1.442   .     S
C578   C595    1.442   .     S
O579   Cu585   1.967   .     S
O579   C583    1.290   .     A
O580   C584    1.290   .     A
O580   Cu586   1.967   .     S
O581   Cu586   1.969   .     S
O581   C583    1.300   .     A
O582   C584    1.300   .     A
O582   Cu585   1.969   .     S
C583   C589    1.447   .     S
C584   C590    1.447   .     S
Cu585  Cu586   2.703   .     S
Cu585  N587    2.031   .     S
Cu586  N588    2.031   .     S
N587   C599    1.379   .     A
N587   C598    1.383   .     A
N588   C600    1.367   .     A
N588   C597    1.367   .     A
C590   C485    1.355   1_655 S
C590   O499    1.388   1_655 S
C591   C596    1.407   .     A
C591   N605    1.436   .     S
C591   C905    1.405   1_545 S
C592   C595    1.407   .     A
C592   N608    1.436   .     S
C592   C750    1.405   .     S
C593   O611    1.385   .     S
C593   C595    1.402   .     A
C593   C747    1.405   .     S
C594   C596    1.402   .     A
C594   O613    1.385   .     S
C594   C904    1.405   1_545 S
C597   O615    1.381   .     S
C598   O617    1.376   .     S
C598   C1068   1.414   .     S
C599   N619    1.428   .     S
C599   C1065   1.440   .     S
C600   N622    1.429   .     S
O601   C485    1.388   1_655 S
O601   H498    0.991   1_655 S
H604   O499    0.990   1_655 S
N605   O607    1.301   .     A
N605   O606    1.301   .     A
N608   O610    1.301   .     A
N608   O609    1.301   .     A
O611   H612    0.989   .     S
O613   H614    0.989   .     S
O615   H616    0.988   .     S
O617   H618    0.977   .     S
N619   O621    1.300   .     A
N619   O620    1.301   .     A
N622   O624    1.301   .     A
N622   O623    1.300   .     A
O625   C629    1.295   .     A
O625   Cu637   1.953   .     S
O626   C630    1.295   .     A
O626   Cu638   1.953   .     S
O627   Cu638   1.949   .     S
O627   C629    1.295   .     A
O628   C630    1.295   .     A
O628   Cu637   1.949   .     S
C629   C648    1.442   .     S
C630   C647    1.442   .     S
O631   Cu637   1.967   .     S
O631   C635    1.290   .     A
O632   C636    1.290   .     A
O632   Cu638   1.967   .     S
O633   Cu638   1.969   .     S
O633   C635    1.300   .     A
O634   C636    1.300   .     A
O634   Cu637   1.969   .     S
C635   C641    1.447   .     S
C636   C642    1.447   .     S
Cu637  Cu638   2.703   .     S
Cu637  N639    2.031   .     S
Cu638  N640    2.031   .     S
N639   C651    1.379   .     A
N639   C650    1.383   .     A
N640   C652    1.367   .     A
N640   C649    1.367   .     A
C641   C746    1.355   1_455 S
C641   O757    1.388   1_455 S
C642   C693    1.355   .     S
C642   O707    1.388   .     S
C643   C648    1.407   .     A
C643   N657    1.436   .     S
C644   C647    1.407   .     A
C644   N660    1.436   .     S
C644   C802    1.405   .     S
C645   O663    1.385   .     S
C645   C647    1.402   .     A
C645   C799    1.405   .     S
C646   C648    1.402   .     A
C646   O665    1.385   .     S
C649   O667    1.381   .     S
C650   O669    1.376   .     S
C650   C1120   1.414   .     S
C651   N671    1.428   .     S
C651   C1117   1.440   .     S
C652   N674    1.429   .     S
O653   C693    1.388   .     S
O653   H706    0.991   .     S
H654   O757    0.991   1_455 S
O655   C746    1.388   1_455 S
O655   H760    0.990   1_455 S
H656   O707    0.990   .     S
N657   O659    1.301   .     A
N657   O658    1.301   .     A
N660   O662    1.301   .     A
N660   O661    1.301   .     A
O663   H664    0.989   .     S
O665   H666    0.989   .     S
O667   H668    0.988   .     S
O669   H670    0.977   .     S
N671   O673    1.300   .     A
N671   O672    1.301   .     A
N674   O676    1.301   .     A
N674   O675    1.300   .     A
O677   C681    1.295   .     A
O677   Cu689   1.953   .     S
O678   C682    1.295   .     A
O678   Cu690   1.953   .     S
O679   Cu690   1.949   .     S
O679   C681    1.295   .     A
O680   C682    1.295   .     A
O680   Cu689   1.949   .     S
C681   C700    1.442   .     S
C682   C699    1.442   .     S
O683   Cu689   1.967   .     S
O683   C687    1.290   .     A
O684   C688    1.290   .     A
O684   Cu690   1.967   .     S
O685   Cu690   1.969   .     S
O685   C687    1.300   .     A
O686   C688    1.300   .     A
O686   Cu689   1.969   .     S
C687   C693    1.447   .     S
C688   C694    1.447   .     S
Cu689  Cu690   2.703   .     S
Cu689  N691    2.031   .     S
Cu690  N692    2.031   .     S
N691   C703    1.379   .     A
N691   C702    1.383   .     A
N692   C704    1.367   .     A
N692   C701    1.367   .     A
C694   C745    1.355   .     S
C694   O759    1.388   .     S
C695   C700    1.407   .     A
C695   N709    1.436   .     S
C696   C699    1.407   .     A
C696   N712    1.436   .     S
C696   C854    1.405   .     S
C697   O715    1.385   .     S
C697   C699    1.402   .     A
C697   C851    1.405   .     S
C698   C700    1.402   .     A
C698   O717    1.385   .     S
C701   O719    1.381   .     S
C702   O721    1.376   .     S
C702   C1172   1.414   .     S
C703   N723    1.428   .     S
C703   C1169   1.440   .     S
C704   N726    1.429   .     S
O705   C745    1.388   .     S
O705   H758    0.991   .     S
H708   O759    0.990   .     S
N709   O711    1.301   .     A
N709   O710    1.301   .     A
N712   O714    1.301   .     A
N712   O713    1.301   .     A
O715   H716    0.989   .     S
O717   H718    0.989   .     S
O719   H720    0.988   .     S
O721   H722    0.977   .     S
N723   O725    1.300   .     A
N723   O724    1.301   .     A
N726   O728    1.301   .     A
N726   O727    1.300   .     A
O729   C733    1.295   .     A
O729   Cu741   1.953   .     S
O730   C734    1.295   .     A
O730   Cu742   1.953   .     S
O731   Cu742   1.949   .     S
O731   C733    1.295   .     A
O732   C734    1.295   .     A
O732   Cu741   1.949   .     S
C733   C752    1.442   .     S
C734   C751    1.442   .     S
O735   Cu741   1.967   .     S
O735   C739    1.290   .     A
O736   C740    1.290   .     A
O736   Cu742   1.967   .     S
O737   Cu742   1.969   .     S
O737   C739    1.300   .     A
O738   C740    1.300   .     A
O738   Cu741   1.969   .     S
C739   C745    1.447   .     S
C740   C746    1.447   .     S
Cu741  Cu742   2.703   .     S
Cu741  N743    2.031   .     S
Cu742  N744    2.031   .     S
N743   C755    1.379   .     A
N743   C754    1.383   .     A
N744   C756    1.367   .     A
N744   C753    1.367   .     A
C746   C641    1.355   1_655 S
C746   O655    1.388   1_655 S
C747   C752    1.407   .     A
C747   N761    1.436   .     S
C748   C751    1.407   .     A
C748   N764    1.436   .     S
C748   C906    1.405   .     S
C749   O767    1.385   .     S
C749   C751    1.402   .     A
C749   C903    1.405   .     S
C750   C752    1.402   .     A
C750   O769    1.385   .     S
C753   O771    1.381   .     S
C754   O773    1.376   .     S
C754   C1224   1.414   .     S
C755   N775    1.428   .     S
C755   C1221   1.440   .     S
C756   N778    1.429   .     S
O757   C641    1.388   1_655 S
O757   H654    0.991   1_655 S
H760   O655    0.990   1_655 S
N761   O763    1.301   .     A
N761   O762    1.301   .     A
N764   O766    1.301   .     A
N764   O765    1.301   .     A
O767   H768    0.989   .     S
O769   H770    0.989   .     S
O771   H772    0.988   .     S
O773   H774    0.977   .     S
N775   O777    1.300   .     A
N775   O776    1.301   .     A
N778   O780    1.301   .     A
N778   O779    1.300   .     A
O781   C785    1.295   .     A
O781   Cu793   1.953   .     S
O782   C786    1.295   .     A
O782   Cu794   1.953   .     S
O783   Cu794   1.949   .     S
O783   C785    1.295   .     A
O784   C786    1.295   .     A
O784   Cu793   1.949   .     S
C785   C804    1.442   .     S
C786   C803    1.442   .     S
O787   Cu793   1.967   .     S
O787   C791    1.290   .     A
O788   C792    1.290   .     A
O788   Cu794   1.967   .     S
O789   Cu794   1.969   .     S
O789   C791    1.300   .     A
O790   C792    1.300   .     A
O790   Cu793   1.969   .     S
C791   C797    1.447   .     S
C792   C798    1.447   .     S
Cu793  Cu794   2.703   .     S
Cu793  N795    2.031   .     S
Cu794  N796    2.031   .     S
N795   C807    1.379   .     A
N795   C806    1.383   .     A
N796   C808    1.367   .     A
N796   C805    1.367   .     A
C797   C902    1.355   1_455 S
C797   O913    1.388   1_455 S
C798   C849    1.355   .     S
C798   O863    1.388   .     S
C799   C804    1.407   .     A
C799   N813    1.436   .     S
C800   C803    1.407   .     A
C800   N816    1.436   .     S
C800   C490    1.405   1_565 S
C801   O819    1.385   .     S
C801   C803    1.402   .     A
C801   C487    1.405   1_565 S
C802   C804    1.402   .     A
C802   O821    1.385   .     S
C805   O823    1.381   .     S
C806   O825    1.376   .     S
C806   C1276   1.414   .     S
C807   N827    1.428   .     S
C807   C1273   1.440   .     S
C808   N830    1.429   .     S
O809   C849    1.388   .     S
O809   H862    0.991   .     S
H810   O913    0.991   1_455 S
O811   C902    1.388   1_455 S
O811   H916    0.990   1_455 S
H812   O863    0.990   .     S
N813   O815    1.301   .     A
N813   O814    1.301   .     A
N816   O818    1.301   .     A
N816   O817    1.301   .     A
O819   H820    0.989   .     S
O821   H822    0.989   .     S
O823   H824    0.988   .     S
O825   H826    0.977   .     S
N827   O829    1.300   .     A
N827   O828    1.301   .     A
N830   O832    1.301   .     A
N830   O831    1.300   .     A
O833   C837    1.295   .     A
O833   Cu845   1.953   .     S
O834   C838    1.295   .     A
O834   Cu846   1.953   .     S
O835   Cu846   1.949   .     S
O835   C837    1.295   .     A
O836   C838    1.295   .     A
O836   Cu845   1.949   .     S
C837   C856    1.442   .     S
C838   C855    1.442   .     S
O839   Cu845   1.967   .     S
O839   C843    1.290   .     A
O840   C844    1.290   .     A
O840   Cu846   1.967   .     S
O841   Cu846   1.969   .     S
O841   C843    1.300   .     A
O842   C844    1.300   .     A
O842   Cu845   1.969   .     S
C843   C849    1.447   .     S
C844   C850    1.447   .     S
Cu845  Cu846   2.703   .     S
Cu845  N847    2.031   .     S
Cu846  N848    2.031   .     S
N847   C859    1.379   .     A
N847   C858    1.383   .     A
N848   C860    1.367   .     A
N848   C857    1.367   .     A
C850   C901    1.355   .     S
C850   O915    1.388   .     S
C851   C856    1.407   .     A
C851   N865    1.436   .     S
C852   C855    1.407   .     A
C852   N868    1.436   .     S
C852   C542    1.405   1_565 S
C853   O871    1.385   .     S
C853   C855    1.402   .     A
C853   C539    1.405   1_565 S
C854   C856    1.402   .     A
C854   O873    1.385   .     S
C857   O875    1.381   .     S
C858   O877    1.376   .     S
C858   C1328   1.414   .     S
C859   N879    1.428   .     S
C859   C1325   1.440   .     S
C860   N882    1.429   .     S
O861   C901    1.388   .     S
O861   H914    0.991   .     S
H864   O915    0.990   .     S
N865   O867    1.301   .     A
N865   O866    1.301   .     A
N868   O870    1.301   .     A
N868   O869    1.301   .     A
O871   H872    0.989   .     S
O873   H874    0.989   .     S
O875   H876    0.988   .     S
O877   H878    0.977   .     S
N879   O881    1.300   .     A
N879   O880    1.301   .     A
N882   O884    1.301   .     A
N882   O883    1.300   .     A
O885   C889    1.295   .     A
O885   Cu897   1.953   .     S
O886   C890    1.295   .     A
O886   Cu898   1.953   .     S
O887   Cu898   1.949   .     S
O887   C889    1.295   .     A
O888   C890    1.295   .     A
O888   Cu897   1.949   .     S
C889   C908    1.442   .     S
C890   C907    1.442   .     S
O891   Cu897   1.967   .     S
O891   C895    1.290   .     A
O892   C896    1.290   .     A
O892   Cu898   1.967   .     S
O893   Cu898   1.969   .     S
O893   C895    1.300   .     A
O894   C896    1.300   .     A
O894   Cu897   1.969   .     S
C895   C901    1.447   .     S
C896   C902    1.447   .     S
Cu897  Cu898   2.703   .     S
Cu897  N899    2.031   .     S
Cu898  N900    2.031   .     S
N899   C911    1.379   .     A
N899   C910    1.383   .     A
N900   C912    1.367   .     A
N900   C909    1.367   .     A
C902   C797    1.355   1_655 S
C902   O811    1.388   1_655 S
C903   C908    1.407   .     A
C903   N917    1.436   .     S
C904   C907    1.407   .     A
C904   N920    1.436   .     S
C904   C594    1.405   1_565 S
C905   O923    1.385   .     S
C905   C907    1.402   .     A
C905   C591    1.405   1_565 S
C906   C908    1.402   .     A
C906   O925    1.385   .     S
C909   O927    1.381   .     S
C910   O929    1.376   .     S
C910   C1380   1.414   .     S
C911   N931    1.428   .     S
C911   C1377   1.440   .     S
C912   N934    1.429   .     S
O913   C797    1.388   1_655 S
O913   H810    0.991   1_655 S
H916   O811    0.990   1_655 S
N917   O919    1.301   .     A
N917   O918    1.301   .     A
N920   O922    1.301   .     A
N920   O921    1.301   .     A
O923   H924    0.989   .     S
O925   H926    0.989   .     S
O927   H928    0.988   .     S
O929   H930    0.977   .     S
N931   O933    1.300   .     A
N931   O932    1.301   .     A
N934   O936    1.301   .     A
N934   O935    1.300   .     A
O937   C941    1.295   .     A
O937   Cu949   1.953   .     S
O938   C942    1.295   .     A
O938   Cu950   1.953   .     S
O939   Cu950   1.949   .     S
O939   C941    1.295   .     A
O940   C942    1.295   .     A
O940   Cu949   1.949   .     S
C941   C960    1.442   .     S
C942   C959    1.442   .     S
O943   Cu949   1.967   .     S
O943   C947    1.290   .     A
O944   C948    1.290   .     A
O944   Cu950   1.967   .     S
O945   Cu950   1.969   .     S
O945   C947    1.300   .     A
O946   C948    1.300   .     A
O946   Cu949   1.969   .     S
C947   C953    1.447   .     S
C948   C954    1.447   .     S
Cu949  Cu950   2.703   .     S
Cu949  N951    2.031   .     S
Cu950  N952    2.031   .     S
N951   C963    1.379   .     A
N951   C962    1.383   .     A
N952   C964    1.367   .     A
N952   C961    1.367   .     A
C953   C1058   1.355   1_455 S
C953   O1069   1.388   1_455 S
C954   C1005   1.355   .     S
C954   O1019   1.388   .     S
C955   C960    1.407   .     A
C955   N969    1.436   .     S
C955   C1269   1.405   1_545 S
C956   C959    1.407   .     A
C956   N972    1.436   .     S
C956   C1114   1.405   .     S
C957   O975    1.385   .     S
C957   C959    1.402   .     A
C957   C1111   1.405   .     S
C958   C960    1.402   .     A
C958   O977    1.385   .     S
C958   C1268   1.405   1_545 S
C961   O979    1.381   .     S
C962   O981    1.376   .     S
C962   C28     1.414   1_556 S
C963   N983    1.428   .     S
C963   C25     1.440   1_556 S
C964   N986    1.429   .     S
O965   C1005   1.388   .     S
O965   H1018   0.991   .     S
H966   O1069   0.991   1_455 S
O967   C1058   1.388   1_455 S
O967   H1072   0.990   1_455 S
H968   O1019   0.990   .     S
N969   O971    1.301   .     A
N969   O970    1.301   .     A
N972   O974    1.301   .     A
N972   O973    1.301   .     A
O975   H976    0.989   .     S
O977   H978    0.989   .     S
O979   H980    0.988   .     S
O981   H982    0.977   .     S
N983   O985    1.300   .     A
N983   O984    1.301   .     A
N986   O988    1.301   .     A
N986   O987    1.300   .     A
O989   C993    1.295   .     A
O989   Cu1001  1.953   .     S
O990   C994    1.295   .     A
O990   Cu1002  1.953   .     S
O991   Cu1002  1.949   .     S
O991   C993    1.295   .     A
O992   C994    1.295   .     A
O992   Cu1001  1.949   .     S
C993   C1012   1.442   .     S
C994   C1011   1.442   .     S
O995   Cu1001  1.967   .     S
O995   C999    1.290   .     A
O996   C1000   1.290   .     A
O996   Cu1002  1.967   .     S
O997   Cu1002  1.969   .     S
O997   C999    1.300   .     A
O998   C1000   1.300   .     A
O998   Cu1001  1.969   .     S
C999   C1005   1.447   .     S
C1000  C1006   1.447   .     S
Cu1001 Cu1002  2.703   .     S
Cu1001 N1003   2.031   .     S
Cu1002 N1004   2.031   .     S
N1003  C1015   1.379   .     A
N1003  C1014   1.383   .     A
N1004  C1016   1.367   .     A
N1004  C1013   1.367   .     A
C1006  C1057   1.355   .     S
C1006  O1071   1.388   .     S
C1007  C1012   1.407   .     A
C1007  N1021   1.436   .     S
C1007  C1321   1.405   1_545 S
C1008  C1011   1.407   .     A
C1008  N1024   1.436   .     S
C1008  C1166   1.405   .     S
C1009  O1027   1.385   .     S
C1009  C1011   1.402   .     A
C1009  C1163   1.405   .     S
C1010  C1012   1.402   .     A
C1010  O1029   1.385   .     S
C1010  C1320   1.405   1_545 S
C1013  O1031   1.381   .     S
C1014  O1033   1.376   .     S
C1014  C80     1.414   1_556 S
C1015  N1035   1.428   .     S
C1015  C77     1.440   1_556 S
C1016  N1038   1.429   .     S
O1017  C1057   1.388   .     S
O1017  H1070   0.991   .     S
H1020  O1071   0.990   .     S
N1021  O1023   1.301   .     A
N1021  O1022   1.301   .     A
N1024  O1026   1.301   .     A
N1024  O1025   1.301   .     A
O1027  H1028   0.989   .     S
O1029  H1030   0.989   .     S
O1031  H1032   0.988   .     S
O1033  H1034   0.977   .     S
N1035  O1037   1.300   .     A
N1035  O1036   1.301   .     A
N1038  O1040   1.301   .     A
N1038  O1039   1.300   .     A
O1041  C1045   1.295   .     A
O1041  Cu1053  1.953   .     S
O1042  C1046   1.295   .     A
O1042  Cu1054  1.953   .     S
O1043  Cu1054  1.949   .     S
O1043  C1045   1.295   .     A
O1044  C1046   1.295   .     A
O1044  Cu1053  1.949   .     S
C1045  C1064   1.442   .     S
C1046  C1063   1.442   .     S
O1047  Cu1053  1.967   .     S
O1047  C1051   1.290   .     A
O1048  C1052   1.290   .     A
O1048  Cu1054  1.967   .     S
O1049  Cu1054  1.969   .     S
O1049  C1051   1.300   .     A
O1050  C1052   1.300   .     A
O1050  Cu1053  1.969   .     S
C1051  C1057   1.447   .     S
C1052  C1058   1.447   .     S
Cu1053 Cu1054  2.703   .     S
Cu1053 N1055   2.031   .     S
Cu1054 N1056   2.031   .     S
N1055  C1067   1.379   .     A
N1055  C1066   1.383   .     A
N1056  C1068   1.367   .     A
N1056  C1065   1.367   .     A
C1058  C953    1.355   1_655 S
C1058  O967    1.388   1_655 S
C1059  C1064   1.407   .     A
C1059  N1073   1.436   .     S
C1059  C1373   1.405   1_545 S
C1060  C1063   1.407   .     A
C1060  N1076   1.436   .     S
C1060  C1218   1.405   .     S
C1061  O1079   1.385   .     S
C1061  C1063   1.402   .     A
C1061  C1215   1.405   .     S
C1062  C1064   1.402   .     A
C1062  O1081   1.385   .     S
C1062  C1372   1.405   1_545 S
C1065  O1083   1.381   .     S
C1066  O1085   1.376   .     S
C1066  C132    1.414   1_556 S
C1067  N1087   1.428   .     S
C1067  C129    1.440   1_556 S
C1068  N1090   1.429   .     S
O1069  C953    1.388   1_655 S
O1069  H966    0.991   1_655 S
H1072  O967    0.990   1_655 S
N1073  O1075   1.301   .     A
N1073  O1074   1.301   .     A
N1076  O1078   1.301   .     A
N1076  O1077   1.301   .     A
O1079  H1080   0.989   .     S
O1081  H1082   0.989   .     S
O1083  H1084   0.988   .     S
O1085  H1086   0.977   .     S
N1087  O1089   1.300   .     A
N1087  O1088   1.301   .     A
N1090  O1092   1.301   .     A
N1090  O1091   1.300   .     A
O1093  C1097   1.295   .     A
O1093  Cu1105  1.953   .     S
O1094  C1098   1.295   .     A
O1094  Cu1106  1.953   .     S
O1095  Cu1106  1.949   .     S
O1095  C1097   1.295   .     A
O1096  C1098   1.295   .     A
O1096  Cu1105  1.949   .     S
C1097  C1116   1.442   .     S
C1098  C1115   1.442   .     S
O1099  Cu1105  1.967   .     S
O1099  C1103   1.290   .     A
O1100  C1104   1.290   .     A
O1100  Cu1106  1.967   .     S
O1101  Cu1106  1.969   .     S
O1101  C1103   1.300   .     A
O1102  C1104   1.300   .     A
O1102  Cu1105  1.969   .     S
C1103  C1109   1.447   .     S
C1104  C1110   1.447   .     S
Cu1105 Cu1106  2.703   .     S
Cu1105 N1107   2.031   .     S
Cu1106 N1108   2.031   .     S
N1107  C1119   1.379   .     A
N1107  C1118   1.383   .     A
N1108  C1120   1.367   .     A
N1108  C1117   1.367   .     A
C1109  C1214   1.355   1_455 S
C1109  O1225   1.388   1_455 S
C1110  C1161   1.355   .     S
C1110  O1175   1.388   .     S
C1111  C1116   1.407   .     A
C1111  N1125   1.436   .     S
C1112  C1115   1.407   .     A
C1112  N1128   1.436   .     S
C1112  C1270   1.405   .     S
C1113  O1131   1.385   .     S
C1113  C1115   1.402   .     A
C1113  C1267   1.405   .     S
C1114  C1116   1.402   .     A
C1114  O1133   1.385   .     S
C1117  O1135   1.381   .     S
C1118  O1137   1.376   .     S
C1118  C184    1.414   1_556 S
C1119  N1139   1.428   .     S
C1119  C181    1.440   1_556 S
C1120  N1142   1.429   .     S
O1121  C1161   1.388   .     S
O1121  H1174   0.991   .     S
H1122  O1225   0.991   1_455 S
O1123  C1214   1.388   1_455 S
O1123  H1228   0.990   1_455 S
H1124  O1175   0.990   .     S
N1125  O1127   1.301   .     A
N1125  O1126   1.301   .     A
N1128  O1130   1.301   .     A
N1128  O1129   1.301   .     A
O1131  H1132   0.989   .     S
O1133  H1134   0.989   .     S
O1135  H1136   0.988   .     S
O1137  H1138   0.977   .     S
N1139  O1141   1.300   .     A
N1139  O1140   1.301   .     A
N1142  O1144   1.301   .     A
N1142  O1143   1.300   .     A
O1145  C1149   1.295   .     A
O1145  Cu1157  1.953   .     S
O1146  C1150   1.295   .     A
O1146  Cu1158  1.953   .     S
O1147  Cu1158  1.949   .     S
O1147  C1149   1.295   .     A
O1148  C1150   1.295   .     A
O1148  Cu1157  1.949   .     S
C1149  C1168   1.442   .     S
C1150  C1167   1.442   .     S
O1151  Cu1157  1.967   .     S
O1151  C1155   1.290   .     A
O1152  C1156   1.290   .     A
O1152  Cu1158  1.967   .     S
O1153  Cu1158  1.969   .     S
O1153  C1155   1.300   .     A
O1154  C1156   1.300   .     A
O1154  Cu1157  1.969   .     S
C1155  C1161   1.447   .     S
C1156  C1162   1.447   .     S
Cu1157 Cu1158  2.703   .     S
Cu1157 N1159   2.031   .     S
Cu1158 N1160   2.031   .     S
N1159  C1171   1.379   .     A
N1159  C1170   1.383   .     A
N1160  C1172   1.367   .     A
N1160  C1169   1.367   .     A
C1162  C1213   1.355   .     S
C1162  O1227   1.388   .     S
C1163  C1168   1.407   .     A
C1163  N1177   1.436   .     S
C1164  C1167   1.407   .     A
C1164  N1180   1.436   .     S
C1164  C1322   1.405   .     S
C1165  O1183   1.385   .     S
C1165  C1167   1.402   .     A
C1165  C1319   1.405   .     S
C1166  C1168   1.402   .     A
C1166  O1185   1.385   .     S
C1169  O1187   1.381   .     S
C1170  O1189   1.376   .     S
C1170  C236    1.414   1_556 S
C1171  N1191   1.428   .     S
C1171  C233    1.440   1_556 S
C1172  N1194   1.429   .     S
O1173  C1213   1.388   .     S
O1173  H1226   0.991   .     S
H1176  O1227   0.990   .     S
N1177  O1179   1.301   .     A
N1177  O1178   1.301   .     A
N1180  O1182   1.301   .     A
N1180  O1181   1.301   .     A
O1183  H1184   0.989   .     S
O1185  H1186   0.989   .     S
O1187  H1188   0.988   .     S
O1189  H1190   0.977   .     S
N1191  O1193   1.300   .     A
N1191  O1192   1.301   .     A
N1194  O1196   1.301   .     A
N1194  O1195   1.300   .     A
O1197  C1201   1.295   .     A
O1197  Cu1209  1.953   .     S
O1198  C1202   1.295   .     A
O1198  Cu1210  1.953   .     S
O1199  Cu1210  1.949   .     S
O1199  C1201   1.295   .     A
O1200  C1202   1.295   .     A
O1200  Cu1209  1.949   .     S
C1201  C1220   1.442   .     S
C1202  C1219   1.442   .     S
O1203  Cu1209  1.967   .     S
O1203  C1207   1.290   .     A
O1204  C1208   1.290   .     A
O1204  Cu1210  1.967   .     S
O1205  Cu1210  1.969   .     S
O1205  C1207   1.300   .     A
O1206  C1208   1.300   .     A
O1206  Cu1209  1.969   .     S
C1207  C1213   1.447   .     S
C1208  C1214   1.447   .     S
Cu1209 Cu1210  2.703   .     S
Cu1209 N1211   2.031   .     S
Cu1210 N1212   2.031   .     S
N1211  C1223   1.379   .     A
N1211  C1222   1.383   .     A
N1212  C1224   1.367   .     A
N1212  C1221   1.367   .     A
C1214  C1109   1.355   1_655 S
C1214  O1123   1.388   1_655 S
C1215  C1220   1.407   .     A
C1215  N1229   1.436   .     S
C1216  C1219   1.407   .     A
C1216  N1232   1.436   .     S
C1216  C1374   1.405   .     S
C1217  O1235   1.385   .     S
C1217  C1219   1.402   .     A
C1217  C1371   1.405   .     S
C1218  C1220   1.402   .     A
C1218  O1237   1.385   .     S
C1221  O1239   1.381   .     S
C1222  O1241   1.376   .     S
C1222  C288    1.414   1_556 S
C1223  N1243   1.428   .     S
C1223  C285    1.440   1_556 S
C1224  N1246   1.429   .     S
O1225  C1109   1.388   1_655 S
O1225  H1122   0.991   1_655 S
H1228  O1123   0.990   1_655 S
N1229  O1231   1.301   .     A
N1229  O1230   1.301   .     A
N1232  O1234   1.301   .     A
N1232  O1233   1.301   .     A
O1235  H1236   0.989   .     S
O1237  H1238   0.989   .     S
O1239  H1240   0.988   .     S
O1241  H1242   0.977   .     S
N1243  O1245   1.300   .     A
N1243  O1244   1.301   .     A
N1246  O1248   1.301   .     A
N1246  O1247   1.300   .     A
O1249  C1253   1.295   .     A
O1249  Cu1261  1.953   .     S
O1250  C1254   1.295   .     A
O1250  Cu1262  1.953   .     S
O1251  Cu1262  1.949   .     S
O1251  C1253   1.295   .     A
O1252  C1254   1.295   .     A
O1252  Cu1261  1.949   .     S
C1253  C1272   1.442   .     S
C1254  C1271   1.442   .     S
O1255  Cu1261  1.967   .     S
O1255  C1259   1.290   .     A
O1256  C1260   1.290   .     A
O1256  Cu1262  1.967   .     S
O1257  Cu1262  1.969   .     S
O1257  C1259   1.300   .     A
O1258  C1260   1.300   .     A
O1258  Cu1261  1.969   .     S
C1259  C1265   1.447   .     S
C1260  C1266   1.447   .     S
Cu1261 Cu1262  2.703   .     S
Cu1261 N1263   2.031   .     S
Cu1262 N1264   2.031   .     S
N1263  C1275   1.379   .     A
N1263  C1274   1.383   .     A
N1264  C1276   1.367   .     A
N1264  C1273   1.367   .     A
C1265  C1370   1.355   1_455 S
C1265  O1381   1.388   1_455 S
C1266  C1317   1.355   .     S
C1266  O1331   1.388   .     S
C1267  C1272   1.407   .     A
C1267  N1281   1.436   .     S
C1268  C1271   1.407   .     A
C1268  N1284   1.436   .     S
C1268  C958    1.405   1_565 S
C1269  O1287   1.385   .     S
C1269  C1271   1.402   .     A
C1269  C955    1.405   1_565 S
C1270  C1272   1.402   .     A
C1270  O1289   1.385   .     S
C1273  O1291   1.381   .     S
C1274  O1293   1.376   .     S
C1274  C340    1.414   1_556 S
C1275  N1295   1.428   .     S
C1275  C337    1.440   1_556 S
C1276  N1298   1.429   .     S
O1277  C1317   1.388   .     S
O1277  H1330   0.991   .     S
H1278  O1381   0.991   1_455 S
O1279  C1370   1.388   1_455 S
O1279  H1384   0.990   1_455 S
H1280  O1331   0.990   .     S
N1281  O1283   1.301   .     A
N1281  O1282   1.301   .     A
N1284  O1286   1.301   .     A
N1284  O1285   1.301   .     A
O1287  H1288   0.989   .     S
O1289  H1290   0.989   .     S
O1291  H1292   0.988   .     S
O1293  H1294   0.977   .     S
N1295  O1297   1.300   .     A
N1295  O1296   1.301   .     A
N1298  O1300   1.301   .     A
N1298  O1299   1.300   .     A
O1301  C1305   1.295   .     A
O1301  Cu1313  1.953   .     S
O1302  C1306   1.295   .     A
O1302  Cu1314  1.953   .     S
O1303  Cu1314  1.949   .     S
O1303  C1305   1.295   .     A
O1304  C1306   1.295   .     A
O1304  Cu1313  1.949   .     S
C1305  C1324   1.442   .     S
C1306  C1323   1.442   .     S
O1307  Cu1313  1.967   .     S
O1307  C1311   1.290   .     A
O1308  C1312   1.290   .     A
O1308  Cu1314  1.967   .     S
O1309  Cu1314  1.969   .     S
O1309  C1311   1.300   .     A
O1310  C1312   1.300   .     A
O1310  Cu1313  1.969   .     S
C1311  C1317   1.447   .     S
C1312  C1318   1.447   .     S
Cu1313 Cu1314  2.703   .     S
Cu1313 N1315   2.031   .     S
Cu1314 N1316   2.031   .     S
N1315  C1327   1.379   .     A
N1315  C1326   1.383   .     A
N1316  C1328   1.367   .     A
N1316  C1325   1.367   .     A
C1318  C1369   1.355   .     S
C1318  O1383   1.388   .     S
C1319  C1324   1.407   .     A
C1319  N1333   1.436   .     S
C1320  C1323   1.407   .     A
C1320  N1336   1.436   .     S
C1320  C1010   1.405   1_565 S
C1321  O1339   1.385   .     S
C1321  C1323   1.402   .     A
C1321  C1007   1.405   1_565 S
C1322  C1324   1.402   .     A
C1322  O1341   1.385   .     S
C1325  O1343   1.381   .     S
C1326  O1345   1.376   .     S
C1326  C392    1.414   1_556 S
C1327  N1347   1.428   .     S
C1327  C389    1.440   1_556 S
C1328  N1350   1.429   .     S
O1329  C1369   1.388   .     S
O1329  H1382   0.991   .     S
H1332  O1383   0.990   .     S
N1333  O1335   1.301   .     A
N1333  O1334   1.301   .     A
N1336  O1338   1.301   .     A
N1336  O1337   1.301   .     A
O1339  H1340   0.989   .     S
O1341  H1342   0.989   .     S
O1343  H1344   0.988   .     S
O1345  H1346   0.977   .     S
N1347  O1349   1.300   .     A
N1347  O1348   1.301   .     A
N1350  O1352   1.301   .     A
N1350  O1351   1.300   .     A
O1353  C1357   1.295   .     A
O1353  Cu1365  1.953   .     S
O1354  C1358   1.295   .     A
O1354  Cu1366  1.953   .     S
O1355  Cu1366  1.949   .     S
O1355  C1357   1.295   .     A
O1356  C1358   1.295   .     A
O1356  Cu1365  1.949   .     S
C1357  C1376   1.442   .     S
C1358  C1375   1.442   .     S
O1359  Cu1365  1.967   .     S
O1359  C1363   1.290   .     A
O1360  C1364   1.290   .     A
O1360  Cu1366  1.967   .     S
O1361  Cu1366  1.969   .     S
O1361  C1363   1.300   .     A
O1362  C1364   1.300   .     A
O1362  Cu1365  1.969   .     S
C1363  C1369   1.447   .     S
C1364  C1370   1.447   .     S
Cu1365 Cu1366  2.703   .     S
Cu1365 N1367   2.031   .     S
Cu1366 N1368   2.031   .     S
N1367  C1379   1.379   .     A
N1367  C1378   1.383   .     A
N1368  C1380   1.367   .     A
N1368  C1377   1.367   .     A
C1370  C1265   1.355   1_655 S
C1370  O1279   1.388   1_655 S
C1371  C1376   1.407   .     A
C1371  N1385   1.436   .     S
C1372  C1375   1.407   .     A
C1372  N1388   1.436   .     S
C1372  C1062   1.405   1_565 S
C1373  O1391   1.385   .     S
C1373  C1375   1.402   .     A
C1373  C1059   1.405   1_565 S
C1374  C1376   1.402   .     A
C1374  O1393   1.385   .     S
C1377  O1395   1.381   .     S
C1378  O1397   1.376   .     S
C1378  C444    1.414   1_556 S
C1379  N1399   1.428   .     S
C1379  C441    1.440   1_556 S
C1380  N1402   1.429   .     S
O1381  C1265   1.388   1_655 S
O1381  H1278   0.991   1_655 S
H1384  O1279   0.990   1_655 S
N1385  O1387   1.301   .     A
N1385  O1386   1.301   .     A
N1388  O1390   1.301   .     A
N1388  O1389   1.301   .     A
O1391  H1392   0.989   .     S
O1393  H1394   0.989   .     S
O1395  H1396   0.988   .     S
O1397  H1398   0.977   .     S
N1399  O1401   1.300   .     A
N1399  O1400   1.301   .     A
N1402  O1404   1.301   .     A
N1402  O1403   1.300   .     A
