data_str_m3_o1_o17_pcu_sym.162
_audit_creation_date              2020-01-03
_audit_creation_method            'Materials Studio'
_symmetry_space_group_name_H-M    'P1'
_symmetry_Int_Tables_number       1
_symmetry_cell_setting            triclinic
loop_
_symmetry_equiv_pos_as_xyz
  x,y,z
_cell_length_a                    31.8600
_cell_length_b                    29.5101
_cell_length_c                    30.0159
_cell_angle_alpha                 89.9632
_cell_angle_beta                  90.1117
_cell_angle_gamma                 89.9746
loop_
_atom_site_label
_atom_site_type_symbol
_atom_site_fract_x
_atom_site_fract_y
_atom_site_fract_z
_atom_site_U_iso_or_equiv
_atom_site_adp_type
_atom_site_occupancy
C1     C     0.08676   0.16667   0.25000   0.00000  Uiso   1.00
C2     C     0.24657   0.16666   0.25000   0.00000  Uiso   1.00
C3     C     0.16658   0.08392   0.02321   0.00000  Uiso   1.00
C4     C     0.16675   0.24942   0.47679   0.00000  Uiso   1.00
C5     C     0.02164   0.15086   0.21205   0.00000  Uiso   1.00
C6     C     0.31169   0.18248   0.28795   0.00000  Uiso   1.00
C7     C     0.31158   0.15085   0.21205   0.00000  Uiso   1.00
C8     C     0.02176   0.18248   0.28795   0.00000  Uiso   1.00
C9     C     0.29067   0.16665   0.25000   0.00000  Uiso   1.00
C10    C     0.04266   0.16668   0.25000   0.00000  Uiso   1.00
C11    C     0.19087   0.02395   0.27959   0.00000  Uiso   1.00
C12    C     0.14246   0.30938   0.22041   0.00000  Uiso   1.00
C13    C     0.14246   0.02402   0.22041   0.00000  Uiso   1.00
C14    C     0.19087   0.30931   0.27959   0.00000  Uiso   1.00
C15    C     0.16661   0.16668   0.16327   0.00000  Uiso   1.00
C16    C     0.16673   0.16665   0.33673   0.00000  Uiso   1.00
C17    C     0.16683   0.20794   0.40755   0.00000  Uiso   1.00
C18    C     0.16650   0.12540   0.09245   0.00000  Uiso   1.00
C19    C     0.16679   0.16665   0.38468   0.00000  Uiso   1.00
C20    C     0.16654   0.16669   0.11531   0.00000  Uiso   1.00
C21    C     0.16679   0.12537   0.40761   0.00000  Uiso   1.00
C22    C     0.16655   0.20797   0.09239   0.00000  Uiso   1.00
C23    C     0.16673   0.12506   0.45369   0.00000  Uiso   1.00
C24    C     0.16660   0.20827   0.04631   0.00000  Uiso   1.00
C25    C     0.16671   0.16666   0.47683   0.00000  Uiso   1.00
C26    C     0.16662   0.16667   0.02317   0.00000  Uiso   1.00
C27    C     0.16677   0.20826   0.45362   0.00000  Uiso   1.00
C28    C     0.16656   0.12508   0.04638   0.00000  Uiso   1.00
C29    C     0.16667   0.08391   0.47692   0.00000  Uiso   1.00
C30    C     0.16666   0.24943   0.02308   0.00000  Uiso   1.00
H31    H     0.16687   0.23985   0.38959   0.00000  Uiso   1.00
H32    H     0.16646   0.09349   0.11041   0.00000  Uiso   1.00
H33    H     0.16680   0.09345   0.38970   0.00000  Uiso   1.00
H34    H     0.16654   0.23988   0.11030   0.00000  Uiso   1.00
H35    H     0.16669   0.05184   0.45933   0.00000  Uiso   1.00
H36    H     0.16665   0.28149   0.04067   0.00000  Uiso   1.00
H37    H     0.16654   0.05185   0.04085   0.00000  Uiso   1.00
H38    H     0.16680   0.28148   0.45914   0.00000  Uiso   1.00
H39    H     0.21023   0.04212   0.30323   0.00000  Uiso   1.00
H40    H     0.12310   0.29121   0.19677   0.00000  Uiso   1.00
H41    H     0.12310   0.04224   0.19677   0.00000  Uiso   1.00
H42    H     0.21023   0.29109   0.30323   0.00000  Uiso   1.00
N43    N     0.16667   0.28573   0.25000   0.00000  Uiso   1.00
N44    N     0.16667   0.04760   0.25000   0.00000  Uiso   1.00
O45    O     0.10559   0.20487   0.24999   0.00000  Uiso   1.00
O46    O     0.22774   0.12846   0.25000   0.00000  Uiso   1.00
O47    O     0.22774   0.20487   0.25000   0.00000  Uiso   1.00
O48    O     0.10559   0.12846   0.24999   0.00000  Uiso   1.00
O49    O     0.16666   0.20489   0.18392   0.00000  Uiso   1.00
O50    O     0.16667   0.12844   0.31607   0.00000  Uiso   1.00
O51    O     0.16667   0.20489   0.31607   0.00000  Uiso   1.00
O52    O     0.16666   0.12844   0.18392   0.00000  Uiso   1.00
Zn53   Zn    0.16667   0.21771   0.25000   0.00000  Uiso   1.00
Zn54   Zn    0.16667   0.11563   0.25000   0.00000  Uiso   1.00
Br55   Br    0.05216   0.13084   0.16000   0.00000  Uiso   1.00
Br56   Br    0.28118   0.20249   0.34000   0.00000  Uiso   1.00
Br57   Br    0.28090   0.13091   0.15996   0.00000  Uiso   1.00
Br58   Br    0.05243   0.20242   0.34003   0.00000  Uiso   1.00
C59    C     0.42010   0.16667   0.25000   0.00000  Uiso   1.00
C60    C     0.57990   0.16666   0.25000   0.00000  Uiso   1.00
C61    C     0.49992   0.08392   0.02321   0.00000  Uiso   1.00
C62    C     0.50008   0.24942   0.47679   0.00000  Uiso   1.00
C63    C     0.35497   0.15086   0.21205   0.00000  Uiso   1.00
C64    C     0.64503   0.18248   0.28795   0.00000  Uiso   1.00
C65    C     0.64491   0.15085   0.21205   0.00000  Uiso   1.00
C66    C     0.35509   0.18248   0.28795   0.00000  Uiso   1.00
C67    C     0.62401   0.16665   0.25000   0.00000  Uiso   1.00
C68    C     0.37599   0.16668   0.25000   0.00000  Uiso   1.00
C69    C     0.52421   0.02395   0.27959   0.00000  Uiso   1.00
C70    C     0.47579   0.30938   0.22041   0.00000  Uiso   1.00
C71    C     0.47579   0.02402   0.22041   0.00000  Uiso   1.00
C72    C     0.52421   0.30931   0.27959   0.00000  Uiso   1.00
C73    C     0.49994   0.16668   0.16327   0.00000  Uiso   1.00
C74    C     0.50006   0.16665   0.33673   0.00000  Uiso   1.00
C75    C     0.50016   0.20794   0.40755   0.00000  Uiso   1.00
C76    C     0.49984   0.12540   0.09245   0.00000  Uiso   1.00
C77    C     0.50013   0.16665   0.38468   0.00000  Uiso   1.00
C78    C     0.49987   0.16669   0.11531   0.00000  Uiso   1.00
C79    C     0.50012   0.12537   0.40761   0.00000  Uiso   1.00
C80    C     0.49988   0.20797   0.09239   0.00000  Uiso   1.00
C81    C     0.50007   0.12506   0.45369   0.00000  Uiso   1.00
C82    C     0.49993   0.20827   0.04631   0.00000  Uiso   1.00
C83    C     0.50004   0.16666   0.47683   0.00000  Uiso   1.00
C84    C     0.49996   0.16667   0.02317   0.00000  Uiso   1.00
C85    C     0.50011   0.20826   0.45362   0.00000  Uiso   1.00
C86    C     0.49989   0.12508   0.04638   0.00000  Uiso   1.00
C87    C     0.50001   0.08391   0.47692   0.00000  Uiso   1.00
C88    C     0.49999   0.24943   0.02308   0.00000  Uiso   1.00
H89    H     0.50020   0.23985   0.38959   0.00000  Uiso   1.00
H90    H     0.49980   0.09349   0.11041   0.00000  Uiso   1.00
H91    H     0.50013   0.09345   0.38970   0.00000  Uiso   1.00
H92    H     0.49987   0.23988   0.11030   0.00000  Uiso   1.00
H93    H     0.50002   0.05184   0.45933   0.00000  Uiso   1.00
H94    H     0.49998   0.28149   0.04067   0.00000  Uiso   1.00
H95    H     0.49987   0.05185   0.04085   0.00000  Uiso   1.00
H96    H     0.50013   0.28148   0.45914   0.00000  Uiso   1.00
H97    H     0.54356   0.04212   0.30323   0.00000  Uiso   1.00
H98    H     0.45644   0.29121   0.19677   0.00000  Uiso   1.00
H99    H     0.45644   0.04224   0.19677   0.00000  Uiso   1.00
H100   H     0.54356   0.29109   0.30323   0.00000  Uiso   1.00
N101   N     0.50000   0.28573   0.25000   0.00000  Uiso   1.00
N102   N     0.50000   0.04760   0.25000   0.00000  Uiso   1.00
O103   O     0.43892   0.20487   0.24999   0.00000  Uiso   1.00
O104   O     0.56108   0.12846   0.25000   0.00000  Uiso   1.00
O105   O     0.56108   0.20487   0.25000   0.00000  Uiso   1.00
O106   O     0.43892   0.12846   0.24999   0.00000  Uiso   1.00
O107   O     0.49999   0.20489   0.18392   0.00000  Uiso   1.00
O108   O     0.50001   0.12844   0.31607   0.00000  Uiso   1.00
O109   O     0.50001   0.20489   0.31607   0.00000  Uiso   1.00
O110   O     0.49999   0.12844   0.18392   0.00000  Uiso   1.00
Zn111  Zn    0.50000   0.21771   0.25000   0.00000  Uiso   1.00
Zn112  Zn    0.50000   0.11563   0.25000   0.00000  Uiso   1.00
Br113  Br    0.38549   0.13084   0.16000   0.00000  Uiso   1.00
Br114  Br    0.61451   0.20249   0.34000   0.00000  Uiso   1.00
Br115  Br    0.61424   0.13091   0.15996   0.00000  Uiso   1.00
Br116  Br    0.38576   0.20242   0.34003   0.00000  Uiso   1.00
C117   C     0.75343   0.16667   0.25000   0.00000  Uiso   1.00
C118   C     0.91324   0.16666   0.25000   0.00000  Uiso   1.00
C119   C     0.83325   0.08392   0.02321   0.00000  Uiso   1.00
C120   C     0.83342   0.24942   0.47679   0.00000  Uiso   1.00
C121   C     0.68830   0.15086   0.21205   0.00000  Uiso   1.00
C122   C     0.97836   0.18248   0.28795   0.00000  Uiso   1.00
C123   C     0.97824   0.15085   0.21205   0.00000  Uiso   1.00
C124   C     0.68842   0.18248   0.28795   0.00000  Uiso   1.00
C125   C     0.95734   0.16665   0.25000   0.00000  Uiso   1.00
C126   C     0.70933   0.16668   0.25000   0.00000  Uiso   1.00
C127   C     0.85754   0.02395   0.27959   0.00000  Uiso   1.00
C128   C     0.80912   0.30938   0.22041   0.00000  Uiso   1.00
C129   C     0.80912   0.02402   0.22041   0.00000  Uiso   1.00
C130   C     0.85754   0.30931   0.27959   0.00000  Uiso   1.00
C131   C     0.83327   0.16668   0.16327   0.00000  Uiso   1.00
C132   C     0.83339   0.16665   0.33673   0.00000  Uiso   1.00
C133   C     0.83349   0.20794   0.40755   0.00000  Uiso   1.00
C134   C     0.83317   0.12540   0.09245   0.00000  Uiso   1.00
C135   C     0.83346   0.16665   0.38468   0.00000  Uiso   1.00
C136   C     0.83321   0.16669   0.11531   0.00000  Uiso   1.00
C137   C     0.83345   0.12537   0.40761   0.00000  Uiso   1.00
C138   C     0.83321   0.20797   0.09239   0.00000  Uiso   1.00
C139   C     0.83340   0.12506   0.45369   0.00000  Uiso   1.00
C140   C     0.83327   0.20827   0.04631   0.00000  Uiso   1.00
C141   C     0.83338   0.16666   0.47683   0.00000  Uiso   1.00
C142   C     0.83329   0.16667   0.02317   0.00000  Uiso   1.00
C143   C     0.83344   0.20826   0.45362   0.00000  Uiso   1.00
C144   C     0.83323   0.12508   0.04638   0.00000  Uiso   1.00
C145   C     0.83334   0.08391   0.47692   0.00000  Uiso   1.00
C146   C     0.83333   0.24943   0.02308   0.00000  Uiso   1.00
H147   H     0.83354   0.23985   0.38959   0.00000  Uiso   1.00
H148   H     0.83313   0.09349   0.11041   0.00000  Uiso   1.00
H149   H     0.83346   0.09345   0.38970   0.00000  Uiso   1.00
H150   H     0.83320   0.23988   0.11030   0.00000  Uiso   1.00
H151   H     0.83335   0.05184   0.45933   0.00000  Uiso   1.00
H152   H     0.83331   0.28149   0.04067   0.00000  Uiso   1.00
H153   H     0.83320   0.05185   0.04085   0.00000  Uiso   1.00
H154   H     0.83346   0.28148   0.45914   0.00000  Uiso   1.00
H155   H     0.87689   0.04212   0.30323   0.00000  Uiso   1.00
H156   H     0.78977   0.29121   0.19677   0.00000  Uiso   1.00
H157   H     0.78977   0.04224   0.19677   0.00000  Uiso   1.00
H158   H     0.87690   0.29109   0.30323   0.00000  Uiso   1.00
N159   N     0.83333   0.28573   0.25000   0.00000  Uiso   1.00
N160   N     0.83333   0.04760   0.25000   0.00000  Uiso   1.00
O161   O     0.77226   0.20487   0.24999   0.00000  Uiso   1.00
O162   O     0.89441   0.12846   0.25000   0.00000  Uiso   1.00
O163   O     0.89441   0.20487   0.25000   0.00000  Uiso   1.00
O164   O     0.77226   0.12846   0.24999   0.00000  Uiso   1.00
O165   O     0.83333   0.20489   0.18392   0.00000  Uiso   1.00
O166   O     0.83334   0.12844   0.31607   0.00000  Uiso   1.00
O167   O     0.83334   0.20489   0.31607   0.00000  Uiso   1.00
O168   O     0.83333   0.12844   0.18392   0.00000  Uiso   1.00
Zn169  Zn    0.83333   0.21771   0.25000   0.00000  Uiso   1.00
Zn170  Zn    0.83333   0.11563   0.25000   0.00000  Uiso   1.00
Br171  Br    0.71882   0.13084   0.16000   0.00000  Uiso   1.00
Br172  Br    0.94784   0.20249   0.34000   0.00000  Uiso   1.00
Br173  Br    0.94757   0.13091   0.15996   0.00000  Uiso   1.00
Br174  Br    0.71910   0.20242   0.34003   0.00000  Uiso   1.00
C175   C     0.08676   0.50001   0.25000   0.00000  Uiso   1.00
C176   C     0.24657   0.49999   0.25000   0.00000  Uiso   1.00
C177   C     0.16658   0.41725   0.02321   0.00000  Uiso   1.00
C178   C     0.16675   0.58275   0.47679   0.00000  Uiso   1.00
C179   C     0.02164   0.48419   0.21205   0.00000  Uiso   1.00
C180   C     0.31169   0.51581   0.28795   0.00000  Uiso   1.00
C181   C     0.31158   0.48418   0.21205   0.00000  Uiso   1.00
C182   C     0.02176   0.51582   0.28795   0.00000  Uiso   1.00
C183   C     0.29067   0.49998   0.25000   0.00000  Uiso   1.00
C184   C     0.04266   0.50002   0.25000   0.00000  Uiso   1.00
C185   C     0.19087   0.35729   0.27959   0.00000  Uiso   1.00
C186   C     0.14246   0.64271   0.22041   0.00000  Uiso   1.00
C187   C     0.14246   0.35736   0.22041   0.00000  Uiso   1.00
C188   C     0.19087   0.64264   0.27959   0.00000  Uiso   1.00
C189   C     0.16661   0.50001   0.16327   0.00000  Uiso   1.00
C190   C     0.16673   0.49999   0.33673   0.00000  Uiso   1.00
C191   C     0.16683   0.54127   0.40755   0.00000  Uiso   1.00
C192   C     0.16650   0.45873   0.09245   0.00000  Uiso   1.00
C193   C     0.16679   0.49998   0.38468   0.00000  Uiso   1.00
C194   C     0.16654   0.50002   0.11531   0.00000  Uiso   1.00
C195   C     0.16679   0.45870   0.40761   0.00000  Uiso   1.00
C196   C     0.16655   0.54130   0.09239   0.00000  Uiso   1.00
C197   C     0.16673   0.45839   0.45369   0.00000  Uiso   1.00
C198   C     0.16660   0.54161   0.04631   0.00000  Uiso   1.00
C199   C     0.16671   0.50000   0.47683   0.00000  Uiso   1.00
C200   C     0.16662   0.50000   0.02317   0.00000  Uiso   1.00
C201   C     0.16677   0.54159   0.45362   0.00000  Uiso   1.00
C202   C     0.16656   0.45841   0.04638   0.00000  Uiso   1.00
C203   C     0.16667   0.41724   0.47692   0.00000  Uiso   1.00
C204   C     0.16666   0.58276   0.02308   0.00000  Uiso   1.00
H205   H     0.16687   0.57318   0.38959   0.00000  Uiso   1.00
H206   H     0.16646   0.42682   0.11041   0.00000  Uiso   1.00
H207   H     0.16680   0.42679   0.38970   0.00000  Uiso   1.00
H208   H     0.16654   0.57321   0.11030   0.00000  Uiso   1.00
H209   H     0.16669   0.38517   0.45933   0.00000  Uiso   1.00
H210   H     0.16665   0.61483   0.04067   0.00000  Uiso   1.00
H211   H     0.16654   0.38519   0.04085   0.00000  Uiso   1.00
H212   H     0.16680   0.61481   0.45914   0.00000  Uiso   1.00
H213   H     0.21023   0.37545   0.30323   0.00000  Uiso   1.00
H214   H     0.12310   0.62455   0.19677   0.00000  Uiso   1.00
H215   H     0.12310   0.37558   0.19677   0.00000  Uiso   1.00
H216   H     0.21023   0.62442   0.30323   0.00000  Uiso   1.00
N217   N     0.16667   0.61907   0.25000   0.00000  Uiso   1.00
N218   N     0.16667   0.38093   0.25000   0.00000  Uiso   1.00
O219   O     0.10559   0.53821   0.24999   0.00000  Uiso   1.00
O220   O     0.22774   0.46179   0.25000   0.00000  Uiso   1.00
O221   O     0.22774   0.53821   0.25000   0.00000  Uiso   1.00
O222   O     0.10559   0.46179   0.24999   0.00000  Uiso   1.00
O223   O     0.16666   0.53823   0.18392   0.00000  Uiso   1.00
O224   O     0.16667   0.46177   0.31607   0.00000  Uiso   1.00
O225   O     0.16667   0.53823   0.31607   0.00000  Uiso   1.00
O226   O     0.16666   0.46177   0.18392   0.00000  Uiso   1.00
Zn227  Zn    0.16667   0.55104   0.25000   0.00000  Uiso   1.00
Zn228  Zn    0.16667   0.44896   0.25000   0.00000  Uiso   1.00
Br229  Br    0.05216   0.46418   0.16000   0.00000  Uiso   1.00
Br230  Br    0.28118   0.53582   0.34000   0.00000  Uiso   1.00
Br231  Br    0.28090   0.46425   0.15996   0.00000  Uiso   1.00
Br232  Br    0.05243   0.53575   0.34003   0.00000  Uiso   1.00
C233   C     0.42010   0.50001   0.25000   0.00000  Uiso   1.00
C234   C     0.57990   0.49999   0.25000   0.00000  Uiso   1.00
C235   C     0.49992   0.41725   0.02321   0.00000  Uiso   1.00
C236   C     0.50008   0.58275   0.47679   0.00000  Uiso   1.00
C237   C     0.35497   0.48419   0.21205   0.00000  Uiso   1.00
C238   C     0.64503   0.51581   0.28795   0.00000  Uiso   1.00
C239   C     0.64491   0.48418   0.21205   0.00000  Uiso   1.00
C240   C     0.35509   0.51582   0.28795   0.00000  Uiso   1.00
C241   C     0.62401   0.49998   0.25000   0.00000  Uiso   1.00
C242   C     0.37599   0.50002   0.25000   0.00000  Uiso   1.00
C243   C     0.52421   0.35729   0.27959   0.00000  Uiso   1.00
C244   C     0.47579   0.64271   0.22041   0.00000  Uiso   1.00
C245   C     0.47579   0.35736   0.22041   0.00000  Uiso   1.00
C246   C     0.52421   0.64264   0.27959   0.00000  Uiso   1.00
C247   C     0.49994   0.50001   0.16327   0.00000  Uiso   1.00
C248   C     0.50006   0.49999   0.33673   0.00000  Uiso   1.00
C249   C     0.50016   0.54127   0.40755   0.00000  Uiso   1.00
C250   C     0.49984   0.45873   0.09245   0.00000  Uiso   1.00
C251   C     0.50013   0.49998   0.38468   0.00000  Uiso   1.00
C252   C     0.49987   0.50002   0.11531   0.00000  Uiso   1.00
C253   C     0.50012   0.45870   0.40761   0.00000  Uiso   1.00
C254   C     0.49988   0.54130   0.09239   0.00000  Uiso   1.00
C255   C     0.50007   0.45839   0.45369   0.00000  Uiso   1.00
C256   C     0.49993   0.54161   0.04631   0.00000  Uiso   1.00
C257   C     0.50004   0.50000   0.47683   0.00000  Uiso   1.00
C258   C     0.49996   0.50000   0.02317   0.00000  Uiso   1.00
C259   C     0.50011   0.54159   0.45362   0.00000  Uiso   1.00
C260   C     0.49989   0.45841   0.04638   0.00000  Uiso   1.00
C261   C     0.50001   0.41724   0.47692   0.00000  Uiso   1.00
C262   C     0.49999   0.58276   0.02308   0.00000  Uiso   1.00
H263   H     0.50020   0.57318   0.38959   0.00000  Uiso   1.00
H264   H     0.49980   0.42682   0.11041   0.00000  Uiso   1.00
H265   H     0.50013   0.42679   0.38970   0.00000  Uiso   1.00
H266   H     0.49987   0.57321   0.11030   0.00000  Uiso   1.00
H267   H     0.50002   0.38517   0.45933   0.00000  Uiso   1.00
H268   H     0.49998   0.61483   0.04067   0.00000  Uiso   1.00
H269   H     0.49987   0.38519   0.04085   0.00000  Uiso   1.00
H270   H     0.50013   0.61481   0.45914   0.00000  Uiso   1.00
H271   H     0.54356   0.37545   0.30323   0.00000  Uiso   1.00
H272   H     0.45644   0.62455   0.19677   0.00000  Uiso   1.00
H273   H     0.45644   0.37558   0.19677   0.00000  Uiso   1.00
H274   H     0.54356   0.62442   0.30323   0.00000  Uiso   1.00
N275   N     0.50000   0.61907   0.25000   0.00000  Uiso   1.00
N276   N     0.50000   0.38093   0.25000   0.00000  Uiso   1.00
O277   O     0.43892   0.53821   0.24999   0.00000  Uiso   1.00
O278   O     0.56108   0.46179   0.25000   0.00000  Uiso   1.00
O279   O     0.56108   0.53821   0.25000   0.00000  Uiso   1.00
O280   O     0.43892   0.46179   0.24999   0.00000  Uiso   1.00
O281   O     0.49999   0.53823   0.18392   0.00000  Uiso   1.00
O282   O     0.50001   0.46177   0.31607   0.00000  Uiso   1.00
O283   O     0.50001   0.53823   0.31607   0.00000  Uiso   1.00
O284   O     0.49999   0.46177   0.18392   0.00000  Uiso   1.00
Zn285  Zn    0.50000   0.55104   0.25000   0.00000  Uiso   1.00
Zn286  Zn    0.50000   0.44896   0.25000   0.00000  Uiso   1.00
Br287  Br    0.38549   0.46418   0.16000   0.00000  Uiso   1.00
Br288  Br    0.61451   0.53582   0.34000   0.00000  Uiso   1.00
Br289  Br    0.61424   0.46425   0.15996   0.00000  Uiso   1.00
Br290  Br    0.38576   0.53575   0.34003   0.00000  Uiso   1.00
C291   C     0.75343   0.50001   0.25000   0.00000  Uiso   1.00
C292   C     0.91324   0.49999   0.25000   0.00000  Uiso   1.00
C293   C     0.83325   0.41725   0.02321   0.00000  Uiso   1.00
C294   C     0.83342   0.58275   0.47679   0.00000  Uiso   1.00
C295   C     0.68830   0.48419   0.21205   0.00000  Uiso   1.00
C296   C     0.97836   0.51581   0.28795   0.00000  Uiso   1.00
C297   C     0.97824   0.48418   0.21205   0.00000  Uiso   1.00
C298   C     0.68842   0.51582   0.28795   0.00000  Uiso   1.00
C299   C     0.95734   0.49998   0.25000   0.00000  Uiso   1.00
C300   C     0.70933   0.50002   0.25000   0.00000  Uiso   1.00
C301   C     0.85754   0.35729   0.27959   0.00000  Uiso   1.00
C302   C     0.80912   0.64271   0.22041   0.00000  Uiso   1.00
C303   C     0.80912   0.35736   0.22041   0.00000  Uiso   1.00
C304   C     0.85754   0.64264   0.27959   0.00000  Uiso   1.00
C305   C     0.83327   0.50001   0.16327   0.00000  Uiso   1.00
C306   C     0.83339   0.49999   0.33673   0.00000  Uiso   1.00
C307   C     0.83349   0.54127   0.40755   0.00000  Uiso   1.00
C308   C     0.83317   0.45873   0.09245   0.00000  Uiso   1.00
C309   C     0.83346   0.49998   0.38468   0.00000  Uiso   1.00
C310   C     0.83321   0.50002   0.11531   0.00000  Uiso   1.00
C311   C     0.83345   0.45870   0.40761   0.00000  Uiso   1.00
C312   C     0.83321   0.54130   0.09239   0.00000  Uiso   1.00
C313   C     0.83340   0.45839   0.45369   0.00000  Uiso   1.00
C314   C     0.83327   0.54161   0.04631   0.00000  Uiso   1.00
C315   C     0.83338   0.50000   0.47683   0.00000  Uiso   1.00
C316   C     0.83329   0.50000   0.02317   0.00000  Uiso   1.00
C317   C     0.83344   0.54159   0.45362   0.00000  Uiso   1.00
C318   C     0.83323   0.45841   0.04638   0.00000  Uiso   1.00
C319   C     0.83334   0.41724   0.47692   0.00000  Uiso   1.00
C320   C     0.83333   0.58276   0.02308   0.00000  Uiso   1.00
H321   H     0.83354   0.57318   0.38959   0.00000  Uiso   1.00
H322   H     0.83313   0.42682   0.11041   0.00000  Uiso   1.00
H323   H     0.83346   0.42679   0.38970   0.00000  Uiso   1.00
H324   H     0.83320   0.57321   0.11030   0.00000  Uiso   1.00
H325   H     0.83335   0.38517   0.45933   0.00000  Uiso   1.00
H326   H     0.83331   0.61483   0.04067   0.00000  Uiso   1.00
H327   H     0.83320   0.38519   0.04085   0.00000  Uiso   1.00
H328   H     0.83346   0.61481   0.45914   0.00000  Uiso   1.00
H329   H     0.87689   0.37545   0.30323   0.00000  Uiso   1.00
H330   H     0.78977   0.62455   0.19677   0.00000  Uiso   1.00
H331   H     0.78977   0.37558   0.19677   0.00000  Uiso   1.00
H332   H     0.87690   0.62442   0.30323   0.00000  Uiso   1.00
N333   N     0.83333   0.61907   0.25000   0.00000  Uiso   1.00
N334   N     0.83333   0.38093   0.25000   0.00000  Uiso   1.00
O335   O     0.77226   0.53821   0.24999   0.00000  Uiso   1.00
O336   O     0.89441   0.46179   0.25000   0.00000  Uiso   1.00
O337   O     0.89441   0.53821   0.25000   0.00000  Uiso   1.00
O338   O     0.77226   0.46179   0.24999   0.00000  Uiso   1.00
O339   O     0.83333   0.53823   0.18392   0.00000  Uiso   1.00
O340   O     0.83334   0.46177   0.31607   0.00000  Uiso   1.00
O341   O     0.83334   0.53823   0.31607   0.00000  Uiso   1.00
O342   O     0.83333   0.46177   0.18392   0.00000  Uiso   1.00
Zn343  Zn    0.83333   0.55104   0.25000   0.00000  Uiso   1.00
Zn344  Zn    0.83333   0.44896   0.25000   0.00000  Uiso   1.00
Br345  Br    0.71882   0.46418   0.16000   0.00000  Uiso   1.00
Br346  Br    0.94784   0.53582   0.34000   0.00000  Uiso   1.00
Br347  Br    0.94757   0.46425   0.15996   0.00000  Uiso   1.00
Br348  Br    0.71910   0.53575   0.34003   0.00000  Uiso   1.00
C349   C     0.08676   0.83334   0.25000   0.00000  Uiso   1.00
C350   C     0.24657   0.83333   0.25000   0.00000  Uiso   1.00
C351   C     0.16658   0.75058   0.02321   0.00000  Uiso   1.00
C352   C     0.16675   0.91608   0.47679   0.00000  Uiso   1.00
C353   C     0.02164   0.81752   0.21205   0.00000  Uiso   1.00
C354   C     0.31169   0.84914   0.28795   0.00000  Uiso   1.00
C355   C     0.31158   0.81752   0.21205   0.00000  Uiso   1.00
C356   C     0.02176   0.84915   0.28795   0.00000  Uiso   1.00
C357   C     0.29067   0.83332   0.25000   0.00000  Uiso   1.00
C358   C     0.04266   0.83335   0.25000   0.00000  Uiso   1.00
C359   C     0.19087   0.69062   0.27959   0.00000  Uiso   1.00
C360   C     0.14246   0.97605   0.22041   0.00000  Uiso   1.00
C361   C     0.14246   0.69069   0.22041   0.00000  Uiso   1.00
C362   C     0.19087   0.97598   0.27959   0.00000  Uiso   1.00
C363   C     0.16661   0.83335   0.16327   0.00000  Uiso   1.00
C364   C     0.16673   0.83332   0.33673   0.00000  Uiso   1.00
C365   C     0.16683   0.87460   0.40755   0.00000  Uiso   1.00
C366   C     0.16650   0.79206   0.09245   0.00000  Uiso   1.00
C367   C     0.16679   0.83331   0.38468   0.00000  Uiso   1.00
C368   C     0.16654   0.83335   0.11531   0.00000  Uiso   1.00
C369   C     0.16679   0.79203   0.40761   0.00000  Uiso   1.00
C370   C     0.16655   0.87463   0.09239   0.00000  Uiso   1.00
C371   C     0.16673   0.79173   0.45369   0.00000  Uiso   1.00
C372   C     0.16660   0.87494   0.04631   0.00000  Uiso   1.00
C373   C     0.16671   0.83333   0.47683   0.00000  Uiso   1.00
C374   C     0.16662   0.83334   0.02317   0.00000  Uiso   1.00
C375   C     0.16677   0.87492   0.45362   0.00000  Uiso   1.00
C376   C     0.16656   0.79174   0.04638   0.00000  Uiso   1.00
C377   C     0.16667   0.75057   0.47692   0.00000  Uiso   1.00
C378   C     0.16666   0.91609   0.02308   0.00000  Uiso   1.00
H379   H     0.16687   0.90651   0.38959   0.00000  Uiso   1.00
H380   H     0.16646   0.76015   0.11041   0.00000  Uiso   1.00
H381   H     0.16680   0.76012   0.38970   0.00000  Uiso   1.00
H382   H     0.16654   0.90655   0.11030   0.00000  Uiso   1.00
H383   H     0.16669   0.71851   0.45933   0.00000  Uiso   1.00
H384   H     0.16665   0.94816   0.04067   0.00000  Uiso   1.00
H385   H     0.16654   0.71852   0.04085   0.00000  Uiso   1.00
H386   H     0.16680   0.94815   0.45914   0.00000  Uiso   1.00
H387   H     0.21023   0.70879   0.30323   0.00000  Uiso   1.00
H388   H     0.12310   0.95788   0.19677   0.00000  Uiso   1.00
H389   H     0.12310   0.70891   0.19677   0.00000  Uiso   1.00
H390   H     0.21023   0.95776   0.30323   0.00000  Uiso   1.00
N391   N     0.16667   0.95240   0.25000   0.00000  Uiso   1.00
N392   N     0.16667   0.71427   0.25000   0.00000  Uiso   1.00
O393   O     0.10559   0.87154   0.24999   0.00000  Uiso   1.00
O394   O     0.22774   0.79513   0.25000   0.00000  Uiso   1.00
O395   O     0.22774   0.87154   0.25000   0.00000  Uiso   1.00
O396   O     0.10559   0.79513   0.24999   0.00000  Uiso   1.00
O397   O     0.16666   0.87156   0.18392   0.00000  Uiso   1.00
O398   O     0.16667   0.79511   0.31607   0.00000  Uiso   1.00
O399   O     0.16667   0.87156   0.31607   0.00000  Uiso   1.00
O400   O     0.16666   0.79511   0.18392   0.00000  Uiso   1.00
Zn401  Zn    0.16667   0.88437   0.25000   0.00000  Uiso   1.00
Zn402  Zn    0.16667   0.78229   0.25000   0.00000  Uiso   1.00
Br403  Br    0.05216   0.79751   0.16000   0.00000  Uiso   1.00
Br404  Br    0.28118   0.86916   0.34000   0.00000  Uiso   1.00
Br405  Br    0.28090   0.79758   0.15996   0.00000  Uiso   1.00
Br406  Br    0.05243   0.86909   0.34003   0.00000  Uiso   1.00
C407   C     0.42010   0.83334   0.25000   0.00000  Uiso   1.00
C408   C     0.57990   0.83333   0.25000   0.00000  Uiso   1.00
C409   C     0.49992   0.75058   0.02321   0.00000  Uiso   1.00
C410   C     0.50008   0.91608   0.47679   0.00000  Uiso   1.00
C411   C     0.35497   0.81752   0.21205   0.00000  Uiso   1.00
C412   C     0.64503   0.84914   0.28795   0.00000  Uiso   1.00
C413   C     0.64491   0.81752   0.21205   0.00000  Uiso   1.00
C414   C     0.35509   0.84915   0.28795   0.00000  Uiso   1.00
C415   C     0.62401   0.83332   0.25000   0.00000  Uiso   1.00
C416   C     0.37599   0.83335   0.25000   0.00000  Uiso   1.00
C417   C     0.52421   0.69062   0.27959   0.00000  Uiso   1.00
C418   C     0.47579   0.97605   0.22041   0.00000  Uiso   1.00
C419   C     0.47579   0.69069   0.22041   0.00000  Uiso   1.00
C420   C     0.52421   0.97598   0.27959   0.00000  Uiso   1.00
C421   C     0.49994   0.83335   0.16327   0.00000  Uiso   1.00
C422   C     0.50006   0.83332   0.33673   0.00000  Uiso   1.00
C423   C     0.50016   0.87460   0.40755   0.00000  Uiso   1.00
C424   C     0.49984   0.79206   0.09245   0.00000  Uiso   1.00
C425   C     0.50013   0.83331   0.38468   0.00000  Uiso   1.00
C426   C     0.49987   0.83335   0.11531   0.00000  Uiso   1.00
C427   C     0.50012   0.79203   0.40761   0.00000  Uiso   1.00
C428   C     0.49988   0.87463   0.09239   0.00000  Uiso   1.00
C429   C     0.50007   0.79173   0.45369   0.00000  Uiso   1.00
C430   C     0.49993   0.87494   0.04631   0.00000  Uiso   1.00
C431   C     0.50004   0.83333   0.47683   0.00000  Uiso   1.00
C432   C     0.49996   0.83334   0.02317   0.00000  Uiso   1.00
C433   C     0.50011   0.87492   0.45362   0.00000  Uiso   1.00
C434   C     0.49989   0.79174   0.04638   0.00000  Uiso   1.00
C435   C     0.50001   0.75057   0.47692   0.00000  Uiso   1.00
C436   C     0.49999   0.91609   0.02308   0.00000  Uiso   1.00
H437   H     0.50020   0.90651   0.38959   0.00000  Uiso   1.00
H438   H     0.49980   0.76015   0.11041   0.00000  Uiso   1.00
H439   H     0.50013   0.76012   0.38970   0.00000  Uiso   1.00
H440   H     0.49987   0.90655   0.11030   0.00000  Uiso   1.00
H441   H     0.50002   0.71851   0.45933   0.00000  Uiso   1.00
H442   H     0.49998   0.94816   0.04067   0.00000  Uiso   1.00
H443   H     0.49987   0.71852   0.04085   0.00000  Uiso   1.00
H444   H     0.50013   0.94815   0.45914   0.00000  Uiso   1.00
H445   H     0.54356   0.70879   0.30323   0.00000  Uiso   1.00
H446   H     0.45644   0.95788   0.19677   0.00000  Uiso   1.00
H447   H     0.45644   0.70891   0.19677   0.00000  Uiso   1.00
H448   H     0.54356   0.95776   0.30323   0.00000  Uiso   1.00
N449   N     0.50000   0.95240   0.25000   0.00000  Uiso   1.00
N450   N     0.50000   0.71427   0.25000   0.00000  Uiso   1.00
O451   O     0.43892   0.87154   0.24999   0.00000  Uiso   1.00
O452   O     0.56108   0.79513   0.25000   0.00000  Uiso   1.00
O453   O     0.56108   0.87154   0.25000   0.00000  Uiso   1.00
O454   O     0.43892   0.79513   0.24999   0.00000  Uiso   1.00
O455   O     0.49999   0.87156   0.18392   0.00000  Uiso   1.00
O456   O     0.50001   0.79511   0.31607   0.00000  Uiso   1.00
O457   O     0.50001   0.87156   0.31607   0.00000  Uiso   1.00
O458   O     0.49999   0.79511   0.18392   0.00000  Uiso   1.00
Zn459  Zn    0.50000   0.88437   0.25000   0.00000  Uiso   1.00
Zn460  Zn    0.50000   0.78229   0.25000   0.00000  Uiso   1.00
Br461  Br    0.38549   0.79751   0.16000   0.00000  Uiso   1.00
Br462  Br    0.61451   0.86916   0.34000   0.00000  Uiso   1.00
Br463  Br    0.61424   0.79758   0.15996   0.00000  Uiso   1.00
Br464  Br    0.38576   0.86909   0.34003   0.00000  Uiso   1.00
C465   C     0.75343   0.83334   0.25000   0.00000  Uiso   1.00
C466   C     0.91324   0.83333   0.25000   0.00000  Uiso   1.00
C467   C     0.83325   0.75058   0.02321   0.00000  Uiso   1.00
C468   C     0.83342   0.91608   0.47679   0.00000  Uiso   1.00
C469   C     0.68830   0.81752   0.21205   0.00000  Uiso   1.00
C470   C     0.97836   0.84914   0.28795   0.00000  Uiso   1.00
C471   C     0.97824   0.81752   0.21205   0.00000  Uiso   1.00
C472   C     0.68842   0.84915   0.28795   0.00000  Uiso   1.00
C473   C     0.95734   0.83332   0.25000   0.00000  Uiso   1.00
C474   C     0.70933   0.83335   0.25000   0.00000  Uiso   1.00
C475   C     0.85754   0.69062   0.27959   0.00000  Uiso   1.00
C476   C     0.80912   0.97605   0.22041   0.00000  Uiso   1.00
C477   C     0.80912   0.69069   0.22041   0.00000  Uiso   1.00
C478   C     0.85754   0.97598   0.27959   0.00000  Uiso   1.00
C479   C     0.83327   0.83335   0.16327   0.00000  Uiso   1.00
C480   C     0.83339   0.83332   0.33673   0.00000  Uiso   1.00
C481   C     0.83349   0.87460   0.40755   0.00000  Uiso   1.00
C482   C     0.83317   0.79206   0.09245   0.00000  Uiso   1.00
C483   C     0.83346   0.83331   0.38468   0.00000  Uiso   1.00
C484   C     0.83321   0.83335   0.11531   0.00000  Uiso   1.00
C485   C     0.83345   0.79203   0.40761   0.00000  Uiso   1.00
C486   C     0.83321   0.87463   0.09239   0.00000  Uiso   1.00
C487   C     0.83340   0.79173   0.45369   0.00000  Uiso   1.00
C488   C     0.83327   0.87494   0.04631   0.00000  Uiso   1.00
C489   C     0.83338   0.83333   0.47683   0.00000  Uiso   1.00
C490   C     0.83329   0.83334   0.02317   0.00000  Uiso   1.00
C491   C     0.83344   0.87492   0.45362   0.00000  Uiso   1.00
C492   C     0.83323   0.79174   0.04638   0.00000  Uiso   1.00
C493   C     0.83334   0.75057   0.47692   0.00000  Uiso   1.00
C494   C     0.83333   0.91609   0.02308   0.00000  Uiso   1.00
H495   H     0.83354   0.90651   0.38959   0.00000  Uiso   1.00
H496   H     0.83313   0.76015   0.11041   0.00000  Uiso   1.00
H497   H     0.83346   0.76012   0.38970   0.00000  Uiso   1.00
H498   H     0.83320   0.90655   0.11030   0.00000  Uiso   1.00
H499   H     0.83335   0.71851   0.45933   0.00000  Uiso   1.00
H500   H     0.83331   0.94816   0.04067   0.00000  Uiso   1.00
H501   H     0.83320   0.71852   0.04085   0.00000  Uiso   1.00
H502   H     0.83346   0.94815   0.45914   0.00000  Uiso   1.00
H503   H     0.87689   0.70879   0.30323   0.00000  Uiso   1.00
H504   H     0.78977   0.95788   0.19677   0.00000  Uiso   1.00
H505   H     0.78977   0.70891   0.19677   0.00000  Uiso   1.00
H506   H     0.87690   0.95776   0.30323   0.00000  Uiso   1.00
N507   N     0.83333   0.95240   0.25000   0.00000  Uiso   1.00
N508   N     0.83333   0.71427   0.25000   0.00000  Uiso   1.00
O509   O     0.77226   0.87154   0.24999   0.00000  Uiso   1.00
O510   O     0.89441   0.79513   0.25000   0.00000  Uiso   1.00
O511   O     0.89441   0.87154   0.25000   0.00000  Uiso   1.00
O512   O     0.77226   0.79513   0.24999   0.00000  Uiso   1.00
O513   O     0.83333   0.87156   0.18392   0.00000  Uiso   1.00
O514   O     0.83334   0.79511   0.31607   0.00000  Uiso   1.00
O515   O     0.83334   0.87156   0.31607   0.00000  Uiso   1.00
O516   O     0.83333   0.79511   0.18392   0.00000  Uiso   1.00
Zn517  Zn    0.83333   0.88437   0.25000   0.00000  Uiso   1.00
Zn518  Zn    0.83333   0.78229   0.25000   0.00000  Uiso   1.00
Br519  Br    0.71882   0.79751   0.16000   0.00000  Uiso   1.00
Br520  Br    0.94784   0.86916   0.34000   0.00000  Uiso   1.00
Br521  Br    0.94757   0.79758   0.15996   0.00000  Uiso   1.00
Br522  Br    0.71910   0.86909   0.34003   0.00000  Uiso   1.00
C523   C     0.08676   0.16667   0.75000   0.00000  Uiso   1.00
C524   C     0.24657   0.16666   0.75000   0.00000  Uiso   1.00
C525   C     0.16658   0.08392   0.52321   0.00000  Uiso   1.00
C526   C     0.16675   0.24942   0.97679   0.00000  Uiso   1.00
C527   C     0.02164   0.15086   0.71205   0.00000  Uiso   1.00
C528   C     0.31169   0.18248   0.78795   0.00000  Uiso   1.00
C529   C     0.31158   0.15085   0.71205   0.00000  Uiso   1.00
C530   C     0.02176   0.18248   0.78795   0.00000  Uiso   1.00
C531   C     0.29067   0.16665   0.75000   0.00000  Uiso   1.00
C532   C     0.04266   0.16668   0.75000   0.00000  Uiso   1.00
C533   C     0.19087   0.02395   0.77959   0.00000  Uiso   1.00
C534   C     0.14246   0.30938   0.72041   0.00000  Uiso   1.00
C535   C     0.14246   0.02402   0.72041   0.00000  Uiso   1.00
C536   C     0.19087   0.30931   0.77959   0.00000  Uiso   1.00
C537   C     0.16661   0.16668   0.66327   0.00000  Uiso   1.00
C538   C     0.16673   0.16665   0.83673   0.00000  Uiso   1.00
C539   C     0.16683   0.20794   0.90755   0.00000  Uiso   1.00
C540   C     0.16650   0.12540   0.59245   0.00000  Uiso   1.00
C541   C     0.16679   0.16665   0.88468   0.00000  Uiso   1.00
C542   C     0.16654   0.16669   0.61531   0.00000  Uiso   1.00
C543   C     0.16679   0.12537   0.90761   0.00000  Uiso   1.00
C544   C     0.16655   0.20797   0.59239   0.00000  Uiso   1.00
C545   C     0.16673   0.12506   0.95369   0.00000  Uiso   1.00
C546   C     0.16660   0.20827   0.54631   0.00000  Uiso   1.00
C547   C     0.16671   0.16666   0.97683   0.00000  Uiso   1.00
C548   C     0.16662   0.16667   0.52317   0.00000  Uiso   1.00
C549   C     0.16677   0.20826   0.95362   0.00000  Uiso   1.00
C550   C     0.16656   0.12508   0.54638   0.00000  Uiso   1.00
C551   C     0.16667   0.08391   0.97692   0.00000  Uiso   1.00
C552   C     0.16666   0.24943   0.52308   0.00000  Uiso   1.00
H553   H     0.16687   0.23985   0.88959   0.00000  Uiso   1.00
H554   H     0.16646   0.09349   0.61041   0.00000  Uiso   1.00
H555   H     0.16680   0.09345   0.88970   0.00000  Uiso   1.00
H556   H     0.16654   0.23988   0.61030   0.00000  Uiso   1.00
H557   H     0.16669   0.05184   0.95933   0.00000  Uiso   1.00
H558   H     0.16665   0.28149   0.54067   0.00000  Uiso   1.00
H559   H     0.16654   0.05185   0.54085   0.00000  Uiso   1.00
H560   H     0.16680   0.28148   0.95914   0.00000  Uiso   1.00
H561   H     0.21023   0.04212   0.80323   0.00000  Uiso   1.00
H562   H     0.12310   0.29121   0.69677   0.00000  Uiso   1.00
H563   H     0.12310   0.04224   0.69677   0.00000  Uiso   1.00
H564   H     0.21023   0.29109   0.80323   0.00000  Uiso   1.00
N565   N     0.16667   0.28573   0.75000   0.00000  Uiso   1.00
N566   N     0.16667   0.04760   0.75000   0.00000  Uiso   1.00
O567   O     0.10559   0.20487   0.74999   0.00000  Uiso   1.00
O568   O     0.22774   0.12846   0.75000   0.00000  Uiso   1.00
O569   O     0.22774   0.20487   0.75000   0.00000  Uiso   1.00
O570   O     0.10559   0.12846   0.74999   0.00000  Uiso   1.00
O571   O     0.16666   0.20489   0.68392   0.00000  Uiso   1.00
O572   O     0.16667   0.12844   0.81607   0.00000  Uiso   1.00
O573   O     0.16667   0.20489   0.81607   0.00000  Uiso   1.00
O574   O     0.16666   0.12844   0.68392   0.00000  Uiso   1.00
Zn575  Zn    0.16667   0.21771   0.75000   0.00000  Uiso   1.00
Zn576  Zn    0.16667   0.11563   0.75000   0.00000  Uiso   1.00
Br577  Br    0.05216   0.13084   0.66000   0.00000  Uiso   1.00
Br578  Br    0.28118   0.20249   0.84000   0.00000  Uiso   1.00
Br579  Br    0.28090   0.13091   0.65996   0.00000  Uiso   1.00
Br580  Br    0.05243   0.20242   0.84003   0.00000  Uiso   1.00
C581   C     0.42010   0.16667   0.75000   0.00000  Uiso   1.00
C582   C     0.57990   0.16666   0.75000   0.00000  Uiso   1.00
C583   C     0.49992   0.08392   0.52321   0.00000  Uiso   1.00
C584   C     0.50008   0.24942   0.97679   0.00000  Uiso   1.00
C585   C     0.35497   0.15086   0.71205   0.00000  Uiso   1.00
C586   C     0.64503   0.18248   0.78795   0.00000  Uiso   1.00
C587   C     0.64491   0.15085   0.71205   0.00000  Uiso   1.00
C588   C     0.35509   0.18248   0.78795   0.00000  Uiso   1.00
C589   C     0.62401   0.16665   0.75000   0.00000  Uiso   1.00
C590   C     0.37599   0.16668   0.75000   0.00000  Uiso   1.00
C591   C     0.52421   0.02395   0.77959   0.00000  Uiso   1.00
C592   C     0.47579   0.30938   0.72041   0.00000  Uiso   1.00
C593   C     0.47579   0.02402   0.72041   0.00000  Uiso   1.00
C594   C     0.52421   0.30931   0.77959   0.00000  Uiso   1.00
C595   C     0.49994   0.16668   0.66327   0.00000  Uiso   1.00
C596   C     0.50006   0.16665   0.83673   0.00000  Uiso   1.00
C597   C     0.50016   0.20794   0.90755   0.00000  Uiso   1.00
C598   C     0.49984   0.12540   0.59245   0.00000  Uiso   1.00
C599   C     0.50013   0.16665   0.88468   0.00000  Uiso   1.00
C600   C     0.49987   0.16669   0.61531   0.00000  Uiso   1.00
C601   C     0.50012   0.12537   0.90761   0.00000  Uiso   1.00
C602   C     0.49988   0.20797   0.59239   0.00000  Uiso   1.00
C603   C     0.50007   0.12506   0.95369   0.00000  Uiso   1.00
C604   C     0.49993   0.20827   0.54631   0.00000  Uiso   1.00
C605   C     0.50004   0.16666   0.97683   0.00000  Uiso   1.00
C606   C     0.49996   0.16667   0.52317   0.00000  Uiso   1.00
C607   C     0.50011   0.20826   0.95362   0.00000  Uiso   1.00
C608   C     0.49989   0.12508   0.54638   0.00000  Uiso   1.00
C609   C     0.50001   0.08391   0.97692   0.00000  Uiso   1.00
C610   C     0.49999   0.24943   0.52308   0.00000  Uiso   1.00
H611   H     0.50020   0.23985   0.88959   0.00000  Uiso   1.00
H612   H     0.49980   0.09349   0.61041   0.00000  Uiso   1.00
H613   H     0.50013   0.09345   0.88970   0.00000  Uiso   1.00
H614   H     0.49987   0.23988   0.61030   0.00000  Uiso   1.00
H615   H     0.50002   0.05184   0.95933   0.00000  Uiso   1.00
H616   H     0.49998   0.28149   0.54067   0.00000  Uiso   1.00
H617   H     0.49987   0.05185   0.54085   0.00000  Uiso   1.00
H618   H     0.50013   0.28148   0.95914   0.00000  Uiso   1.00
H619   H     0.54356   0.04212   0.80323   0.00000  Uiso   1.00
H620   H     0.45644   0.29121   0.69677   0.00000  Uiso   1.00
H621   H     0.45644   0.04224   0.69677   0.00000  Uiso   1.00
H622   H     0.54356   0.29109   0.80323   0.00000  Uiso   1.00
N623   N     0.50000   0.28573   0.75000   0.00000  Uiso   1.00
N624   N     0.50000   0.04760   0.75000   0.00000  Uiso   1.00
O625   O     0.43892   0.20487   0.74999   0.00000  Uiso   1.00
O626   O     0.56108   0.12846   0.75000   0.00000  Uiso   1.00
O627   O     0.56108   0.20487   0.75000   0.00000  Uiso   1.00
O628   O     0.43892   0.12846   0.74999   0.00000  Uiso   1.00
O629   O     0.49999   0.20489   0.68392   0.00000  Uiso   1.00
O630   O     0.50001   0.12844   0.81607   0.00000  Uiso   1.00
O631   O     0.50001   0.20489   0.81607   0.00000  Uiso   1.00
O632   O     0.49999   0.12844   0.68392   0.00000  Uiso   1.00
Zn633  Zn    0.50000   0.21771   0.75000   0.00000  Uiso   1.00
Zn634  Zn    0.50000   0.11563   0.75000   0.00000  Uiso   1.00
Br635  Br    0.38549   0.13084   0.66000   0.00000  Uiso   1.00
Br636  Br    0.61451   0.20249   0.84000   0.00000  Uiso   1.00
Br637  Br    0.61424   0.13091   0.65996   0.00000  Uiso   1.00
Br638  Br    0.38576   0.20242   0.84003   0.00000  Uiso   1.00
C639   C     0.75343   0.16667   0.75000   0.00000  Uiso   1.00
C640   C     0.91324   0.16666   0.75000   0.00000  Uiso   1.00
C641   C     0.83325   0.08392   0.52321   0.00000  Uiso   1.00
C642   C     0.83342   0.24942   0.97679   0.00000  Uiso   1.00
C643   C     0.68830   0.15086   0.71205   0.00000  Uiso   1.00
C644   C     0.97836   0.18248   0.78795   0.00000  Uiso   1.00
C645   C     0.97824   0.15085   0.71205   0.00000  Uiso   1.00
C646   C     0.68842   0.18248   0.78795   0.00000  Uiso   1.00
C647   C     0.95734   0.16665   0.75000   0.00000  Uiso   1.00
C648   C     0.70933   0.16668   0.75000   0.00000  Uiso   1.00
C649   C     0.85754   0.02395   0.77959   0.00000  Uiso   1.00
C650   C     0.80912   0.30938   0.72041   0.00000  Uiso   1.00
C651   C     0.80912   0.02402   0.72041   0.00000  Uiso   1.00
C652   C     0.85754   0.30931   0.77959   0.00000  Uiso   1.00
C653   C     0.83327   0.16668   0.66327   0.00000  Uiso   1.00
C654   C     0.83339   0.16665   0.83673   0.00000  Uiso   1.00
C655   C     0.83349   0.20794   0.90755   0.00000  Uiso   1.00
C656   C     0.83317   0.12540   0.59245   0.00000  Uiso   1.00
C657   C     0.83346   0.16665   0.88468   0.00000  Uiso   1.00
C658   C     0.83321   0.16669   0.61531   0.00000  Uiso   1.00
C659   C     0.83345   0.12537   0.90761   0.00000  Uiso   1.00
C660   C     0.83321   0.20797   0.59239   0.00000  Uiso   1.00
C661   C     0.83340   0.12506   0.95369   0.00000  Uiso   1.00
C662   C     0.83327   0.20827   0.54631   0.00000  Uiso   1.00
C663   C     0.83338   0.16666   0.97683   0.00000  Uiso   1.00
C664   C     0.83329   0.16667   0.52317   0.00000  Uiso   1.00
C665   C     0.83344   0.20826   0.95362   0.00000  Uiso   1.00
C666   C     0.83323   0.12508   0.54638   0.00000  Uiso   1.00
C667   C     0.83334   0.08391   0.97692   0.00000  Uiso   1.00
C668   C     0.83333   0.24943   0.52308   0.00000  Uiso   1.00
H669   H     0.83354   0.23985   0.88959   0.00000  Uiso   1.00
H670   H     0.83313   0.09349   0.61041   0.00000  Uiso   1.00
H671   H     0.83346   0.09345   0.88970   0.00000  Uiso   1.00
H672   H     0.83320   0.23988   0.61030   0.00000  Uiso   1.00
H673   H     0.83335   0.05184   0.95933   0.00000  Uiso   1.00
H674   H     0.83331   0.28149   0.54067   0.00000  Uiso   1.00
H675   H     0.83320   0.05185   0.54085   0.00000  Uiso   1.00
H676   H     0.83346   0.28148   0.95914   0.00000  Uiso   1.00
H677   H     0.87689   0.04212   0.80323   0.00000  Uiso   1.00
H678   H     0.78977   0.29121   0.69677   0.00000  Uiso   1.00
H679   H     0.78977   0.04224   0.69677   0.00000  Uiso   1.00
H680   H     0.87690   0.29109   0.80323   0.00000  Uiso   1.00
N681   N     0.83333   0.28573   0.75000   0.00000  Uiso   1.00
N682   N     0.83333   0.04760   0.75000   0.00000  Uiso   1.00
O683   O     0.77226   0.20487   0.74999   0.00000  Uiso   1.00
O684   O     0.89441   0.12846   0.75000   0.00000  Uiso   1.00
O685   O     0.89441   0.20487   0.75000   0.00000  Uiso   1.00
O686   O     0.77226   0.12846   0.74999   0.00000  Uiso   1.00
O687   O     0.83333   0.20489   0.68392   0.00000  Uiso   1.00
O688   O     0.83334   0.12844   0.81607   0.00000  Uiso   1.00
O689   O     0.83334   0.20489   0.81607   0.00000  Uiso   1.00
O690   O     0.83333   0.12844   0.68392   0.00000  Uiso   1.00
Zn691  Zn    0.83333   0.21771   0.75000   0.00000  Uiso   1.00
Zn692  Zn    0.83333   0.11563   0.75000   0.00000  Uiso   1.00
Br693  Br    0.71882   0.13084   0.66000   0.00000  Uiso   1.00
Br694  Br    0.94784   0.20249   0.84000   0.00000  Uiso   1.00
Br695  Br    0.94757   0.13091   0.65996   0.00000  Uiso   1.00
Br696  Br    0.71910   0.20242   0.84003   0.00000  Uiso   1.00
C697   C     0.08676   0.50001   0.75000   0.00000  Uiso   1.00
C698   C     0.24657   0.49999   0.75000   0.00000  Uiso   1.00
C699   C     0.16658   0.41725   0.52321   0.00000  Uiso   1.00
C700   C     0.16675   0.58275   0.97679   0.00000  Uiso   1.00
C701   C     0.02164   0.48419   0.71205   0.00000  Uiso   1.00
C702   C     0.31169   0.51581   0.78795   0.00000  Uiso   1.00
C703   C     0.31158   0.48418   0.71205   0.00000  Uiso   1.00
C704   C     0.02176   0.51582   0.78795   0.00000  Uiso   1.00
C705   C     0.29067   0.49998   0.75000   0.00000  Uiso   1.00
C706   C     0.04266   0.50002   0.75000   0.00000  Uiso   1.00
C707   C     0.19087   0.35729   0.77959   0.00000  Uiso   1.00
C708   C     0.14246   0.64271   0.72041   0.00000  Uiso   1.00
C709   C     0.14246   0.35736   0.72041   0.00000  Uiso   1.00
C710   C     0.19087   0.64264   0.77959   0.00000  Uiso   1.00
C711   C     0.16661   0.50001   0.66327   0.00000  Uiso   1.00
C712   C     0.16673   0.49999   0.83673   0.00000  Uiso   1.00
C713   C     0.16683   0.54127   0.90755   0.00000  Uiso   1.00
C714   C     0.16650   0.45873   0.59245   0.00000  Uiso   1.00
C715   C     0.16679   0.49998   0.88468   0.00000  Uiso   1.00
C716   C     0.16654   0.50002   0.61531   0.00000  Uiso   1.00
C717   C     0.16679   0.45870   0.90761   0.00000  Uiso   1.00
C718   C     0.16655   0.54130   0.59239   0.00000  Uiso   1.00
C719   C     0.16673   0.45839   0.95369   0.00000  Uiso   1.00
C720   C     0.16660   0.54161   0.54631   0.00000  Uiso   1.00
C721   C     0.16671   0.50000   0.97683   0.00000  Uiso   1.00
C722   C     0.16662   0.50000   0.52317   0.00000  Uiso   1.00
C723   C     0.16677   0.54159   0.95362   0.00000  Uiso   1.00
C724   C     0.16656   0.45841   0.54638   0.00000  Uiso   1.00
C725   C     0.16667   0.41724   0.97692   0.00000  Uiso   1.00
C726   C     0.16666   0.58276   0.52308   0.00000  Uiso   1.00
H727   H     0.16687   0.57318   0.88959   0.00000  Uiso   1.00
H728   H     0.16646   0.42682   0.61041   0.00000  Uiso   1.00
H729   H     0.16680   0.42679   0.88970   0.00000  Uiso   1.00
H730   H     0.16654   0.57321   0.61030   0.00000  Uiso   1.00
H731   H     0.16669   0.38517   0.95933   0.00000  Uiso   1.00
H732   H     0.16665   0.61483   0.54067   0.00000  Uiso   1.00
H733   H     0.16654   0.38519   0.54085   0.00000  Uiso   1.00
H734   H     0.16680   0.61481   0.95914   0.00000  Uiso   1.00
H735   H     0.21023   0.37545   0.80323   0.00000  Uiso   1.00
H736   H     0.12310   0.62455   0.69677   0.00000  Uiso   1.00
H737   H     0.12310   0.37558   0.69677   0.00000  Uiso   1.00
H738   H     0.21023   0.62442   0.80323   0.00000  Uiso   1.00
N739   N     0.16667   0.61907   0.75000   0.00000  Uiso   1.00
N740   N     0.16667   0.38093   0.75000   0.00000  Uiso   1.00
O741   O     0.10559   0.53821   0.74999   0.00000  Uiso   1.00
O742   O     0.22774   0.46179   0.75000   0.00000  Uiso   1.00
O743   O     0.22774   0.53821   0.75000   0.00000  Uiso   1.00
O744   O     0.10559   0.46179   0.74999   0.00000  Uiso   1.00
O745   O     0.16666   0.53823   0.68392   0.00000  Uiso   1.00
O746   O     0.16667   0.46177   0.81607   0.00000  Uiso   1.00
O747   O     0.16667   0.53823   0.81607   0.00000  Uiso   1.00
O748   O     0.16666   0.46177   0.68392   0.00000  Uiso   1.00
Zn749  Zn    0.16667   0.55104   0.75000   0.00000  Uiso   1.00
Zn750  Zn    0.16667   0.44896   0.75000   0.00000  Uiso   1.00
Br751  Br    0.05216   0.46418   0.66000   0.00000  Uiso   1.00
Br752  Br    0.28118   0.53582   0.84000   0.00000  Uiso   1.00
Br753  Br    0.28090   0.46425   0.65996   0.00000  Uiso   1.00
Br754  Br    0.05243   0.53575   0.84003   0.00000  Uiso   1.00
C755   C     0.42010   0.50001   0.75000   0.00000  Uiso   1.00
C756   C     0.57990   0.49999   0.75000   0.00000  Uiso   1.00
C757   C     0.49992   0.41725   0.52321   0.00000  Uiso   1.00
C758   C     0.50008   0.58275   0.97679   0.00000  Uiso   1.00
C759   C     0.35497   0.48419   0.71205   0.00000  Uiso   1.00
C760   C     0.64503   0.51581   0.78795   0.00000  Uiso   1.00
C761   C     0.64491   0.48418   0.71205   0.00000  Uiso   1.00
C762   C     0.35509   0.51582   0.78795   0.00000  Uiso   1.00
C763   C     0.62401   0.49998   0.75000   0.00000  Uiso   1.00
C764   C     0.37599   0.50002   0.75000   0.00000  Uiso   1.00
C765   C     0.52421   0.35729   0.77959   0.00000  Uiso   1.00
C766   C     0.47579   0.64271   0.72041   0.00000  Uiso   1.00
C767   C     0.47579   0.35736   0.72041   0.00000  Uiso   1.00
C768   C     0.52421   0.64264   0.77959   0.00000  Uiso   1.00
C769   C     0.49994   0.50001   0.66327   0.00000  Uiso   1.00
C770   C     0.50006   0.49999   0.83673   0.00000  Uiso   1.00
C771   C     0.50016   0.54127   0.90755   0.00000  Uiso   1.00
C772   C     0.49984   0.45873   0.59245   0.00000  Uiso   1.00
C773   C     0.50013   0.49998   0.88468   0.00000  Uiso   1.00
C774   C     0.49987   0.50002   0.61531   0.00000  Uiso   1.00
C775   C     0.50012   0.45870   0.90761   0.00000  Uiso   1.00
C776   C     0.49988   0.54130   0.59239   0.00000  Uiso   1.00
C777   C     0.50007   0.45839   0.95369   0.00000  Uiso   1.00
C778   C     0.49993   0.54161   0.54631   0.00000  Uiso   1.00
C779   C     0.50004   0.50000   0.97683   0.00000  Uiso   1.00
C780   C     0.49996   0.50000   0.52317   0.00000  Uiso   1.00
C781   C     0.50011   0.54159   0.95362   0.00000  Uiso   1.00
C782   C     0.49989   0.45841   0.54638   0.00000  Uiso   1.00
C783   C     0.50001   0.41724   0.97692   0.00000  Uiso   1.00
C784   C     0.49999   0.58276   0.52308   0.00000  Uiso   1.00
H785   H     0.50020   0.57318   0.88959   0.00000  Uiso   1.00
H786   H     0.49980   0.42682   0.61041   0.00000  Uiso   1.00
H787   H     0.50013   0.42679   0.88970   0.00000  Uiso   1.00
H788   H     0.49987   0.57321   0.61030   0.00000  Uiso   1.00
H789   H     0.50002   0.38517   0.95933   0.00000  Uiso   1.00
H790   H     0.49998   0.61483   0.54067   0.00000  Uiso   1.00
H791   H     0.49987   0.38519   0.54085   0.00000  Uiso   1.00
H792   H     0.50013   0.61481   0.95914   0.00000  Uiso   1.00
H793   H     0.54356   0.37545   0.80323   0.00000  Uiso   1.00
H794   H     0.45644   0.62455   0.69677   0.00000  Uiso   1.00
H795   H     0.45644   0.37558   0.69677   0.00000  Uiso   1.00
H796   H     0.54356   0.62442   0.80323   0.00000  Uiso   1.00
N797   N     0.50000   0.61907   0.75000   0.00000  Uiso   1.00
N798   N     0.50000   0.38093   0.75000   0.00000  Uiso   1.00
O799   O     0.43892   0.53821   0.74999   0.00000  Uiso   1.00
O800   O     0.56108   0.46179   0.75000   0.00000  Uiso   1.00
O801   O     0.56108   0.53821   0.75000   0.00000  Uiso   1.00
O802   O     0.43892   0.46179   0.74999   0.00000  Uiso   1.00
O803   O     0.49999   0.53823   0.68392   0.00000  Uiso   1.00
O804   O     0.50001   0.46177   0.81607   0.00000  Uiso   1.00
O805   O     0.50001   0.53823   0.81607   0.00000  Uiso   1.00
O806   O     0.49999   0.46177   0.68392   0.00000  Uiso   1.00
Zn807  Zn    0.50000   0.55104   0.75000   0.00000  Uiso   1.00
Zn808  Zn    0.50000   0.44896   0.75000   0.00000  Uiso   1.00
Br809  Br    0.38549   0.46418   0.66000   0.00000  Uiso   1.00
Br810  Br    0.61451   0.53582   0.84000   0.00000  Uiso   1.00
Br811  Br    0.61424   0.46425   0.65996   0.00000  Uiso   1.00
Br812  Br    0.38576   0.53575   0.84003   0.00000  Uiso   1.00
C813   C     0.75343   0.50001   0.75000   0.00000  Uiso   1.00
C814   C     0.91324   0.49999   0.75000   0.00000  Uiso   1.00
C815   C     0.83325   0.41725   0.52321   0.00000  Uiso   1.00
C816   C     0.83342   0.58275   0.97679   0.00000  Uiso   1.00
C817   C     0.68830   0.48419   0.71205   0.00000  Uiso   1.00
C818   C     0.97836   0.51581   0.78795   0.00000  Uiso   1.00
C819   C     0.97824   0.48418   0.71205   0.00000  Uiso   1.00
C820   C     0.68842   0.51582   0.78795   0.00000  Uiso   1.00
C821   C     0.95734   0.49998   0.75000   0.00000  Uiso   1.00
C822   C     0.70933   0.50002   0.75000   0.00000  Uiso   1.00
C823   C     0.85754   0.35729   0.77959   0.00000  Uiso   1.00
C824   C     0.80912   0.64271   0.72041   0.00000  Uiso   1.00
C825   C     0.80912   0.35736   0.72041   0.00000  Uiso   1.00
C826   C     0.85754   0.64264   0.77959   0.00000  Uiso   1.00
C827   C     0.83327   0.50001   0.66327   0.00000  Uiso   1.00
C828   C     0.83339   0.49999   0.83673   0.00000  Uiso   1.00
C829   C     0.83349   0.54127   0.90755   0.00000  Uiso   1.00
C830   C     0.83317   0.45873   0.59245   0.00000  Uiso   1.00
C831   C     0.83346   0.49998   0.88468   0.00000  Uiso   1.00
C832   C     0.83321   0.50002   0.61531   0.00000  Uiso   1.00
C833   C     0.83345   0.45870   0.90761   0.00000  Uiso   1.00
C834   C     0.83321   0.54130   0.59239   0.00000  Uiso   1.00
C835   C     0.83340   0.45839   0.95369   0.00000  Uiso   1.00
C836   C     0.83327   0.54161   0.54631   0.00000  Uiso   1.00
C837   C     0.83338   0.50000   0.97683   0.00000  Uiso   1.00
C838   C     0.83329   0.50000   0.52317   0.00000  Uiso   1.00
C839   C     0.83344   0.54159   0.95362   0.00000  Uiso   1.00
C840   C     0.83323   0.45841   0.54638   0.00000  Uiso   1.00
C841   C     0.83334   0.41724   0.97692   0.00000  Uiso   1.00
C842   C     0.83333   0.58276   0.52308   0.00000  Uiso   1.00
H843   H     0.83354   0.57318   0.88959   0.00000  Uiso   1.00
H844   H     0.83313   0.42682   0.61041   0.00000  Uiso   1.00
H845   H     0.83346   0.42679   0.88970   0.00000  Uiso   1.00
H846   H     0.83320   0.57321   0.61030   0.00000  Uiso   1.00
H847   H     0.83335   0.38517   0.95933   0.00000  Uiso   1.00
H848   H     0.83331   0.61483   0.54067   0.00000  Uiso   1.00
H849   H     0.83320   0.38519   0.54085   0.00000  Uiso   1.00
H850   H     0.83346   0.61481   0.95914   0.00000  Uiso   1.00
H851   H     0.87689   0.37545   0.80323   0.00000  Uiso   1.00
H852   H     0.78977   0.62455   0.69677   0.00000  Uiso   1.00
H853   H     0.78977   0.37558   0.69677   0.00000  Uiso   1.00
H854   H     0.87690   0.62442   0.80323   0.00000  Uiso   1.00
N855   N     0.83333   0.61907   0.75000   0.00000  Uiso   1.00
N856   N     0.83333   0.38093   0.75000   0.00000  Uiso   1.00
O857   O     0.77226   0.53821   0.74999   0.00000  Uiso   1.00
O858   O     0.89441   0.46179   0.75000   0.00000  Uiso   1.00
O859   O     0.89441   0.53821   0.75000   0.00000  Uiso   1.00
O860   O     0.77226   0.46179   0.74999   0.00000  Uiso   1.00
O861   O     0.83333   0.53823   0.68392   0.00000  Uiso   1.00
O862   O     0.83334   0.46177   0.81607   0.00000  Uiso   1.00
O863   O     0.83334   0.53823   0.81607   0.00000  Uiso   1.00
O864   O     0.83333   0.46177   0.68392   0.00000  Uiso   1.00
Zn865  Zn    0.83333   0.55104   0.75000   0.00000  Uiso   1.00
Zn866  Zn    0.83333   0.44896   0.75000   0.00000  Uiso   1.00
Br867  Br    0.71882   0.46418   0.66000   0.00000  Uiso   1.00
Br868  Br    0.94784   0.53582   0.84000   0.00000  Uiso   1.00
Br869  Br    0.94757   0.46425   0.65996   0.00000  Uiso   1.00
Br870  Br    0.71910   0.53575   0.84003   0.00000  Uiso   1.00
C871   C     0.08676   0.83334   0.75000   0.00000  Uiso   1.00
C872   C     0.24657   0.83333   0.75000   0.00000  Uiso   1.00
C873   C     0.16658   0.75058   0.52321   0.00000  Uiso   1.00
C874   C     0.16675   0.91608   0.97679   0.00000  Uiso   1.00
C875   C     0.02164   0.81752   0.71205   0.00000  Uiso   1.00
C876   C     0.31169   0.84914   0.78795   0.00000  Uiso   1.00
C877   C     0.31158   0.81752   0.71205   0.00000  Uiso   1.00
C878   C     0.02176   0.84915   0.78795   0.00000  Uiso   1.00
C879   C     0.29067   0.83332   0.75000   0.00000  Uiso   1.00
C880   C     0.04266   0.83335   0.75000   0.00000  Uiso   1.00
C881   C     0.19087   0.69062   0.77959   0.00000  Uiso   1.00
C882   C     0.14246   0.97605   0.72041   0.00000  Uiso   1.00
C883   C     0.14246   0.69069   0.72041   0.00000  Uiso   1.00
C884   C     0.19087   0.97598   0.77959   0.00000  Uiso   1.00
C885   C     0.16661   0.83335   0.66327   0.00000  Uiso   1.00
C886   C     0.16673   0.83332   0.83673   0.00000  Uiso   1.00
C887   C     0.16683   0.87460   0.90755   0.00000  Uiso   1.00
C888   C     0.16650   0.79206   0.59245   0.00000  Uiso   1.00
C889   C     0.16679   0.83331   0.88468   0.00000  Uiso   1.00
C890   C     0.16654   0.83335   0.61531   0.00000  Uiso   1.00
C891   C     0.16679   0.79203   0.90761   0.00000  Uiso   1.00
C892   C     0.16655   0.87463   0.59239   0.00000  Uiso   1.00
C893   C     0.16673   0.79173   0.95369   0.00000  Uiso   1.00
C894   C     0.16660   0.87494   0.54631   0.00000  Uiso   1.00
C895   C     0.16671   0.83333   0.97683   0.00000  Uiso   1.00
C896   C     0.16662   0.83334   0.52317   0.00000  Uiso   1.00
C897   C     0.16677   0.87492   0.95362   0.00000  Uiso   1.00
C898   C     0.16656   0.79174   0.54638   0.00000  Uiso   1.00
C899   C     0.16667   0.75057   0.97692   0.00000  Uiso   1.00
C900   C     0.16666   0.91609   0.52308   0.00000  Uiso   1.00
H901   H     0.16687   0.90651   0.88959   0.00000  Uiso   1.00
H902   H     0.16646   0.76015   0.61041   0.00000  Uiso   1.00
H903   H     0.16680   0.76012   0.88970   0.00000  Uiso   1.00
H904   H     0.16654   0.90655   0.61030   0.00000  Uiso   1.00
H905   H     0.16669   0.71851   0.95933   0.00000  Uiso   1.00
H906   H     0.16665   0.94816   0.54067   0.00000  Uiso   1.00
H907   H     0.16654   0.71852   0.54085   0.00000  Uiso   1.00
H908   H     0.16680   0.94815   0.95914   0.00000  Uiso   1.00
H909   H     0.21023   0.70879   0.80323   0.00000  Uiso   1.00
H910   H     0.12310   0.95788   0.69677   0.00000  Uiso   1.00
H911   H     0.12310   0.70891   0.69677   0.00000  Uiso   1.00
H912   H     0.21023   0.95776   0.80323   0.00000  Uiso   1.00
N913   N     0.16667   0.95240   0.75000   0.00000  Uiso   1.00
N914   N     0.16667   0.71427   0.75000   0.00000  Uiso   1.00
O915   O     0.10559   0.87154   0.74999   0.00000  Uiso   1.00
O916   O     0.22774   0.79513   0.75000   0.00000  Uiso   1.00
O917   O     0.22774   0.87154   0.75000   0.00000  Uiso   1.00
O918   O     0.10559   0.79513   0.74999   0.00000  Uiso   1.00
O919   O     0.16666   0.87156   0.68392   0.00000  Uiso   1.00
O920   O     0.16667   0.79511   0.81607   0.00000  Uiso   1.00
O921   O     0.16667   0.87156   0.81607   0.00000  Uiso   1.00
O922   O     0.16666   0.79511   0.68392   0.00000  Uiso   1.00
Zn923  Zn    0.16667   0.88437   0.75000   0.00000  Uiso   1.00
Zn924  Zn    0.16667   0.78229   0.75000   0.00000  Uiso   1.00
Br925  Br    0.05216   0.79751   0.66000   0.00000  Uiso   1.00
Br926  Br    0.28118   0.86916   0.84000   0.00000  Uiso   1.00
Br927  Br    0.28090   0.79758   0.65996   0.00000  Uiso   1.00
Br928  Br    0.05243   0.86909   0.84003   0.00000  Uiso   1.00
C929   C     0.42010   0.83334   0.75000   0.00000  Uiso   1.00
C930   C     0.57990   0.83333   0.75000   0.00000  Uiso   1.00
C931   C     0.49992   0.75058   0.52321   0.00000  Uiso   1.00
C932   C     0.50008   0.91608   0.97679   0.00000  Uiso   1.00
C933   C     0.35497   0.81752   0.71205   0.00000  Uiso   1.00
C934   C     0.64503   0.84914   0.78795   0.00000  Uiso   1.00
C935   C     0.64491   0.81752   0.71205   0.00000  Uiso   1.00
C936   C     0.35509   0.84915   0.78795   0.00000  Uiso   1.00
C937   C     0.62401   0.83332   0.75000   0.00000  Uiso   1.00
C938   C     0.37599   0.83335   0.75000   0.00000  Uiso   1.00
C939   C     0.52421   0.69062   0.77959   0.00000  Uiso   1.00
C940   C     0.47579   0.97605   0.72041   0.00000  Uiso   1.00
C941   C     0.47579   0.69069   0.72041   0.00000  Uiso   1.00
C942   C     0.52421   0.97598   0.77959   0.00000  Uiso   1.00
C943   C     0.49994   0.83335   0.66327   0.00000  Uiso   1.00
C944   C     0.50006   0.83332   0.83673   0.00000  Uiso   1.00
C945   C     0.50016   0.87460   0.90755   0.00000  Uiso   1.00
C946   C     0.49984   0.79206   0.59245   0.00000  Uiso   1.00
C947   C     0.50013   0.83331   0.88468   0.00000  Uiso   1.00
C948   C     0.49987   0.83335   0.61531   0.00000  Uiso   1.00
C949   C     0.50012   0.79203   0.90761   0.00000  Uiso   1.00
C950   C     0.49988   0.87463   0.59239   0.00000  Uiso   1.00
C951   C     0.50007   0.79173   0.95369   0.00000  Uiso   1.00
C952   C     0.49993   0.87494   0.54631   0.00000  Uiso   1.00
C953   C     0.50004   0.83333   0.97683   0.00000  Uiso   1.00
C954   C     0.49996   0.83334   0.52317   0.00000  Uiso   1.00
C955   C     0.50011   0.87492   0.95362   0.00000  Uiso   1.00
C956   C     0.49989   0.79174   0.54638   0.00000  Uiso   1.00
C957   C     0.50001   0.75057   0.97692   0.00000  Uiso   1.00
C958   C     0.49999   0.91609   0.52308   0.00000  Uiso   1.00
H959   H     0.50020   0.90651   0.88959   0.00000  Uiso   1.00
H960   H     0.49980   0.76015   0.61041   0.00000  Uiso   1.00
H961   H     0.50013   0.76012   0.88970   0.00000  Uiso   1.00
H962   H     0.49987   0.90655   0.61030   0.00000  Uiso   1.00
H963   H     0.50002   0.71851   0.95933   0.00000  Uiso   1.00
H964   H     0.49998   0.94816   0.54067   0.00000  Uiso   1.00
H965   H     0.49987   0.71852   0.54085   0.00000  Uiso   1.00
H966   H     0.50013   0.94815   0.95914   0.00000  Uiso   1.00
H967   H     0.54356   0.70879   0.80323   0.00000  Uiso   1.00
H968   H     0.45644   0.95788   0.69677   0.00000  Uiso   1.00
H969   H     0.45644   0.70891   0.69677   0.00000  Uiso   1.00
H970   H     0.54356   0.95776   0.80323   0.00000  Uiso   1.00
N971   N     0.50000   0.95240   0.75000   0.00000  Uiso   1.00
N972   N     0.50000   0.71427   0.75000   0.00000  Uiso   1.00
O973   O     0.43892   0.87154   0.74999   0.00000  Uiso   1.00
O974   O     0.56108   0.79513   0.75000   0.00000  Uiso   1.00
O975   O     0.56108   0.87154   0.75000   0.00000  Uiso   1.00
O976   O     0.43892   0.79513   0.74999   0.00000  Uiso   1.00
O977   O     0.49999   0.87156   0.68392   0.00000  Uiso   1.00
O978   O     0.50001   0.79511   0.81607   0.00000  Uiso   1.00
O979   O     0.50001   0.87156   0.81607   0.00000  Uiso   1.00
O980   O     0.49999   0.79511   0.68392   0.00000  Uiso   1.00
Zn981  Zn    0.50000   0.88437   0.75000   0.00000  Uiso   1.00
Zn982  Zn    0.50000   0.78229   0.75000   0.00000  Uiso   1.00
Br983  Br    0.38549   0.79751   0.66000   0.00000  Uiso   1.00
Br984  Br    0.61451   0.86916   0.84000   0.00000  Uiso   1.00
Br985  Br    0.61424   0.79758   0.65996   0.00000  Uiso   1.00
Br986  Br    0.38576   0.86909   0.84003   0.00000  Uiso   1.00
C987   C     0.75343   0.83334   0.75000   0.00000  Uiso   1.00
C988   C     0.91324   0.83333   0.75000   0.00000  Uiso   1.00
C989   C     0.83325   0.75058   0.52321   0.00000  Uiso   1.00
C990   C     0.83342   0.91608   0.97679   0.00000  Uiso   1.00
C991   C     0.68830   0.81752   0.71205   0.00000  Uiso   1.00
C992   C     0.97836   0.84914   0.78795   0.00000  Uiso   1.00
C993   C     0.97824   0.81752   0.71205   0.00000  Uiso   1.00
C994   C     0.68842   0.84915   0.78795   0.00000  Uiso   1.00
C995   C     0.95734   0.83332   0.75000   0.00000  Uiso   1.00
C996   C     0.70933   0.83335   0.75000   0.00000  Uiso   1.00
C997   C     0.85754   0.69062   0.77959   0.00000  Uiso   1.00
C998   C     0.80912   0.97605   0.72041   0.00000  Uiso   1.00
C999   C     0.80912   0.69069   0.72041   0.00000  Uiso   1.00
C1000  C     0.85754   0.97598   0.77959   0.00000  Uiso   1.00
C1001  C     0.83327   0.83335   0.66327   0.00000  Uiso   1.00
C1002  C     0.83339   0.83332   0.83673   0.00000  Uiso   1.00
C1003  C     0.83349   0.87460   0.90755   0.00000  Uiso   1.00
C1004  C     0.83317   0.79206   0.59245   0.00000  Uiso   1.00
C1005  C     0.83346   0.83331   0.88468   0.00000  Uiso   1.00
C1006  C     0.83321   0.83335   0.61531   0.00000  Uiso   1.00
C1007  C     0.83345   0.79203   0.90761   0.00000  Uiso   1.00
C1008  C     0.83321   0.87463   0.59239   0.00000  Uiso   1.00
C1009  C     0.83340   0.79173   0.95369   0.00000  Uiso   1.00
C1010  C     0.83327   0.87494   0.54631   0.00000  Uiso   1.00
C1011  C     0.83338   0.83333   0.97683   0.00000  Uiso   1.00
C1012  C     0.83329   0.83334   0.52317   0.00000  Uiso   1.00
C1013  C     0.83344   0.87492   0.95362   0.00000  Uiso   1.00
C1014  C     0.83323   0.79174   0.54638   0.00000  Uiso   1.00
C1015  C     0.83334   0.75057   0.97692   0.00000  Uiso   1.00
C1016  C     0.83333   0.91609   0.52308   0.00000  Uiso   1.00
H1017  H     0.83354   0.90651   0.88959   0.00000  Uiso   1.00
H1018  H     0.83313   0.76015   0.61041   0.00000  Uiso   1.00
H1019  H     0.83346   0.76012   0.88970   0.00000  Uiso   1.00
H1020  H     0.83320   0.90655   0.61030   0.00000  Uiso   1.00
H1021  H     0.83335   0.71851   0.95933   0.00000  Uiso   1.00
H1022  H     0.83331   0.94816   0.54067   0.00000  Uiso   1.00
H1023  H     0.83320   0.71852   0.54085   0.00000  Uiso   1.00
H1024  H     0.83346   0.94815   0.95914   0.00000  Uiso   1.00
H1025  H     0.87689   0.70879   0.80323   0.00000  Uiso   1.00
H1026  H     0.78977   0.95788   0.69677   0.00000  Uiso   1.00
H1027  H     0.78977   0.70891   0.69677   0.00000  Uiso   1.00
H1028  H     0.87690   0.95776   0.80323   0.00000  Uiso   1.00
N1029  N     0.83333   0.95240   0.75000   0.00000  Uiso   1.00
N1030  N     0.83333   0.71427   0.75000   0.00000  Uiso   1.00
O1031  O     0.77226   0.87154   0.74999   0.00000  Uiso   1.00
O1032  O     0.89441   0.79513   0.75000   0.00000  Uiso   1.00
O1033  O     0.89441   0.87154   0.75000   0.00000  Uiso   1.00
O1034  O     0.77226   0.79513   0.74999   0.00000  Uiso   1.00
O1035  O     0.83333   0.87156   0.68392   0.00000  Uiso   1.00
O1036  O     0.83334   0.79511   0.81607   0.00000  Uiso   1.00
O1037  O     0.83334   0.87156   0.81607   0.00000  Uiso   1.00
O1038  O     0.83333   0.79511   0.68392   0.00000  Uiso   1.00
Zn1039 Zn    0.83333   0.88437   0.75000   0.00000  Uiso   1.00
Zn1040 Zn    0.83333   0.78229   0.75000   0.00000  Uiso   1.00
Br1041 Br    0.71882   0.79751   0.66000   0.00000  Uiso   1.00
Br1042 Br    0.94784   0.86916   0.84000   0.00000  Uiso   1.00
Br1043 Br    0.94757   0.79758   0.65996   0.00000  Uiso   1.00
Br1044 Br    0.71910   0.86909   0.84003   0.00000  Uiso   1.00
loop_
_geom_bond_atom_site_label_1
_geom_bond_atom_site_label_2
_geom_bond_distance
_geom_bond_site_symmetry_2
_ccdc_geom_bond_type
C1     O48     1.277   .     A
C1     O45     1.277   .     A
C1     C10     1.405   .     S
C2     O47     1.277   .     A
C2     O46     1.277   .     A
C2     C9      1.405   .     S
C3     C28     1.400   .     A
C3     H37     1.084   .     S
C3     C551    1.389   1_554 S
C4     C27     1.400   .     A
C4     H38     1.084   .     S
C4     C552    1.389   .     S
C5     C10     1.401   .     A
C5     Br55    1.934   .     S
C5     C123    1.383   1_455 S
C6     C9      1.401   .     A
C6     Br56    1.934   .     S
C6     C66     1.383   .     S
C7     Br57    1.934   .     S
C7     C9      1.401   .     A
C7     C63     1.383   .     S
C8     C10     1.401   .     A
C8     Br58    1.934   .     S
C8     C122    1.383   1_455 S
C11    H39     1.082   .     S
C11    N44     1.366   .     A
C11    C362    1.416   1_545 S
C12    H40     1.082   .     S
C12    N43     1.366   .     A
C12    C187    1.416   .     S
C13    H41     1.082   .     S
C13    N44     1.366   .     A
C13    C360    1.416   1_545 S
C14    H42     1.082   .     S
C14    N43     1.366   .     A
C14    C185    1.416   .     S
C15    O52     1.287   .     A
C15    O49     1.287   .     A
C15    C20     1.439   .     S
C16    O51     1.287   .     A
C16    C19     1.439   .     S
C16    O50     1.287   .     A
C17    C19     1.399   .     A
C17    H31     1.085   .     S
C17    C27     1.383   .     A
C18    H32     1.085   .     S
C18    C20     1.399   .     A
C18    C28     1.383   .     A
C19    C21     1.399   .     A
C20    C22     1.399   .     A
C21    C23     1.383   .     A
C21    H33     1.085   .     S
C22    H34     1.085   .     S
C22    C24     1.383   .     A
C23    C29     1.400   .     A
C23    C25     1.411   .     A
C24    C30     1.400   .     A
C24    C26     1.411   .     A
C25    C27     1.411   .     A
C25    C548    1.391   .     S
C26    C28     1.411   .     A
C26    C547    1.391   1_554 S
C29    H35     1.084   .     S
C29    C525    1.389   .     S
C30    H36     1.084   .     S
C30    C526    1.389   1_554 S
N43    Zn53    2.007   .     S
N44    Zn54    2.007   .     S
O45    Zn53    1.983   .     S
O46    Zn54    1.983   .     S
O47    Zn53    1.982   .     S
O48    Zn54    1.982   .     S
O49    Zn53    2.019   .     S
O50    Zn54    2.019   .     S
O51    Zn53    2.019   .     S
O52    Zn54    2.019   .     S
C59    O106    1.277   .     A
C59    O103    1.277   .     A
C59    C68     1.405   .     S
C60    O105    1.277   .     A
C60    O104    1.277   .     A
C60    C67     1.405   .     S
C61    C86     1.400   .     A
C61    H95     1.084   .     S
C61    C609    1.389   1_554 S
C62    C85     1.400   .     A
C62    H96     1.084   .     S
C62    C610    1.389   .     S
C63    C68     1.401   .     A
C63    Br113   1.934   .     S
C64    C67     1.401   .     A
C64    Br114   1.934   .     S
C64    C124    1.383   .     S
C65    Br115   1.934   .     S
C65    C67     1.401   .     A
C65    C121    1.383   .     S
C66    C68     1.401   .     A
C66    Br116   1.934   .     S
C69    H97     1.082   .     S
C69    N102    1.366   .     A
C69    C420    1.416   1_545 S
C70    H98     1.082   .     S
C70    N101    1.366   .     A
C70    C245    1.416   .     S
C71    H99     1.082   .     S
C71    N102    1.366   .     A
C71    C418    1.416   1_545 S
C72    H100    1.082   .     S
C72    N101    1.366   .     A
C72    C243    1.416   .     S
C73    O110    1.287   .     A
C73    O107    1.287   .     A
C73    C78     1.439   .     S
C74    O109    1.287   .     A
C74    C77     1.439   .     S
C74    O108    1.287   .     A
C75    C77     1.399   .     A
C75    H89     1.085   .     S
C75    C85     1.383   .     A
C76    H90     1.085   .     S
C76    C78     1.399   .     A
C76    C86     1.383   .     A
C77    C79     1.399   .     A
C78    C80     1.399   .     A
C79    C81     1.383   .     A
C79    H91     1.085   .     S
C80    H92     1.085   .     S
C80    C82     1.383   .     A
C81    C87     1.400   .     A
C81    C83     1.411   .     A
C82    C88     1.400   .     A
C82    C84     1.411   .     A
C83    C85     1.411   .     A
C83    C606    1.391   .     S
C84    C86     1.411   .     A
C84    C605    1.391   1_554 S
C87    H93     1.084   .     S
C87    C583    1.389   .     S
C88    H94     1.084   .     S
C88    C584    1.389   1_554 S
N101   Zn111   2.007   .     S
N102   Zn112   2.007   .     S
O103   Zn111   1.983   .     S
O104   Zn112   1.983   .     S
O105   Zn111   1.982   .     S
O106   Zn112   1.982   .     S
O107   Zn111   2.019   .     S
O108   Zn112   2.019   .     S
O109   Zn111   2.019   .     S
O110   Zn112   2.019   .     S
C117   O164    1.277   .     A
C117   O161    1.277   .     A
C117   C126    1.405   .     S
C118   O163    1.277   .     A
C118   O162    1.277   .     A
C118   C125    1.405   .     S
C119   C144    1.400   .     A
C119   H153    1.084   .     S
C119   C667    1.389   1_554 S
C120   C143    1.400   .     A
C120   H154    1.084   .     S
C120   C668    1.389   .     S
C121   C126    1.401   .     A
C121   Br171   1.934   .     S
C122   C125    1.401   .     A
C122   Br172   1.934   .     S
C122   C8      1.383   1_655 S
C123   Br173   1.934   .     S
C123   C125    1.401   .     A
C123   C5      1.383   1_655 S
C124   C126    1.401   .     A
C124   Br174   1.934   .     S
C127   H155    1.082   .     S
C127   N160    1.366   .     A
C127   C478    1.416   1_545 S
C128   H156    1.082   .     S
C128   N159    1.366   .     A
C128   C303    1.416   .     S
C129   H157    1.082   .     S
C129   N160    1.366   .     A
C129   C476    1.416   1_545 S
C130   H158    1.082   .     S
C130   N159    1.366   .     A
C130   C301    1.416   .     S
C131   O168    1.287   .     A
C131   O165    1.287   .     A
C131   C136    1.439   .     S
C132   O167    1.287   .     A
C132   C135    1.439   .     S
C132   O166    1.287   .     A
C133   C135    1.399   .     A
C133   H147    1.085   .     S
C133   C143    1.383   .     A
C134   H148    1.085   .     S
C134   C136    1.399   .     A
C134   C144    1.383   .     A
C135   C137    1.399   .     A
C136   C138    1.399   .     A
C137   C139    1.383   .     A
C137   H149    1.085   .     S
C138   H150    1.085   .     S
C138   C140    1.383   .     A
C139   C145    1.400   .     A
C139   C141    1.411   .     A
C140   C146    1.400   .     A
C140   C142    1.411   .     A
C141   C143    1.411   .     A
C141   C664    1.391   .     S
C142   C144    1.411   .     A
C142   C663    1.391   1_554 S
C145   H151    1.084   .     S
C145   C641    1.389   .     S
C146   H152    1.084   .     S
C146   C642    1.389   1_554 S
N159   Zn169   2.007   .     S
N160   Zn170   2.007   .     S
O161   Zn169   1.983   .     S
O162   Zn170   1.983   .     S
O163   Zn169   1.982   .     S
O164   Zn170   1.982   .     S
O165   Zn169   2.019   .     S
O166   Zn170   2.019   .     S
O167   Zn169   2.019   .     S
O168   Zn170   2.019   .     S
C175   O222    1.277   .     A
C175   O219    1.277   .     A
C175   C184    1.405   .     S
C176   O221    1.277   .     A
C176   O220    1.277   .     A
C176   C183    1.405   .     S
C177   C202    1.400   .     A
C177   H211    1.084   .     S
C177   C725    1.389   1_554 S
C178   C201    1.400   .     A
C178   H212    1.084   .     S
C178   C726    1.389   .     S
C179   C184    1.401   .     A
C179   Br229   1.934   .     S
C179   C297    1.383   1_455 S
C180   C183    1.401   .     A
C180   Br230   1.934   .     S
C180   C240    1.383   .     S
C181   Br231   1.934   .     S
C181   C183    1.401   .     A
C181   C237    1.383   .     S
C182   C184    1.401   .     A
C182   Br232   1.934   .     S
C182   C296    1.383   1_455 S
C185   H213    1.082   .     S
C185   N218    1.366   .     A
C186   H214    1.082   .     S
C186   N217    1.366   .     A
C186   C361    1.416   .     S
C187   H215    1.082   .     S
C187   N218    1.366   .     A
C188   H216    1.082   .     S
C188   N217    1.366   .     A
C188   C359    1.416   .     S
C189   O226    1.287   .     A
C189   O223    1.287   .     A
C189   C194    1.439   .     S
C190   O225    1.287   .     A
C190   C193    1.439   .     S
C190   O224    1.287   .     A
C191   C193    1.399   .     A
C191   H205    1.085   .     S
C191   C201    1.383   .     A
C192   H206    1.085   .     S
C192   C194    1.399   .     A
C192   C202    1.383   .     A
C193   C195    1.399   .     A
C194   C196    1.399   .     A
C195   C197    1.383   .     A
C195   H207    1.085   .     S
C196   H208    1.085   .     S
C196   C198    1.383   .     A
C197   C203    1.400   .     A
C197   C199    1.411   .     A
C198   C204    1.400   .     A
C198   C200    1.411   .     A
C199   C201    1.411   .     A
C199   C722    1.391   .     S
C200   C202    1.411   .     A
C200   C721    1.391   1_554 S
C203   H209    1.084   .     S
C203   C699    1.389   .     S
C204   H210    1.084   .     S
C204   C700    1.389   1_554 S
N217   Zn227   2.007   .     S
N218   Zn228   2.007   .     S
O219   Zn227   1.983   .     S
O220   Zn228   1.983   .     S
O221   Zn227   1.982   .     S
O222   Zn228   1.982   .     S
O223   Zn227   2.019   .     S
O224   Zn228   2.019   .     S
O225   Zn227   2.019   .     S
O226   Zn228   2.019   .     S
C233   O280    1.277   .     A
C233   O277    1.277   .     A
C233   C242    1.405   .     S
C234   O279    1.277   .     A
C234   O278    1.277   .     A
C234   C241    1.405   .     S
C235   C260    1.400   .     A
C235   H269    1.084   .     S
C235   C783    1.389   1_554 S
C236   C259    1.400   .     A
C236   H270    1.084   .     S
C236   C784    1.389   .     S
C237   C242    1.401   .     A
C237   Br287   1.934   .     S
C238   C241    1.401   .     A
C238   Br288   1.934   .     S
C238   C298    1.383   .     S
C239   Br289   1.934   .     S
C239   C241    1.401   .     A
C239   C295    1.383   .     S
C240   C242    1.401   .     A
C240   Br290   1.934   .     S
C243   H271    1.082   .     S
C243   N276    1.366   .     A
C244   H272    1.082   .     S
C244   N275    1.366   .     A
C244   C419    1.416   .     S
C245   H273    1.082   .     S
C245   N276    1.366   .     A
C246   H274    1.082   .     S
C246   N275    1.366   .     A
C246   C417    1.416   .     S
C247   O284    1.287   .     A
C247   O281    1.287   .     A
C247   C252    1.439   .     S
C248   O283    1.287   .     A
C248   C251    1.439   .     S
C248   O282    1.287   .     A
C249   C251    1.399   .     A
C249   H263    1.085   .     S
C249   C259    1.383   .     A
C250   H264    1.085   .     S
C250   C252    1.399   .     A
C250   C260    1.383   .     A
C251   C253    1.399   .     A
C252   C254    1.399   .     A
C253   C255    1.383   .     A
C253   H265    1.085   .     S
C254   H266    1.085   .     S
C254   C256    1.383   .     A
C255   C261    1.400   .     A
C255   C257    1.411   .     A
C256   C262    1.400   .     A
C256   C258    1.411   .     A
C257   C259    1.411   .     A
C257   C780    1.391   .     S
C258   C260    1.411   .     A
C258   C779    1.391   1_554 S
C261   H267    1.084   .     S
C261   C757    1.389   .     S
C262   H268    1.084   .     S
C262   C758    1.389   1_554 S
N275   Zn285   2.007   .     S
N276   Zn286   2.007   .     S
O277   Zn285   1.983   .     S
O278   Zn286   1.983   .     S
O279   Zn285   1.982   .     S
O280   Zn286   1.982   .     S
O281   Zn285   2.019   .     S
O282   Zn286   2.019   .     S
O283   Zn285   2.019   .     S
O284   Zn286   2.019   .     S
C291   O338    1.277   .     A
C291   O335    1.277   .     A
C291   C300    1.405   .     S
C292   O337    1.277   .     A
C292   O336    1.277   .     A
C292   C299    1.405   .     S
C293   C318    1.400   .     A
C293   H327    1.084   .     S
C293   C841    1.389   1_554 S
C294   C317    1.400   .     A
C294   H328    1.084   .     S
C294   C842    1.389   .     S
C295   C300    1.401   .     A
C295   Br345   1.934   .     S
C296   C299    1.401   .     A
C296   Br346   1.934   .     S
C296   C182    1.383   1_655 S
C297   Br347   1.934   .     S
C297   C299    1.401   .     A
C297   C179    1.383   1_655 S
C298   C300    1.401   .     A
C298   Br348   1.934   .     S
C301   H329    1.082   .     S
C301   N334    1.366   .     A
C302   H330    1.082   .     S
C302   N333    1.366   .     A
C302   C477    1.416   .     S
C303   H331    1.082   .     S
C303   N334    1.366   .     A
C304   H332    1.082   .     S
C304   N333    1.366   .     A
C304   C475    1.416   .     S
C305   O342    1.287   .     A
C305   O339    1.287   .     A
C305   C310    1.439   .     S
C306   O341    1.287   .     A
C306   C309    1.439   .     S
C306   O340    1.287   .     A
C307   C309    1.399   .     A
C307   H321    1.085   .     S
C307   C317    1.383   .     A
C308   H322    1.085   .     S
C308   C310    1.399   .     A
C308   C318    1.383   .     A
C309   C311    1.399   .     A
C310   C312    1.399   .     A
C311   C313    1.383   .     A
C311   H323    1.085   .     S
C312   H324    1.085   .     S
C312   C314    1.383   .     A
C313   C319    1.400   .     A
C313   C315    1.411   .     A
C314   C320    1.400   .     A
C314   C316    1.411   .     A
C315   C317    1.411   .     A
C315   C838    1.391   .     S
C316   C318    1.411   .     A
C316   C837    1.391   1_554 S
C319   H325    1.084   .     S
C319   C815    1.389   .     S
C320   H326    1.084   .     S
C320   C816    1.389   1_554 S
N333   Zn343   2.007   .     S
N334   Zn344   2.007   .     S
O335   Zn343   1.983   .     S
O336   Zn344   1.983   .     S
O337   Zn343   1.982   .     S
O338   Zn344   1.982   .     S
O339   Zn343   2.019   .     S
O340   Zn344   2.019   .     S
O341   Zn343   2.019   .     S
O342   Zn344   2.019   .     S
C349   O396    1.277   .     A
C349   O393    1.277   .     A
C349   C358    1.405   .     S
C350   O395    1.277   .     A
C350   O394    1.277   .     A
C350   C357    1.405   .     S
C351   C376    1.400   .     A
C351   H385    1.084   .     S
C351   C899    1.389   1_554 S
C352   C375    1.400   .     A
C352   H386    1.084   .     S
C352   C900    1.389   .     S
C353   C358    1.401   .     A
C353   Br403   1.934   .     S
C353   C471    1.383   1_455 S
C354   C357    1.401   .     A
C354   Br404   1.934   .     S
C354   C414    1.383   .     S
C355   Br405   1.934   .     S
C355   C357    1.401   .     A
C355   C411    1.383   .     S
C356   C358    1.401   .     A
C356   Br406   1.934   .     S
C356   C470    1.383   1_455 S
C359   H387    1.082   .     S
C359   N392    1.366   .     A
C360   H388    1.082   .     S
C360   N391    1.366   .     A
C360   C13     1.416   1_565 S
C361   H389    1.082   .     S
C361   N392    1.366   .     A
C362   H390    1.082   .     S
C362   N391    1.366   .     A
C362   C11     1.416   1_565 S
C363   O400    1.287   .     A
C363   O397    1.287   .     A
C363   C368    1.439   .     S
C364   O399    1.287   .     A
C364   C367    1.439   .     S
C364   O398    1.287   .     A
C365   C367    1.399   .     A
C365   H379    1.085   .     S
C365   C375    1.383   .     A
C366   H380    1.085   .     S
C366   C368    1.399   .     A
C366   C376    1.383   .     A
C367   C369    1.399   .     A
C368   C370    1.399   .     A
C369   C371    1.383   .     A
C369   H381    1.085   .     S
C370   H382    1.085   .     S
C370   C372    1.383   .     A
C371   C377    1.400   .     A
C371   C373    1.411   .     A
C372   C378    1.400   .     A
C372   C374    1.411   .     A
C373   C375    1.411   .     A
C373   C896    1.391   .     S
C374   C376    1.411   .     A
C374   C895    1.391   1_554 S
C377   H383    1.084   .     S
C377   C873    1.389   .     S
C378   H384    1.084   .     S
C378   C874    1.389   1_554 S
N391   Zn401   2.007   .     S
N392   Zn402   2.007   .     S
O393   Zn401   1.983   .     S
O394   Zn402   1.983   .     S
O395   Zn401   1.982   .     S
O396   Zn402   1.982   .     S
O397   Zn401   2.019   .     S
O398   Zn402   2.019   .     S
O399   Zn401   2.019   .     S
O400   Zn402   2.019   .     S
C407   O454    1.277   .     A
C407   O451    1.277   .     A
C407   C416    1.405   .     S
C408   O453    1.277   .     A
C408   O452    1.277   .     A
C408   C415    1.405   .     S
C409   C434    1.400   .     A
C409   H443    1.084   .     S
C409   C957    1.389   1_554 S
C410   C433    1.400   .     A
C410   H444    1.084   .     S
C410   C958    1.389   .     S
C411   C416    1.401   .     A
C411   Br461   1.934   .     S
C412   C415    1.401   .     A
C412   Br462   1.934   .     S
C412   C472    1.383   .     S
C413   Br463   1.934   .     S
C413   C415    1.401   .     A
C413   C469    1.383   .     S
C414   C416    1.401   .     A
C414   Br464   1.934   .     S
C417   H445    1.082   .     S
C417   N450    1.366   .     A
C418   H446    1.082   .     S
C418   N449    1.366   .     A
C418   C71     1.416   1_565 S
C419   H447    1.082   .     S
C419   N450    1.366   .     A
C420   H448    1.082   .     S
C420   N449    1.366   .     A
C420   C69     1.416   1_565 S
C421   O458    1.287   .     A
C421   O455    1.287   .     A
C421   C426    1.439   .     S
C422   O457    1.287   .     A
C422   C425    1.439   .     S
C422   O456    1.287   .     A
C423   C425    1.399   .     A
C423   H437    1.085   .     S
C423   C433    1.383   .     A
C424   H438    1.085   .     S
C424   C426    1.399   .     A
C424   C434    1.383   .     A
C425   C427    1.399   .     A
C426   C428    1.399   .     A
C427   C429    1.383   .     A
C427   H439    1.085   .     S
C428   H440    1.085   .     S
C428   C430    1.383   .     A
C429   C435    1.400   .     A
C429   C431    1.411   .     A
C430   C436    1.400   .     A
C430   C432    1.411   .     A
C431   C433    1.411   .     A
C431   C954    1.391   .     S
C432   C434    1.411   .     A
C432   C953    1.391   1_554 S
C435   H441    1.084   .     S
C435   C931    1.389   .     S
C436   H442    1.084   .     S
C436   C932    1.389   1_554 S
N449   Zn459   2.007   .     S
N450   Zn460   2.007   .     S
O451   Zn459   1.983   .     S
O452   Zn460   1.983   .     S
O453   Zn459   1.982   .     S
O454   Zn460   1.982   .     S
O455   Zn459   2.019   .     S
O456   Zn460   2.019   .     S
O457   Zn459   2.019   .     S
O458   Zn460   2.019   .     S
C465   O512    1.277   .     A
C465   O509    1.277   .     A
C465   C474    1.405   .     S
C466   O511    1.277   .     A
C466   O510    1.277   .     A
C466   C473    1.405   .     S
C467   C492    1.400   .     A
C467   H501    1.084   .     S
C467   C1015   1.389   1_554 S
C468   C491    1.400   .     A
C468   H502    1.084   .     S
C468   C1016   1.389   .     S
C469   C474    1.401   .     A
C469   Br519   1.934   .     S
C470   C473    1.401   .     A
C470   Br520   1.934   .     S
C470   C356    1.383   1_655 S
C471   Br521   1.934   .     S
C471   C473    1.401   .     A
C471   C353    1.383   1_655 S
C472   C474    1.401   .     A
C472   Br522   1.934   .     S
C475   H503    1.082   .     S
C475   N508    1.366   .     A
C476   H504    1.082   .     S
C476   N507    1.366   .     A
C476   C129    1.416   1_565 S
C477   H505    1.082   .     S
C477   N508    1.366   .     A
C478   H506    1.082   .     S
C478   N507    1.366   .     A
C478   C127    1.416   1_565 S
C479   O516    1.287   .     A
C479   O513    1.287   .     A
C479   C484    1.439   .     S
C480   O515    1.287   .     A
C480   C483    1.439   .     S
C480   O514    1.287   .     A
C481   C483    1.399   .     A
C481   H495    1.085   .     S
C481   C491    1.383   .     A
C482   H496    1.085   .     S
C482   C484    1.399   .     A
C482   C492    1.383   .     A
C483   C485    1.399   .     A
C484   C486    1.399   .     A
C485   C487    1.383   .     A
C485   H497    1.085   .     S
C486   H498    1.085   .     S
C486   C488    1.383   .     A
C487   C493    1.400   .     A
C487   C489    1.411   .     A
C488   C494    1.400   .     A
C488   C490    1.411   .     A
C489   C491    1.411   .     A
C489   C1012   1.391   .     S
C490   C492    1.411   .     A
C490   C1011   1.391   1_554 S
C493   H499    1.084   .     S
C493   C989    1.389   .     S
C494   H500    1.084   .     S
C494   C990    1.389   1_554 S
N507   Zn517   2.007   .     S
N508   Zn518   2.007   .     S
O509   Zn517   1.983   .     S
O510   Zn518   1.983   .     S
O511   Zn517   1.982   .     S
O512   Zn518   1.982   .     S
O513   Zn517   2.019   .     S
O514   Zn518   2.019   .     S
O515   Zn517   2.019   .     S
O516   Zn518   2.019   .     S
C523   O570    1.277   .     A
C523   O567    1.277   .     A
C523   C532    1.405   .     S
C524   O569    1.277   .     A
C524   O568    1.277   .     A
C524   C531    1.405   .     S
C525   C550    1.400   .     A
C525   H559    1.084   .     S
C526   C549    1.400   .     A
C526   H560    1.084   .     S
C526   C30     1.389   1_556 S
C527   C532    1.401   .     A
C527   Br577   1.934   .     S
C527   C645    1.383   1_455 S
C528   C531    1.401   .     A
C528   Br578   1.934   .     S
C528   C588    1.383   .     S
C529   Br579   1.934   .     S
C529   C531    1.401   .     A
C529   C585    1.383   .     S
C530   C532    1.401   .     A
C530   Br580   1.934   .     S
C530   C644    1.383   1_455 S
C533   H561    1.082   .     S
C533   N566    1.366   .     A
C533   C884    1.416   1_545 S
C534   H562    1.082   .     S
C534   N565    1.366   .     A
C534   C709    1.416   .     S
C535   H563    1.082   .     S
C535   N566    1.366   .     A
C535   C882    1.416   1_545 S
C536   H564    1.082   .     S
C536   N565    1.366   .     A
C536   C707    1.416   .     S
C537   O574    1.287   .     A
C537   O571    1.287   .     A
C537   C542    1.439   .     S
C538   O573    1.287   .     A
C538   C541    1.439   .     S
C538   O572    1.287   .     A
C539   C541    1.399   .     A
C539   H553    1.085   .     S
C539   C549    1.383   .     A
C540   H554    1.085   .     S
C540   C542    1.399   .     A
C540   C550    1.383   .     A
C541   C543    1.399   .     A
C542   C544    1.399   .     A
C543   C545    1.383   .     A
C543   H555    1.085   .     S
C544   H556    1.085   .     S
C544   C546    1.383   .     A
C545   C551    1.400   .     A
C545   C547    1.411   .     A
C546   C552    1.400   .     A
C546   C548    1.411   .     A
C547   C549    1.411   .     A
C547   C26     1.391   1_556 S
C548   C550    1.411   .     A
C551   H557    1.084   .     S
C551   C3      1.389   1_556 S
C552   H558    1.084   .     S
N565   Zn575   2.007   .     S
N566   Zn576   2.007   .     S
O567   Zn575   1.983   .     S
O568   Zn576   1.983   .     S
O569   Zn575   1.982   .     S
O570   Zn576   1.982   .     S
O571   Zn575   2.019   .     S
O572   Zn576   2.019   .     S
O573   Zn575   2.019   .     S
O574   Zn576   2.019   .     S
C581   O628    1.277   .     A
C581   O625    1.277   .     A
C581   C590    1.405   .     S
C582   O627    1.277   .     A
C582   O626    1.277   .     A
C582   C589    1.405   .     S
C583   C608    1.400   .     A
C583   H617    1.084   .     S
C584   C607    1.400   .     A
C584   H618    1.084   .     S
C584   C88     1.389   1_556 S
C585   C590    1.401   .     A
C585   Br635   1.934   .     S
C586   C589    1.401   .     A
C586   Br636   1.934   .     S
C586   C646    1.383   .     S
C587   Br637   1.934   .     S
C587   C589    1.401   .     A
C587   C643    1.383   .     S
C588   C590    1.401   .     A
C588   Br638   1.934   .     S
C591   H619    1.082   .     S
C591   N624    1.366   .     A
C591   C942    1.416   1_545 S
C592   H620    1.082   .     S
C592   N623    1.366   .     A
C592   C767    1.416   .     S
C593   H621    1.082   .     S
C593   N624    1.366   .     A
C593   C940    1.416   1_545 S
C594   H622    1.082   .     S
C594   N623    1.366   .     A
C594   C765    1.416   .     S
C595   O632    1.287   .     A
C595   O629    1.287   .     A
C595   C600    1.439   .     S
C596   O631    1.287   .     A
C596   C599    1.439   .     S
C596   O630    1.287   .     A
C597   C599    1.399   .     A
C597   H611    1.085   .     S
C597   C607    1.383   .     A
C598   H612    1.085   .     S
C598   C600    1.399   .     A
C598   C608    1.383   .     A
C599   C601    1.399   .     A
C600   C602    1.399   .     A
C601   C603    1.383   .     A
C601   H613    1.085   .     S
C602   H614    1.085   .     S
C602   C604    1.383   .     A
C603   C609    1.400   .     A
C603   C605    1.411   .     A
C604   C610    1.400   .     A
C604   C606    1.411   .     A
C605   C607    1.411   .     A
C605   C84     1.391   1_556 S
C606   C608    1.411   .     A
C609   H615    1.084   .     S
C609   C61     1.389   1_556 S
C610   H616    1.084   .     S
N623   Zn633   2.007   .     S
N624   Zn634   2.007   .     S
O625   Zn633   1.983   .     S
O626   Zn634   1.983   .     S
O627   Zn633   1.982   .     S
O628   Zn634   1.982   .     S
O629   Zn633   2.019   .     S
O630   Zn634   2.019   .     S
O631   Zn633   2.019   .     S
O632   Zn634   2.019   .     S
C639   O686    1.277   .     A
C639   O683    1.277   .     A
C639   C648    1.405   .     S
C640   O685    1.277   .     A
C640   O684    1.277   .     A
C640   C647    1.405   .     S
C641   C666    1.400   .     A
C641   H675    1.084   .     S
C642   C665    1.400   .     A
C642   H676    1.084   .     S
C642   C146    1.389   1_556 S
C643   C648    1.401   .     A
C643   Br693   1.934   .     S
C644   C647    1.401   .     A
C644   Br694   1.934   .     S
C644   C530    1.383   1_655 S
C645   Br695   1.934   .     S
C645   C647    1.401   .     A
C645   C527    1.383   1_655 S
C646   C648    1.401   .     A
C646   Br696   1.934   .     S
C649   H677    1.082   .     S
C649   N682    1.366   .     A
C649   C1000   1.416   1_545 S
C650   H678    1.082   .     S
C650   N681    1.366   .     A
C650   C825    1.416   .     S
C651   H679    1.082   .     S
C651   N682    1.366   .     A
C651   C998    1.416   1_545 S
C652   H680    1.082   .     S
C652   N681    1.366   .     A
C652   C823    1.416   .     S
C653   O690    1.287   .     A
C653   O687    1.287   .     A
C653   C658    1.439   .     S
C654   O689    1.287   .     A
C654   C657    1.439   .     S
C654   O688    1.287   .     A
C655   C657    1.399   .     A
C655   H669    1.085   .     S
C655   C665    1.383   .     A
C656   H670    1.085   .     S
C656   C658    1.399   .     A
C656   C666    1.383   .     A
C657   C659    1.399   .     A
C658   C660    1.399   .     A
C659   C661    1.383   .     A
C659   H671    1.085   .     S
C660   H672    1.085   .     S
C660   C662    1.383   .     A
C661   C667    1.400   .     A
C661   C663    1.411   .     A
C662   C668    1.400   .     A
C662   C664    1.411   .     A
C663   C665    1.411   .     A
C663   C142    1.391   1_556 S
C664   C666    1.411   .     A
C667   H673    1.084   .     S
C667   C119    1.389   1_556 S
C668   H674    1.084   .     S
N681   Zn691   2.007   .     S
N682   Zn692   2.007   .     S
O683   Zn691   1.983   .     S
O684   Zn692   1.983   .     S
O685   Zn691   1.982   .     S
O686   Zn692   1.982   .     S
O687   Zn691   2.019   .     S
O688   Zn692   2.019   .     S
O689   Zn691   2.019   .     S
O690   Zn692   2.019   .     S
C697   O744    1.277   .     A
C697   O741    1.277   .     A
C697   C706    1.405   .     S
C698   O743    1.277   .     A
C698   O742    1.277   .     A
C698   C705    1.405   .     S
C699   C724    1.400   .     A
C699   H733    1.084   .     S
C700   C723    1.400   .     A
C700   H734    1.084   .     S
C700   C204    1.389   1_556 S
C701   C706    1.401   .     A
C701   Br751   1.934   .     S
C701   C819    1.383   1_455 S
C702   C705    1.401   .     A
C702   Br752   1.934   .     S
C702   C762    1.383   .     S
C703   Br753   1.934   .     S
C703   C705    1.401   .     A
C703   C759    1.383   .     S
C704   C706    1.401   .     A
C704   Br754   1.934   .     S
C704   C818    1.383   1_455 S
C707   H735    1.082   .     S
C707   N740    1.366   .     A
C708   H736    1.082   .     S
C708   N739    1.366   .     A
C708   C883    1.416   .     S
C709   H737    1.082   .     S
C709   N740    1.366   .     A
C710   H738    1.082   .     S
C710   N739    1.366   .     A
C710   C881    1.416   .     S
C711   O748    1.287   .     A
C711   O745    1.287   .     A
C711   C716    1.439   .     S
C712   O747    1.287   .     A
C712   C715    1.439   .     S
C712   O746    1.287   .     A
C713   C715    1.399   .     A
C713   H727    1.085   .     S
C713   C723    1.383   .     A
C714   H728    1.085   .     S
C714   C716    1.399   .     A
C714   C724    1.383   .     A
C715   C717    1.399   .     A
C716   C718    1.399   .     A
C717   C719    1.383   .     A
C717   H729    1.085   .     S
C718   H730    1.085   .     S
C718   C720    1.383   .     A
C719   C725    1.400   .     A
C719   C721    1.411   .     A
C720   C726    1.400   .     A
C720   C722    1.411   .     A
C721   C723    1.411   .     A
C721   C200    1.391   1_556 S
C722   C724    1.411   .     A
C725   H731    1.084   .     S
C725   C177    1.389   1_556 S
C726   H732    1.084   .     S
N739   Zn749   2.007   .     S
N740   Zn750   2.007   .     S
O741   Zn749   1.983   .     S
O742   Zn750   1.983   .     S
O743   Zn749   1.982   .     S
O744   Zn750   1.982   .     S
O745   Zn749   2.019   .     S
O746   Zn750   2.019   .     S
O747   Zn749   2.019   .     S
O748   Zn750   2.019   .     S
C755   O802    1.277   .     A
C755   O799    1.277   .     A
C755   C764    1.405   .     S
C756   O801    1.277   .     A
C756   O800    1.277   .     A
C756   C763    1.405   .     S
C757   C782    1.400   .     A
C757   H791    1.084   .     S
C758   C781    1.400   .     A
C758   H792    1.084   .     S
C758   C262    1.389   1_556 S
C759   C764    1.401   .     A
C759   Br809   1.934   .     S
C760   C763    1.401   .     A
C760   Br810   1.934   .     S
C760   C820    1.383   .     S
C761   Br811   1.934   .     S
C761   C763    1.401   .     A
C761   C817    1.383   .     S
C762   C764    1.401   .     A
C762   Br812   1.934   .     S
C765   H793    1.082   .     S
C765   N798    1.366   .     A
C766   H794    1.082   .     S
C766   N797    1.366   .     A
C766   C941    1.416   .     S
C767   H795    1.082   .     S
C767   N798    1.366   .     A
C768   H796    1.082   .     S
C768   N797    1.366   .     A
C768   C939    1.416   .     S
C769   O806    1.287   .     A
C769   O803    1.287   .     A
C769   C774    1.439   .     S
C770   O805    1.287   .     A
C770   C773    1.439   .     S
C770   O804    1.287   .     A
C771   C773    1.399   .     A
C771   H785    1.085   .     S
C771   C781    1.383   .     A
C772   H786    1.085   .     S
C772   C774    1.399   .     A
C772   C782    1.383   .     A
C773   C775    1.399   .     A
C774   C776    1.399   .     A
C775   C777    1.383   .     A
C775   H787    1.085   .     S
C776   H788    1.085   .     S
C776   C778    1.383   .     A
C777   C783    1.400   .     A
C777   C779    1.411   .     A
C778   C784    1.400   .     A
C778   C780    1.411   .     A
C779   C781    1.411   .     A
C779   C258    1.391   1_556 S
C780   C782    1.411   .     A
C783   H789    1.084   .     S
C783   C235    1.389   1_556 S
C784   H790    1.084   .     S
N797   Zn807   2.007   .     S
N798   Zn808   2.007   .     S
O799   Zn807   1.983   .     S
O800   Zn808   1.983   .     S
O801   Zn807   1.982   .     S
O802   Zn808   1.982   .     S
O803   Zn807   2.019   .     S
O804   Zn808   2.019   .     S
O805   Zn807   2.019   .     S
O806   Zn808   2.019   .     S
C813   O860    1.277   .     A
C813   O857    1.277   .     A
C813   C822    1.405   .     S
C814   O859    1.277   .     A
C814   O858    1.277   .     A
C814   C821    1.405   .     S
C815   C840    1.400   .     A
C815   H849    1.084   .     S
C816   C839    1.400   .     A
C816   H850    1.084   .     S
C816   C320    1.389   1_556 S
C817   C822    1.401   .     A
C817   Br867   1.934   .     S
C818   C821    1.401   .     A
C818   Br868   1.934   .     S
C818   C704    1.383   1_655 S
C819   Br869   1.934   .     S
C819   C821    1.401   .     A
C819   C701    1.383   1_655 S
C820   C822    1.401   .     A
C820   Br870   1.934   .     S
C823   H851    1.082   .     S
C823   N856    1.366   .     A
C824   H852    1.082   .     S
C824   N855    1.366   .     A
C824   C999    1.416   .     S
C825   H853    1.082   .     S
C825   N856    1.366   .     A
C826   H854    1.082   .     S
C826   N855    1.366   .     A
C826   C997    1.416   .     S
C827   O864    1.287   .     A
C827   O861    1.287   .     A
C827   C832    1.439   .     S
C828   O863    1.287   .     A
C828   C831    1.439   .     S
C828   O862    1.287   .     A
C829   C831    1.399   .     A
C829   H843    1.085   .     S
C829   C839    1.383   .     A
C830   H844    1.085   .     S
C830   C832    1.399   .     A
C830   C840    1.383   .     A
C831   C833    1.399   .     A
C832   C834    1.399   .     A
C833   C835    1.383   .     A
C833   H845    1.085   .     S
C834   H846    1.085   .     S
C834   C836    1.383   .     A
C835   C841    1.400   .     A
C835   C837    1.411   .     A
C836   C842    1.400   .     A
C836   C838    1.411   .     A
C837   C839    1.411   .     A
C837   C316    1.391   1_556 S
C838   C840    1.411   .     A
C841   H847    1.084   .     S
C841   C293    1.389   1_556 S
C842   H848    1.084   .     S
N855   Zn865   2.007   .     S
N856   Zn866   2.007   .     S
O857   Zn865   1.983   .     S
O858   Zn866   1.983   .     S
O859   Zn865   1.982   .     S
O860   Zn866   1.982   .     S
O861   Zn865   2.019   .     S
O862   Zn866   2.019   .     S
O863   Zn865   2.019   .     S
O864   Zn866   2.019   .     S
C871   O918    1.277   .     A
C871   O915    1.277   .     A
C871   C880    1.405   .     S
C872   O917    1.277   .     A
C872   O916    1.277   .     A
C872   C879    1.405   .     S
C873   C898    1.400   .     A
C873   H907    1.084   .     S
C874   C897    1.400   .     A
C874   H908    1.084   .     S
C874   C378    1.389   1_556 S
C875   C880    1.401   .     A
C875   Br925   1.934   .     S
C875   C993    1.383   1_455 S
C876   C879    1.401   .     A
C876   Br926   1.934   .     S
C876   C936    1.383   .     S
C877   Br927   1.934   .     S
C877   C879    1.401   .     A
C877   C933    1.383   .     S
C878   C880    1.401   .     A
C878   Br928   1.934   .     S
C878   C992    1.383   1_455 S
C881   H909    1.082   .     S
C881   N914    1.366   .     A
C882   H910    1.082   .     S
C882   N913    1.366   .     A
C882   C535    1.416   1_565 S
C883   H911    1.082   .     S
C883   N914    1.366   .     A
C884   H912    1.082   .     S
C884   N913    1.366   .     A
C884   C533    1.416   1_565 S
C885   O922    1.287   .     A
C885   O919    1.287   .     A
C885   C890    1.439   .     S
C886   O921    1.287   .     A
C886   C889    1.439   .     S
C886   O920    1.287   .     A
C887   C889    1.399   .     A
C887   H901    1.085   .     S
C887   C897    1.383   .     A
C888   H902    1.085   .     S
C888   C890    1.399   .     A
C888   C898    1.383   .     A
C889   C891    1.399   .     A
C890   C892    1.399   .     A
C891   C893    1.383   .     A
C891   H903    1.085   .     S
C892   H904    1.085   .     S
C892   C894    1.383   .     A
C893   C899    1.400   .     A
C893   C895    1.411   .     A
C894   C900    1.400   .     A
C894   C896    1.411   .     A
C895   C897    1.411   .     A
C895   C374    1.391   1_556 S
C896   C898    1.411   .     A
C899   H905    1.084   .     S
C899   C351    1.389   1_556 S
C900   H906    1.084   .     S
N913   Zn923   2.007   .     S
N914   Zn924   2.007   .     S
O915   Zn923   1.983   .     S
O916   Zn924   1.983   .     S
O917   Zn923   1.982   .     S
O918   Zn924   1.982   .     S
O919   Zn923   2.019   .     S
O920   Zn924   2.019   .     S
O921   Zn923   2.019   .     S
O922   Zn924   2.019   .     S
C929   O976    1.277   .     A
C929   O973    1.277   .     A
C929   C938    1.405   .     S
C930   O975    1.277   .     A
C930   O974    1.277   .     A
C930   C937    1.405   .     S
C931   C956    1.400   .     A
C931   H965    1.084   .     S
C932   C955    1.400   .     A
C932   H966    1.084   .     S
C932   C436    1.389   1_556 S
C933   C938    1.401   .     A
C933   Br983   1.934   .     S
C934   C937    1.401   .     A
C934   Br984   1.934   .     S
C934   C994    1.383   .     S
C935   Br985   1.934   .     S
C935   C937    1.401   .     A
C935   C991    1.383   .     S
C936   C938    1.401   .     A
C936   Br986   1.934   .     S
C939   H967    1.082   .     S
C939   N972    1.366   .     A
C940   H968    1.082   .     S
C940   N971    1.366   .     A
C940   C593    1.416   1_565 S
C941   H969    1.082   .     S
C941   N972    1.366   .     A
C942   H970    1.082   .     S
C942   N971    1.366   .     A
C942   C591    1.416   1_565 S
C943   O980    1.287   .     A
C943   O977    1.287   .     A
C943   C948    1.439   .     S
C944   O979    1.287   .     A
C944   C947    1.439   .     S
C944   O978    1.287   .     A
C945   C947    1.399   .     A
C945   H959    1.085   .     S
C945   C955    1.383   .     A
C946   H960    1.085   .     S
C946   C948    1.399   .     A
C946   C956    1.383   .     A
C947   C949    1.399   .     A
C948   C950    1.399   .     A
C949   C951    1.383   .     A
C949   H961    1.085   .     S
C950   H962    1.085   .     S
C950   C952    1.383   .     A
C951   C957    1.400   .     A
C951   C953    1.411   .     A
C952   C958    1.400   .     A
C952   C954    1.411   .     A
C953   C955    1.411   .     A
C953   C432    1.391   1_556 S
C954   C956    1.411   .     A
C957   H963    1.084   .     S
C957   C409    1.389   1_556 S
C958   H964    1.084   .     S
N971   Zn981   2.007   .     S
N972   Zn982   2.007   .     S
O973   Zn981   1.983   .     S
O974   Zn982   1.983   .     S
O975   Zn981   1.982   .     S
O976   Zn982   1.982   .     S
O977   Zn981   2.019   .     S
O978   Zn982   2.019   .     S
O979   Zn981   2.019   .     S
O980   Zn982   2.019   .     S
C987   O1034   1.277   .     A
C987   O1031   1.277   .     A
C987   C996    1.405   .     S
C988   O1033   1.277   .     A
C988   O1032   1.277   .     A
C988   C995    1.405   .     S
C989   C1014   1.400   .     A
C989   H1023   1.084   .     S
C990   C1013   1.400   .     A
C990   H1024   1.084   .     S
C990   C494    1.389   1_556 S
C991   C996    1.401   .     A
C991   Br1041  1.934   .     S
C992   C995    1.401   .     A
C992   Br1042  1.934   .     S
C992   C878    1.383   1_655 S
C993   Br1043  1.934   .     S
C993   C995    1.401   .     A
C993   C875    1.383   1_655 S
C994   C996    1.401   .     A
C994   Br1044  1.934   .     S
C997   H1025   1.082   .     S
C997   N1030   1.366   .     A
C998   H1026   1.082   .     S
C998   N1029   1.366   .     A
C998   C651    1.416   1_565 S
C999   H1027   1.082   .     S
C999   N1030   1.366   .     A
C1000  H1028   1.082   .     S
C1000  N1029   1.366   .     A
C1000  C649    1.416   1_565 S
C1001  O1038   1.287   .     A
C1001  O1035   1.287   .     A
C1001  C1006   1.439   .     S
C1002  O1037   1.287   .     A
C1002  C1005   1.439   .     S
C1002  O1036   1.287   .     A
C1003  C1005   1.399   .     A
C1003  H1017   1.085   .     S
C1003  C1013   1.383   .     A
C1004  H1018   1.085   .     S
C1004  C1006   1.399   .     A
C1004  C1014   1.383   .     A
C1005  C1007   1.399   .     A
C1006  C1008   1.399   .     A
C1007  C1009   1.383   .     A
C1007  H1019   1.085   .     S
C1008  H1020   1.085   .     S
C1008  C1010   1.383   .     A
C1009  C1015   1.400   .     A
C1009  C1011   1.411   .     A
C1010  C1016   1.400   .     A
C1010  C1012   1.411   .     A
C1011  C1013   1.411   .     A
C1011  C490    1.391   1_556 S
C1012  C1014   1.411   .     A
C1015  H1021   1.084   .     S
C1015  C467    1.389   1_556 S
C1016  H1022   1.084   .     S
N1029  Zn1039  2.007   .     S
N1030  Zn1040  2.007   .     S
O1031  Zn1039  1.983   .     S
O1032  Zn1040  1.983   .     S
O1033  Zn1039  1.982   .     S
O1034  Zn1040  1.982   .     S
O1035  Zn1039  2.019   .     S
O1036  Zn1040  2.019   .     S
O1037  Zn1039  2.019   .     S
O1038  Zn1040  2.019   .     S
