data_str_m3_o5_o17_pcu_sym.28
_audit_creation_date              2020-01-03
_audit_creation_method            'Materials Studio'
_symmetry_space_group_name_H-M    'P1'
_symmetry_Int_Tables_number       1
_symmetry_cell_setting            triclinic
loop_
_symmetry_equiv_pos_as_xyz
  x,y,z
_cell_length_a                    30.1099
_cell_length_b                    26.7878
_cell_length_c                    24.2989
_cell_angle_alpha                 89.8459
_cell_angle_beta                  89.4124
_cell_angle_gamma                 90.1138
loop_
_atom_site_label
_atom_site_type_symbol
_atom_site_fract_x
_atom_site_fract_y
_atom_site_fract_z
_atom_site_U_iso_or_equiv
_atom_site_adp_type
_atom_site_occupancy
O1     O     0.25000   0.09512   0.21228   0.00000  Uiso   1.00
O2     O     0.25000   0.23822   0.12105   0.00000  Uiso   1.00
O3     O     0.25000   0.23822   0.21228   0.00000  Uiso   1.00
O4     O     0.25000   0.09512   0.12105   0.00000  Uiso   1.00
H5     H     0.45914   0.07125   0.25889   0.00000  Uiso   1.00
H6     H     0.04090   0.26068   0.07277   0.00000  Uiso   1.00
H7     H     0.46200   0.25964   0.07105   0.00000  Uiso   1.00
H8     H     0.03803   0.07091   0.25905   0.00000  Uiso   1.00
C9     C     0.24994   0.07266   0.16672   0.00000  Uiso   1.00
C10    C     0.24992   0.26067   0.16662   0.00000  Uiso   1.00
O11    O     0.18393   0.16667   0.21230   0.00000  Uiso   1.00
O12    O     0.31608   0.16667   0.12104   0.00000  Uiso   1.00
O13    O     0.31608   0.16667   0.21230   0.00000  Uiso   1.00
O14    O     0.18393   0.16667   0.12104   0.00000  Uiso   1.00
C15    C     0.16328   0.16607   0.16704   0.00000  Uiso   1.00
C16    C     0.33675   0.16747   0.16630   0.00000  Uiso   1.00
Zn17   Zn    0.25000   0.16667   0.22759   0.00000  Uiso   1.00
Zn18   Zn    0.25000   0.16667   0.10574   0.00000  Uiso   1.00
N19    N     0.25000   0.16667   0.02455   0.00000  Uiso   1.00
N20    N     0.25000   0.16667   0.30879   0.00000  Uiso   1.00
C21    C     0.40792   0.20027   0.13083   0.00000  Uiso   1.00
C22    C     0.09230   0.13364   0.20338   0.00000  Uiso   1.00
C23    C     0.40640   0.13356   0.20058   0.00000  Uiso   1.00
C24    C     0.09368   0.20010   0.13323   0.00000  Uiso   1.00
C25    C     0.38448   0.16692   0.16543   0.00000  Uiso   1.00
C26    C     0.11560   0.16643   0.16797   0.00000  Uiso   1.00
C27    C     0.45286   0.13287   0.20068   0.00000  Uiso   1.00
C28    C     0.04725   0.20036   0.13266   0.00000  Uiso   1.00
C29    C     0.45419   0.20022   0.13165   0.00000  Uiso   1.00
C30    C     0.04597   0.13302   0.20181   0.00000  Uiso   1.00
C31    C     0.47675   0.16657   0.16644   0.00000  Uiso   1.00
C32    C     0.02339   0.16667   0.16697   0.00000  Uiso   1.00
C33    C     0.47596   0.09867   0.23343   0.00000  Uiso   1.00
C34    C     0.02414   0.23376   0.09890   0.00000  Uiso   1.00
C35    C     0.47832   0.23343   0.09814   0.00000  Uiso   1.00
C36    C     0.02179   0.09854   0.23369   0.00000  Uiso   1.00
C37    C     0.24993   0.02173   0.16673   0.00000  Uiso   1.00
C38    C     0.24992   0.31160   0.16660   0.00000  Uiso   1.00
N39    N     0.38549   0.23534   0.09659   0.00000  Uiso   1.00
H40    H     0.36209   0.22105   0.07036   0.00000  Uiso   1.00
C41    C     0.37271   0.28123   0.12350   0.00000  Uiso   1.00
H42    H     0.34850   0.27365   0.15729   0.00000  Uiso   1.00
H43    H     0.35722   0.30678   0.09323   0.00000  Uiso   1.00
H44    H     0.40252   0.29990   0.14041   0.00000  Uiso   1.00
N45    N     0.11513   0.09952   0.23853   0.00000  Uiso   1.00
H46    H     0.14397   0.08443   0.22257   0.00000  Uiso   1.00
C47    C     0.11873   0.11511   0.29541   0.00000  Uiso   1.00
H48    H     0.13996   0.14888   0.29875   0.00000  Uiso   1.00
H49    H     0.13379   0.08460   0.31996   0.00000  Uiso   1.00
H50    H     0.08551   0.12360   0.31328   0.00000  Uiso   1.00
N51    N     0.38099   0.10146   0.23591   0.00000  Uiso   1.00
H52    H     0.39141   0.09964   0.27614   0.00000  Uiso   1.00
C53    C     0.36976   0.05357   0.21252   0.00000  Uiso   1.00
H54    H     0.40010   0.03055   0.20747   0.00000  Uiso   1.00
H55    H     0.35359   0.05849   0.17197   0.00000  Uiso   1.00
H56    H     0.34620   0.03370   0.24041   0.00000  Uiso   1.00
N57    N     0.11913   0.23380   0.09981   0.00000  Uiso   1.00
H58    H     0.10967   0.23648   0.05926   0.00000  Uiso   1.00
C59    C     0.12900   0.28119   0.12540   0.00000  Uiso   1.00
H60    H     0.09802   0.30284   0.13225   0.00000  Uiso   1.00
H61    H     0.15165   0.30310   0.09822   0.00000  Uiso   1.00
H62    H     0.14575   0.27524   0.16541   0.00000  Uiso   1.00
O63    O     0.75000   0.09512   0.21228   0.00000  Uiso   1.00
O64    O     0.75000   0.23822   0.12105   0.00000  Uiso   1.00
O65    O     0.75000   0.23822   0.21228   0.00000  Uiso   1.00
O66    O     0.75000   0.09512   0.12105   0.00000  Uiso   1.00
H67    H     0.95914   0.07125   0.25889   0.00000  Uiso   1.00
H68    H     0.54090   0.26068   0.07277   0.00000  Uiso   1.00
H69    H     0.96200   0.25964   0.07105   0.00000  Uiso   1.00
H70    H     0.53803   0.07091   0.25905   0.00000  Uiso   1.00
C71    C     0.74994   0.07266   0.16672   0.00000  Uiso   1.00
C72    C     0.74992   0.26067   0.16662   0.00000  Uiso   1.00
O73    O     0.68393   0.16667   0.21230   0.00000  Uiso   1.00
O74    O     0.81608   0.16667   0.12104   0.00000  Uiso   1.00
O75    O     0.81608   0.16667   0.21230   0.00000  Uiso   1.00
O76    O     0.68393   0.16667   0.12104   0.00000  Uiso   1.00
C77    C     0.66328   0.16607   0.16704   0.00000  Uiso   1.00
C78    C     0.83675   0.16747   0.16630   0.00000  Uiso   1.00
Zn79   Zn    0.75000   0.16667   0.22759   0.00000  Uiso   1.00
Zn80   Zn    0.75000   0.16667   0.10574   0.00000  Uiso   1.00
N81    N     0.75000   0.16667   0.02455   0.00000  Uiso   1.00
N82    N     0.75000   0.16667   0.30879   0.00000  Uiso   1.00
C83    C     0.90792   0.20027   0.13083   0.00000  Uiso   1.00
C84    C     0.59230   0.13364   0.20338   0.00000  Uiso   1.00
C85    C     0.90640   0.13356   0.20058   0.00000  Uiso   1.00
C86    C     0.59368   0.20010   0.13323   0.00000  Uiso   1.00
C87    C     0.88448   0.16692   0.16543   0.00000  Uiso   1.00
C88    C     0.61560   0.16643   0.16797   0.00000  Uiso   1.00
C89    C     0.95286   0.13287   0.20068   0.00000  Uiso   1.00
C90    C     0.54725   0.20036   0.13266   0.00000  Uiso   1.00
C91    C     0.95419   0.20022   0.13165   0.00000  Uiso   1.00
C92    C     0.54597   0.13302   0.20181   0.00000  Uiso   1.00
C93    C     0.97675   0.16657   0.16644   0.00000  Uiso   1.00
C94    C     0.52339   0.16667   0.16697   0.00000  Uiso   1.00
C95    C     0.97596   0.09867   0.23343   0.00000  Uiso   1.00
C96    C     0.52414   0.23376   0.09890   0.00000  Uiso   1.00
C97    C     0.97832   0.23343   0.09814   0.00000  Uiso   1.00
C98    C     0.52179   0.09854   0.23369   0.00000  Uiso   1.00
C99    C     0.74993   0.02173   0.16673   0.00000  Uiso   1.00
C100   C     0.74992   0.31160   0.16660   0.00000  Uiso   1.00
N101   N     0.88549   0.23534   0.09659   0.00000  Uiso   1.00
H102   H     0.86209   0.22105   0.07036   0.00000  Uiso   1.00
C103   C     0.87271   0.28123   0.12350   0.00000  Uiso   1.00
H104   H     0.84850   0.27365   0.15729   0.00000  Uiso   1.00
H105   H     0.85722   0.30678   0.09323   0.00000  Uiso   1.00
H106   H     0.90252   0.29990   0.14041   0.00000  Uiso   1.00
N107   N     0.61513   0.09952   0.23853   0.00000  Uiso   1.00
H108   H     0.64397   0.08443   0.22257   0.00000  Uiso   1.00
C109   C     0.61873   0.11511   0.29541   0.00000  Uiso   1.00
H110   H     0.63996   0.14888   0.29875   0.00000  Uiso   1.00
H111   H     0.63379   0.08460   0.31996   0.00000  Uiso   1.00
H112   H     0.58551   0.12360   0.31328   0.00000  Uiso   1.00
N113   N     0.88099   0.10146   0.23591   0.00000  Uiso   1.00
H114   H     0.89141   0.09964   0.27614   0.00000  Uiso   1.00
C115   C     0.86976   0.05357   0.21252   0.00000  Uiso   1.00
H116   H     0.90010   0.03055   0.20747   0.00000  Uiso   1.00
H117   H     0.85359   0.05849   0.17197   0.00000  Uiso   1.00
H118   H     0.84620   0.03370   0.24041   0.00000  Uiso   1.00
N119   N     0.61913   0.23380   0.09981   0.00000  Uiso   1.00
H120   H     0.60967   0.23648   0.05926   0.00000  Uiso   1.00
C121   C     0.62900   0.28119   0.12540   0.00000  Uiso   1.00
H122   H     0.59802   0.30284   0.13225   0.00000  Uiso   1.00
H123   H     0.65165   0.30310   0.09822   0.00000  Uiso   1.00
H124   H     0.64575   0.27524   0.16541   0.00000  Uiso   1.00
O125   O     0.25000   0.42845   0.21228   0.00000  Uiso   1.00
O126   O     0.25000   0.57155   0.12105   0.00000  Uiso   1.00
O127   O     0.25000   0.57155   0.21228   0.00000  Uiso   1.00
O128   O     0.25000   0.42845   0.12105   0.00000  Uiso   1.00
H129   H     0.45914   0.40459   0.25889   0.00000  Uiso   1.00
H130   H     0.04090   0.59401   0.07277   0.00000  Uiso   1.00
H131   H     0.46200   0.59297   0.07105   0.00000  Uiso   1.00
H132   H     0.03803   0.40425   0.25905   0.00000  Uiso   1.00
C133   C     0.24994   0.40599   0.16672   0.00000  Uiso   1.00
C134   C     0.24992   0.59401   0.16662   0.00000  Uiso   1.00
O135   O     0.18393   0.50000   0.21230   0.00000  Uiso   1.00
O136   O     0.31608   0.50000   0.12104   0.00000  Uiso   1.00
O137   O     0.31608   0.50000   0.21230   0.00000  Uiso   1.00
O138   O     0.18393   0.50000   0.12104   0.00000  Uiso   1.00
C139   C     0.16328   0.49940   0.16704   0.00000  Uiso   1.00
C140   C     0.33675   0.50080   0.16630   0.00000  Uiso   1.00
Zn141  Zn    0.25000   0.50000   0.22759   0.00000  Uiso   1.00
Zn142  Zn    0.25000   0.50000   0.10574   0.00000  Uiso   1.00
N143   N     0.25000   0.50000   0.02455   0.00000  Uiso   1.00
N144   N     0.25000   0.50000   0.30879   0.00000  Uiso   1.00
C145   C     0.40792   0.53360   0.13083   0.00000  Uiso   1.00
C146   C     0.09230   0.46697   0.20338   0.00000  Uiso   1.00
C147   C     0.40640   0.46689   0.20058   0.00000  Uiso   1.00
C148   C     0.09368   0.53343   0.13323   0.00000  Uiso   1.00
C149   C     0.38448   0.50025   0.16543   0.00000  Uiso   1.00
C150   C     0.11560   0.49976   0.16797   0.00000  Uiso   1.00
C151   C     0.45286   0.46621   0.20068   0.00000  Uiso   1.00
C152   C     0.04725   0.53370   0.13266   0.00000  Uiso   1.00
C153   C     0.45419   0.53355   0.13165   0.00000  Uiso   1.00
C154   C     0.04597   0.46636   0.20181   0.00000  Uiso   1.00
C155   C     0.47675   0.49990   0.16644   0.00000  Uiso   1.00
C156   C     0.02339   0.50000   0.16697   0.00000  Uiso   1.00
C157   C     0.47596   0.43200   0.23343   0.00000  Uiso   1.00
C158   C     0.02414   0.56709   0.09890   0.00000  Uiso   1.00
C159   C     0.47832   0.56677   0.09814   0.00000  Uiso   1.00
C160   C     0.02179   0.43187   0.23369   0.00000  Uiso   1.00
C161   C     0.24993   0.35506   0.16673   0.00000  Uiso   1.00
C162   C     0.24992   0.64494   0.16660   0.00000  Uiso   1.00
N163   N     0.38549   0.56868   0.09659   0.00000  Uiso   1.00
H164   H     0.36209   0.55438   0.07036   0.00000  Uiso   1.00
C165   C     0.37271   0.61456   0.12350   0.00000  Uiso   1.00
H166   H     0.34850   0.60698   0.15729   0.00000  Uiso   1.00
H167   H     0.35722   0.64011   0.09323   0.00000  Uiso   1.00
H168   H     0.40252   0.63323   0.14041   0.00000  Uiso   1.00
N169   N     0.11513   0.43285   0.23853   0.00000  Uiso   1.00
H170   H     0.14397   0.41777   0.22257   0.00000  Uiso   1.00
C171   C     0.11873   0.44845   0.29541   0.00000  Uiso   1.00
H172   H     0.13996   0.48221   0.29875   0.00000  Uiso   1.00
H173   H     0.13379   0.41794   0.31996   0.00000  Uiso   1.00
H174   H     0.08551   0.45693   0.31328   0.00000  Uiso   1.00
N175   N     0.38099   0.43479   0.23591   0.00000  Uiso   1.00
H176   H     0.39141   0.43297   0.27614   0.00000  Uiso   1.00
C177   C     0.36976   0.38691   0.21252   0.00000  Uiso   1.00
H178   H     0.40010   0.36388   0.20747   0.00000  Uiso   1.00
H179   H     0.35359   0.39182   0.17197   0.00000  Uiso   1.00
H180   H     0.34620   0.36703   0.24041   0.00000  Uiso   1.00
N181   N     0.11913   0.56713   0.09981   0.00000  Uiso   1.00
H182   H     0.10967   0.56982   0.05926   0.00000  Uiso   1.00
C183   C     0.12900   0.61452   0.12540   0.00000  Uiso   1.00
H184   H     0.09802   0.63617   0.13225   0.00000  Uiso   1.00
H185   H     0.15165   0.63644   0.09822   0.00000  Uiso   1.00
H186   H     0.14575   0.60857   0.16541   0.00000  Uiso   1.00
O187   O     0.75000   0.42845   0.21228   0.00000  Uiso   1.00
O188   O     0.75000   0.57155   0.12105   0.00000  Uiso   1.00
O189   O     0.75000   0.57155   0.21228   0.00000  Uiso   1.00
O190   O     0.75000   0.42845   0.12105   0.00000  Uiso   1.00
H191   H     0.95914   0.40459   0.25889   0.00000  Uiso   1.00
H192   H     0.54090   0.59401   0.07277   0.00000  Uiso   1.00
H193   H     0.96200   0.59297   0.07105   0.00000  Uiso   1.00
H194   H     0.53803   0.40425   0.25905   0.00000  Uiso   1.00
C195   C     0.74994   0.40599   0.16672   0.00000  Uiso   1.00
C196   C     0.74992   0.59401   0.16662   0.00000  Uiso   1.00
O197   O     0.68393   0.50000   0.21230   0.00000  Uiso   1.00
O198   O     0.81608   0.50000   0.12104   0.00000  Uiso   1.00
O199   O     0.81608   0.50000   0.21230   0.00000  Uiso   1.00
O200   O     0.68393   0.50000   0.12104   0.00000  Uiso   1.00
C201   C     0.66328   0.49940   0.16704   0.00000  Uiso   1.00
C202   C     0.83675   0.50080   0.16630   0.00000  Uiso   1.00
Zn203  Zn    0.75000   0.50000   0.22759   0.00000  Uiso   1.00
Zn204  Zn    0.75000   0.50000   0.10574   0.00000  Uiso   1.00
N205   N     0.75000   0.50000   0.02455   0.00000  Uiso   1.00
N206   N     0.75000   0.50000   0.30879   0.00000  Uiso   1.00
C207   C     0.90792   0.53360   0.13083   0.00000  Uiso   1.00
C208   C     0.59230   0.46697   0.20338   0.00000  Uiso   1.00
C209   C     0.90640   0.46689   0.20058   0.00000  Uiso   1.00
C210   C     0.59368   0.53343   0.13323   0.00000  Uiso   1.00
C211   C     0.88448   0.50025   0.16543   0.00000  Uiso   1.00
C212   C     0.61560   0.49976   0.16797   0.00000  Uiso   1.00
C213   C     0.95286   0.46621   0.20068   0.00000  Uiso   1.00
C214   C     0.54725   0.53370   0.13266   0.00000  Uiso   1.00
C215   C     0.95419   0.53355   0.13165   0.00000  Uiso   1.00
C216   C     0.54597   0.46636   0.20181   0.00000  Uiso   1.00
C217   C     0.97675   0.49990   0.16644   0.00000  Uiso   1.00
C218   C     0.52339   0.50000   0.16697   0.00000  Uiso   1.00
C219   C     0.97596   0.43200   0.23343   0.00000  Uiso   1.00
C220   C     0.52414   0.56709   0.09890   0.00000  Uiso   1.00
C221   C     0.97832   0.56677   0.09814   0.00000  Uiso   1.00
C222   C     0.52179   0.43187   0.23369   0.00000  Uiso   1.00
C223   C     0.74993   0.35506   0.16673   0.00000  Uiso   1.00
C224   C     0.74992   0.64494   0.16660   0.00000  Uiso   1.00
N225   N     0.88549   0.56868   0.09659   0.00000  Uiso   1.00
H226   H     0.86209   0.55438   0.07036   0.00000  Uiso   1.00
C227   C     0.87271   0.61456   0.12350   0.00000  Uiso   1.00
H228   H     0.84850   0.60698   0.15729   0.00000  Uiso   1.00
H229   H     0.85722   0.64011   0.09323   0.00000  Uiso   1.00
H230   H     0.90252   0.63323   0.14041   0.00000  Uiso   1.00
N231   N     0.61513   0.43285   0.23853   0.00000  Uiso   1.00
H232   H     0.64397   0.41777   0.22257   0.00000  Uiso   1.00
C233   C     0.61873   0.44845   0.29541   0.00000  Uiso   1.00
H234   H     0.63996   0.48221   0.29875   0.00000  Uiso   1.00
H235   H     0.63379   0.41794   0.31996   0.00000  Uiso   1.00
H236   H     0.58551   0.45693   0.31328   0.00000  Uiso   1.00
N237   N     0.88099   0.43479   0.23591   0.00000  Uiso   1.00
H238   H     0.89141   0.43297   0.27614   0.00000  Uiso   1.00
C239   C     0.86976   0.38691   0.21252   0.00000  Uiso   1.00
H240   H     0.90010   0.36388   0.20747   0.00000  Uiso   1.00
H241   H     0.85359   0.39182   0.17197   0.00000  Uiso   1.00
H242   H     0.84620   0.36703   0.24041   0.00000  Uiso   1.00
N243   N     0.61913   0.56713   0.09981   0.00000  Uiso   1.00
H244   H     0.60967   0.56982   0.05926   0.00000  Uiso   1.00
C245   C     0.62900   0.61452   0.12540   0.00000  Uiso   1.00
H246   H     0.59802   0.63617   0.13225   0.00000  Uiso   1.00
H247   H     0.65165   0.63644   0.09822   0.00000  Uiso   1.00
H248   H     0.64575   0.60857   0.16541   0.00000  Uiso   1.00
O249   O     0.25000   0.76178   0.21228   0.00000  Uiso   1.00
O250   O     0.25000   0.90488   0.12105   0.00000  Uiso   1.00
O251   O     0.25000   0.90488   0.21228   0.00000  Uiso   1.00
O252   O     0.25000   0.76178   0.12105   0.00000  Uiso   1.00
H253   H     0.45914   0.73792   0.25889   0.00000  Uiso   1.00
H254   H     0.04090   0.92735   0.07277   0.00000  Uiso   1.00
H255   H     0.46200   0.92630   0.07105   0.00000  Uiso   1.00
H256   H     0.03803   0.73758   0.25905   0.00000  Uiso   1.00
C257   C     0.24994   0.73932   0.16672   0.00000  Uiso   1.00
C258   C     0.24992   0.92734   0.16662   0.00000  Uiso   1.00
O259   O     0.18393   0.83333   0.21230   0.00000  Uiso   1.00
O260   O     0.31608   0.83333   0.12104   0.00000  Uiso   1.00
O261   O     0.31608   0.83333   0.21230   0.00000  Uiso   1.00
O262   O     0.18393   0.83333   0.12104   0.00000  Uiso   1.00
C263   C     0.16328   0.83273   0.16704   0.00000  Uiso   1.00
C264   C     0.33675   0.83414   0.16630   0.00000  Uiso   1.00
Zn265  Zn    0.25000   0.83333   0.22759   0.00000  Uiso   1.00
Zn266  Zn    0.25000   0.83333   0.10574   0.00000  Uiso   1.00
N267   N     0.25000   0.83333   0.02455   0.00000  Uiso   1.00
N268   N     0.25000   0.83333   0.30879   0.00000  Uiso   1.00
C269   C     0.40792   0.86694   0.13083   0.00000  Uiso   1.00
C270   C     0.09230   0.80030   0.20338   0.00000  Uiso   1.00
C271   C     0.40640   0.80022   0.20058   0.00000  Uiso   1.00
C272   C     0.09368   0.86677   0.13323   0.00000  Uiso   1.00
C273   C     0.38448   0.83359   0.16543   0.00000  Uiso   1.00
C274   C     0.11560   0.83310   0.16797   0.00000  Uiso   1.00
C275   C     0.45286   0.79954   0.20068   0.00000  Uiso   1.00
C276   C     0.04725   0.86703   0.13266   0.00000  Uiso   1.00
C277   C     0.45419   0.86689   0.13165   0.00000  Uiso   1.00
C278   C     0.04597   0.79969   0.20181   0.00000  Uiso   1.00
C279   C     0.47675   0.83324   0.16644   0.00000  Uiso   1.00
C280   C     0.02339   0.83334   0.16697   0.00000  Uiso   1.00
C281   C     0.47596   0.76533   0.23343   0.00000  Uiso   1.00
C282   C     0.02414   0.90042   0.09890   0.00000  Uiso   1.00
C283   C     0.47832   0.90010   0.09814   0.00000  Uiso   1.00
C284   C     0.02179   0.76520   0.23369   0.00000  Uiso   1.00
C285   C     0.24993   0.68840   0.16673   0.00000  Uiso   1.00
C286   C     0.24992   0.97827   0.16660   0.00000  Uiso   1.00
N287   N     0.38549   0.90201   0.09659   0.00000  Uiso   1.00
H288   H     0.36209   0.88771   0.07036   0.00000  Uiso   1.00
C289   C     0.37271   0.94790   0.12350   0.00000  Uiso   1.00
H290   H     0.34850   0.94032   0.15729   0.00000  Uiso   1.00
H291   H     0.35722   0.97345   0.09323   0.00000  Uiso   1.00
H292   H     0.40252   0.96656   0.14041   0.00000  Uiso   1.00
N293   N     0.11513   0.76618   0.23853   0.00000  Uiso   1.00
H294   H     0.14397   0.75110   0.22257   0.00000  Uiso   1.00
C295   C     0.11873   0.78178   0.29541   0.00000  Uiso   1.00
H296   H     0.13996   0.81554   0.29875   0.00000  Uiso   1.00
H297   H     0.13379   0.75127   0.31996   0.00000  Uiso   1.00
H298   H     0.08551   0.79027   0.31328   0.00000  Uiso   1.00
N299   N     0.38099   0.76813   0.23591   0.00000  Uiso   1.00
H300   H     0.39141   0.76631   0.27614   0.00000  Uiso   1.00
C301   C     0.36976   0.72024   0.21252   0.00000  Uiso   1.00
H302   H     0.40010   0.69722   0.20747   0.00000  Uiso   1.00
H303   H     0.35359   0.72516   0.17197   0.00000  Uiso   1.00
H304   H     0.34620   0.70036   0.24041   0.00000  Uiso   1.00
N305   N     0.11913   0.90047   0.09981   0.00000  Uiso   1.00
H306   H     0.10967   0.90315   0.05926   0.00000  Uiso   1.00
C307   C     0.12900   0.94785   0.12540   0.00000  Uiso   1.00
H308   H     0.09802   0.96951   0.13225   0.00000  Uiso   1.00
H309   H     0.15165   0.96977   0.09822   0.00000  Uiso   1.00
H310   H     0.14575   0.94191   0.16541   0.00000  Uiso   1.00
O311   O     0.75000   0.76178   0.21228   0.00000  Uiso   1.00
O312   O     0.75000   0.90488   0.12105   0.00000  Uiso   1.00
O313   O     0.75000   0.90488   0.21228   0.00000  Uiso   1.00
O314   O     0.75000   0.76178   0.12105   0.00000  Uiso   1.00
H315   H     0.95914   0.73792   0.25889   0.00000  Uiso   1.00
H316   H     0.54090   0.92735   0.07277   0.00000  Uiso   1.00
H317   H     0.96200   0.92630   0.07105   0.00000  Uiso   1.00
H318   H     0.53803   0.73758   0.25905   0.00000  Uiso   1.00
C319   C     0.74994   0.73932   0.16672   0.00000  Uiso   1.00
C320   C     0.74992   0.92734   0.16662   0.00000  Uiso   1.00
O321   O     0.68393   0.83333   0.21230   0.00000  Uiso   1.00
O322   O     0.81608   0.83333   0.12104   0.00000  Uiso   1.00
O323   O     0.81608   0.83333   0.21230   0.00000  Uiso   1.00
O324   O     0.68393   0.83333   0.12104   0.00000  Uiso   1.00
C325   C     0.66328   0.83273   0.16704   0.00000  Uiso   1.00
C326   C     0.83675   0.83414   0.16630   0.00000  Uiso   1.00
Zn327  Zn    0.75000   0.83333   0.22759   0.00000  Uiso   1.00
Zn328  Zn    0.75000   0.83333   0.10574   0.00000  Uiso   1.00
N329   N     0.75000   0.83333   0.02455   0.00000  Uiso   1.00
N330   N     0.75000   0.83333   0.30879   0.00000  Uiso   1.00
C331   C     0.90792   0.86694   0.13083   0.00000  Uiso   1.00
C332   C     0.59230   0.80030   0.20338   0.00000  Uiso   1.00
C333   C     0.90640   0.80022   0.20058   0.00000  Uiso   1.00
C334   C     0.59368   0.86677   0.13323   0.00000  Uiso   1.00
C335   C     0.88448   0.83359   0.16543   0.00000  Uiso   1.00
C336   C     0.61560   0.83310   0.16797   0.00000  Uiso   1.00
C337   C     0.95286   0.79954   0.20068   0.00000  Uiso   1.00
C338   C     0.54725   0.86703   0.13266   0.00000  Uiso   1.00
C339   C     0.95419   0.86689   0.13165   0.00000  Uiso   1.00
C340   C     0.54597   0.79969   0.20181   0.00000  Uiso   1.00
C341   C     0.97675   0.83324   0.16644   0.00000  Uiso   1.00
C342   C     0.52339   0.83334   0.16697   0.00000  Uiso   1.00
C343   C     0.97596   0.76533   0.23343   0.00000  Uiso   1.00
C344   C     0.52414   0.90042   0.09890   0.00000  Uiso   1.00
C345   C     0.97832   0.90010   0.09814   0.00000  Uiso   1.00
C346   C     0.52179   0.76520   0.23369   0.00000  Uiso   1.00
C347   C     0.74993   0.68840   0.16673   0.00000  Uiso   1.00
C348   C     0.74992   0.97827   0.16660   0.00000  Uiso   1.00
N349   N     0.88549   0.90201   0.09659   0.00000  Uiso   1.00
H350   H     0.86209   0.88771   0.07036   0.00000  Uiso   1.00
C351   C     0.87271   0.94790   0.12350   0.00000  Uiso   1.00
H352   H     0.84850   0.94032   0.15729   0.00000  Uiso   1.00
H353   H     0.85722   0.97345   0.09323   0.00000  Uiso   1.00
H354   H     0.90252   0.96656   0.14041   0.00000  Uiso   1.00
N355   N     0.61513   0.76618   0.23853   0.00000  Uiso   1.00
H356   H     0.64397   0.75110   0.22257   0.00000  Uiso   1.00
C357   C     0.61873   0.78178   0.29541   0.00000  Uiso   1.00
H358   H     0.63996   0.81554   0.29875   0.00000  Uiso   1.00
H359   H     0.63379   0.75127   0.31996   0.00000  Uiso   1.00
H360   H     0.58551   0.79027   0.31328   0.00000  Uiso   1.00
N361   N     0.88099   0.76813   0.23591   0.00000  Uiso   1.00
H362   H     0.89141   0.76631   0.27614   0.00000  Uiso   1.00
C363   C     0.86976   0.72024   0.21252   0.00000  Uiso   1.00
H364   H     0.90010   0.69722   0.20747   0.00000  Uiso   1.00
H365   H     0.85359   0.72516   0.17197   0.00000  Uiso   1.00
H366   H     0.84620   0.70036   0.24041   0.00000  Uiso   1.00
N367   N     0.61913   0.90047   0.09981   0.00000  Uiso   1.00
H368   H     0.60967   0.90315   0.05926   0.00000  Uiso   1.00
C369   C     0.62900   0.94785   0.12540   0.00000  Uiso   1.00
H370   H     0.59802   0.96951   0.13225   0.00000  Uiso   1.00
H371   H     0.65165   0.96977   0.09822   0.00000  Uiso   1.00
H372   H     0.64575   0.94191   0.16541   0.00000  Uiso   1.00
O373   O     0.25000   0.09512   0.54562   0.00000  Uiso   1.00
O374   O     0.25000   0.23822   0.45438   0.00000  Uiso   1.00
O375   O     0.25000   0.23822   0.54562   0.00000  Uiso   1.00
O376   O     0.25000   0.09512   0.45438   0.00000  Uiso   1.00
H377   H     0.45914   0.07125   0.59222   0.00000  Uiso   1.00
H378   H     0.04090   0.26068   0.40610   0.00000  Uiso   1.00
H379   H     0.46200   0.25964   0.40439   0.00000  Uiso   1.00
H380   H     0.03803   0.07091   0.59238   0.00000  Uiso   1.00
C381   C     0.24994   0.07266   0.50005   0.00000  Uiso   1.00
C382   C     0.24992   0.26067   0.49995   0.00000  Uiso   1.00
O383   O     0.18393   0.16667   0.54563   0.00000  Uiso   1.00
O384   O     0.31608   0.16667   0.45437   0.00000  Uiso   1.00
O385   O     0.31608   0.16667   0.54563   0.00000  Uiso   1.00
O386   O     0.18393   0.16667   0.45437   0.00000  Uiso   1.00
C387   C     0.16328   0.16607   0.50037   0.00000  Uiso   1.00
C388   C     0.33675   0.16747   0.49963   0.00000  Uiso   1.00
Zn389  Zn    0.25000   0.16667   0.56093   0.00000  Uiso   1.00
Zn390  Zn    0.25000   0.16667   0.43907   0.00000  Uiso   1.00
N391   N     0.25000   0.16667   0.35788   0.00000  Uiso   1.00
N392   N     0.25000   0.16667   0.64212   0.00000  Uiso   1.00
C393   C     0.40792   0.20027   0.46416   0.00000  Uiso   1.00
C394   C     0.09230   0.13364   0.53671   0.00000  Uiso   1.00
C395   C     0.40640   0.13356   0.53391   0.00000  Uiso   1.00
C396   C     0.09368   0.20010   0.46656   0.00000  Uiso   1.00
C397   C     0.38448   0.16692   0.49876   0.00000  Uiso   1.00
C398   C     0.11560   0.16643   0.50131   0.00000  Uiso   1.00
C399   C     0.45286   0.13287   0.53401   0.00000  Uiso   1.00
C400   C     0.04725   0.20036   0.46599   0.00000  Uiso   1.00
C401   C     0.45419   0.20022   0.46499   0.00000  Uiso   1.00
C402   C     0.04597   0.13302   0.53515   0.00000  Uiso   1.00
C403   C     0.47675   0.16657   0.49977   0.00000  Uiso   1.00
C404   C     0.02339   0.16667   0.50030   0.00000  Uiso   1.00
C405   C     0.47596   0.09867   0.56677   0.00000  Uiso   1.00
C406   C     0.02414   0.23376   0.43223   0.00000  Uiso   1.00
C407   C     0.47832   0.23343   0.43148   0.00000  Uiso   1.00
C408   C     0.02179   0.09854   0.56702   0.00000  Uiso   1.00
C409   C     0.24993   0.02173   0.50007   0.00000  Uiso   1.00
C410   C     0.24992   0.31160   0.49993   0.00000  Uiso   1.00
N411   N     0.38549   0.23534   0.42992   0.00000  Uiso   1.00
H412   H     0.36209   0.22105   0.40369   0.00000  Uiso   1.00
C413   C     0.37271   0.28123   0.45684   0.00000  Uiso   1.00
H414   H     0.34850   0.27365   0.49062   0.00000  Uiso   1.00
H415   H     0.35722   0.30678   0.42656   0.00000  Uiso   1.00
H416   H     0.40252   0.29990   0.47374   0.00000  Uiso   1.00
N417   N     0.11513   0.09952   0.57186   0.00000  Uiso   1.00
H418   H     0.14397   0.08443   0.55591   0.00000  Uiso   1.00
C419   C     0.11873   0.11511   0.62874   0.00000  Uiso   1.00
H420   H     0.13996   0.14888   0.63208   0.00000  Uiso   1.00
H421   H     0.13379   0.08460   0.65329   0.00000  Uiso   1.00
H422   H     0.08551   0.12360   0.64662   0.00000  Uiso   1.00
N423   N     0.38099   0.10146   0.56924   0.00000  Uiso   1.00
H424   H     0.39141   0.09964   0.60948   0.00000  Uiso   1.00
C425   C     0.36976   0.05357   0.54586   0.00000  Uiso   1.00
H426   H     0.40010   0.03055   0.54081   0.00000  Uiso   1.00
H427   H     0.35359   0.05849   0.50530   0.00000  Uiso   1.00
H428   H     0.34620   0.03370   0.57375   0.00000  Uiso   1.00
N429   N     0.11913   0.23380   0.43314   0.00000  Uiso   1.00
H430   H     0.10967   0.23648   0.39260   0.00000  Uiso   1.00
C431   C     0.12900   0.28119   0.45873   0.00000  Uiso   1.00
H432   H     0.09802   0.30284   0.46558   0.00000  Uiso   1.00
H433   H     0.15165   0.30310   0.43156   0.00000  Uiso   1.00
H434   H     0.14575   0.27524   0.49874   0.00000  Uiso   1.00
O435   O     0.75000   0.09512   0.54562   0.00000  Uiso   1.00
O436   O     0.75000   0.23822   0.45438   0.00000  Uiso   1.00
O437   O     0.75000   0.23822   0.54562   0.00000  Uiso   1.00
O438   O     0.75000   0.09512   0.45438   0.00000  Uiso   1.00
H439   H     0.95914   0.07125   0.59222   0.00000  Uiso   1.00
H440   H     0.54090   0.26068   0.40610   0.00000  Uiso   1.00
H441   H     0.96200   0.25964   0.40439   0.00000  Uiso   1.00
H442   H     0.53803   0.07091   0.59238   0.00000  Uiso   1.00
C443   C     0.74994   0.07266   0.50005   0.00000  Uiso   1.00
C444   C     0.74992   0.26067   0.49995   0.00000  Uiso   1.00
O445   O     0.68393   0.16667   0.54563   0.00000  Uiso   1.00
O446   O     0.81608   0.16667   0.45437   0.00000  Uiso   1.00
O447   O     0.81608   0.16667   0.54563   0.00000  Uiso   1.00
O448   O     0.68393   0.16667   0.45437   0.00000  Uiso   1.00
C449   C     0.66328   0.16607   0.50037   0.00000  Uiso   1.00
C450   C     0.83675   0.16747   0.49963   0.00000  Uiso   1.00
Zn451  Zn    0.75000   0.16667   0.56093   0.00000  Uiso   1.00
Zn452  Zn    0.75000   0.16667   0.43907   0.00000  Uiso   1.00
N453   N     0.75000   0.16667   0.35788   0.00000  Uiso   1.00
N454   N     0.75000   0.16667   0.64212   0.00000  Uiso   1.00
C455   C     0.90792   0.20027   0.46416   0.00000  Uiso   1.00
C456   C     0.59230   0.13364   0.53671   0.00000  Uiso   1.00
C457   C     0.90640   0.13356   0.53391   0.00000  Uiso   1.00
C458   C     0.59368   0.20010   0.46656   0.00000  Uiso   1.00
C459   C     0.88448   0.16692   0.49876   0.00000  Uiso   1.00
C460   C     0.61560   0.16643   0.50131   0.00000  Uiso   1.00
C461   C     0.95286   0.13287   0.53401   0.00000  Uiso   1.00
C462   C     0.54725   0.20036   0.46599   0.00000  Uiso   1.00
C463   C     0.95419   0.20022   0.46499   0.00000  Uiso   1.00
C464   C     0.54597   0.13302   0.53515   0.00000  Uiso   1.00
C465   C     0.97675   0.16657   0.49977   0.00000  Uiso   1.00
C466   C     0.52339   0.16667   0.50030   0.00000  Uiso   1.00
C467   C     0.97596   0.09867   0.56677   0.00000  Uiso   1.00
C468   C     0.52414   0.23376   0.43223   0.00000  Uiso   1.00
C469   C     0.97832   0.23343   0.43148   0.00000  Uiso   1.00
C470   C     0.52179   0.09854   0.56702   0.00000  Uiso   1.00
C471   C     0.74993   0.02173   0.50007   0.00000  Uiso   1.00
C472   C     0.74992   0.31160   0.49993   0.00000  Uiso   1.00
N473   N     0.88549   0.23534   0.42992   0.00000  Uiso   1.00
H474   H     0.86209   0.22105   0.40369   0.00000  Uiso   1.00
C475   C     0.87271   0.28123   0.45684   0.00000  Uiso   1.00
H476   H     0.84850   0.27365   0.49062   0.00000  Uiso   1.00
H477   H     0.85722   0.30678   0.42656   0.00000  Uiso   1.00
H478   H     0.90252   0.29990   0.47374   0.00000  Uiso   1.00
N479   N     0.61513   0.09952   0.57186   0.00000  Uiso   1.00
H480   H     0.64397   0.08443   0.55591   0.00000  Uiso   1.00
C481   C     0.61873   0.11511   0.62874   0.00000  Uiso   1.00
H482   H     0.63996   0.14888   0.63208   0.00000  Uiso   1.00
H483   H     0.63379   0.08460   0.65329   0.00000  Uiso   1.00
H484   H     0.58551   0.12360   0.64662   0.00000  Uiso   1.00
N485   N     0.88099   0.10146   0.56924   0.00000  Uiso   1.00
H486   H     0.89141   0.09964   0.60948   0.00000  Uiso   1.00
C487   C     0.86976   0.05357   0.54586   0.00000  Uiso   1.00
H488   H     0.90010   0.03055   0.54081   0.00000  Uiso   1.00
H489   H     0.85359   0.05849   0.50530   0.00000  Uiso   1.00
H490   H     0.84620   0.03370   0.57375   0.00000  Uiso   1.00
N491   N     0.61913   0.23380   0.43314   0.00000  Uiso   1.00
H492   H     0.60967   0.23648   0.39260   0.00000  Uiso   1.00
C493   C     0.62900   0.28119   0.45873   0.00000  Uiso   1.00
H494   H     0.59802   0.30284   0.46558   0.00000  Uiso   1.00
H495   H     0.65165   0.30310   0.43156   0.00000  Uiso   1.00
H496   H     0.64575   0.27524   0.49874   0.00000  Uiso   1.00
O497   O     0.25000   0.42845   0.54562   0.00000  Uiso   1.00
O498   O     0.25000   0.57155   0.45438   0.00000  Uiso   1.00
O499   O     0.25000   0.57155   0.54562   0.00000  Uiso   1.00
O500   O     0.25000   0.42845   0.45438   0.00000  Uiso   1.00
H501   H     0.45914   0.40459   0.59222   0.00000  Uiso   1.00
H502   H     0.04090   0.59401   0.40610   0.00000  Uiso   1.00
H503   H     0.46200   0.59297   0.40439   0.00000  Uiso   1.00
H504   H     0.03803   0.40425   0.59238   0.00000  Uiso   1.00
C505   C     0.24994   0.40599   0.50005   0.00000  Uiso   1.00
C506   C     0.24992   0.59401   0.49995   0.00000  Uiso   1.00
O507   O     0.18393   0.50000   0.54563   0.00000  Uiso   1.00
O508   O     0.31608   0.50000   0.45437   0.00000  Uiso   1.00
O509   O     0.31608   0.50000   0.54563   0.00000  Uiso   1.00
O510   O     0.18393   0.50000   0.45437   0.00000  Uiso   1.00
C511   C     0.16328   0.49940   0.50037   0.00000  Uiso   1.00
C512   C     0.33675   0.50080   0.49963   0.00000  Uiso   1.00
Zn513  Zn    0.25000   0.50000   0.56093   0.00000  Uiso   1.00
Zn514  Zn    0.25000   0.50000   0.43907   0.00000  Uiso   1.00
N515   N     0.25000   0.50000   0.35788   0.00000  Uiso   1.00
N516   N     0.25000   0.50000   0.64212   0.00000  Uiso   1.00
C517   C     0.40792   0.53360   0.46416   0.00000  Uiso   1.00
C518   C     0.09230   0.46697   0.53671   0.00000  Uiso   1.00
C519   C     0.40640   0.46689   0.53391   0.00000  Uiso   1.00
C520   C     0.09368   0.53343   0.46656   0.00000  Uiso   1.00
C521   C     0.38448   0.50025   0.49876   0.00000  Uiso   1.00
C522   C     0.11560   0.49976   0.50131   0.00000  Uiso   1.00
C523   C     0.45286   0.46621   0.53401   0.00000  Uiso   1.00
C524   C     0.04725   0.53370   0.46599   0.00000  Uiso   1.00
C525   C     0.45419   0.53355   0.46499   0.00000  Uiso   1.00
C526   C     0.04597   0.46636   0.53515   0.00000  Uiso   1.00
C527   C     0.47675   0.49990   0.49977   0.00000  Uiso   1.00
C528   C     0.02339   0.50000   0.50030   0.00000  Uiso   1.00
C529   C     0.47596   0.43200   0.56677   0.00000  Uiso   1.00
C530   C     0.02414   0.56709   0.43223   0.00000  Uiso   1.00
C531   C     0.47832   0.56677   0.43148   0.00000  Uiso   1.00
C532   C     0.02179   0.43187   0.56702   0.00000  Uiso   1.00
C533   C     0.24993   0.35506   0.50007   0.00000  Uiso   1.00
C534   C     0.24992   0.64494   0.49993   0.00000  Uiso   1.00
N535   N     0.38549   0.56868   0.42992   0.00000  Uiso   1.00
H536   H     0.36209   0.55438   0.40369   0.00000  Uiso   1.00
C537   C     0.37271   0.61456   0.45684   0.00000  Uiso   1.00
H538   H     0.34850   0.60698   0.49062   0.00000  Uiso   1.00
H539   H     0.35722   0.64011   0.42656   0.00000  Uiso   1.00
H540   H     0.40252   0.63323   0.47374   0.00000  Uiso   1.00
N541   N     0.11513   0.43285   0.57186   0.00000  Uiso   1.00
H542   H     0.14397   0.41777   0.55591   0.00000  Uiso   1.00
C543   C     0.11873   0.44845   0.62874   0.00000  Uiso   1.00
H544   H     0.13996   0.48221   0.63208   0.00000  Uiso   1.00
H545   H     0.13379   0.41794   0.65329   0.00000  Uiso   1.00
H546   H     0.08551   0.45693   0.64662   0.00000  Uiso   1.00
N547   N     0.38099   0.43479   0.56924   0.00000  Uiso   1.00
H548   H     0.39141   0.43297   0.60948   0.00000  Uiso   1.00
C549   C     0.36976   0.38691   0.54586   0.00000  Uiso   1.00
H550   H     0.40010   0.36388   0.54081   0.00000  Uiso   1.00
H551   H     0.35359   0.39182   0.50530   0.00000  Uiso   1.00
H552   H     0.34620   0.36703   0.57375   0.00000  Uiso   1.00
N553   N     0.11913   0.56713   0.43314   0.00000  Uiso   1.00
H554   H     0.10967   0.56982   0.39260   0.00000  Uiso   1.00
C555   C     0.12900   0.61452   0.45873   0.00000  Uiso   1.00
H556   H     0.09802   0.63617   0.46558   0.00000  Uiso   1.00
H557   H     0.15165   0.63644   0.43156   0.00000  Uiso   1.00
H558   H     0.14575   0.60857   0.49874   0.00000  Uiso   1.00
O559   O     0.75000   0.42845   0.54562   0.00000  Uiso   1.00
O560   O     0.75000   0.57155   0.45438   0.00000  Uiso   1.00
O561   O     0.75000   0.57155   0.54562   0.00000  Uiso   1.00
O562   O     0.75000   0.42845   0.45438   0.00000  Uiso   1.00
H563   H     0.95914   0.40459   0.59222   0.00000  Uiso   1.00
H564   H     0.54090   0.59401   0.40610   0.00000  Uiso   1.00
H565   H     0.96200   0.59297   0.40439   0.00000  Uiso   1.00
H566   H     0.53803   0.40425   0.59238   0.00000  Uiso   1.00
C567   C     0.74994   0.40599   0.50005   0.00000  Uiso   1.00
C568   C     0.74992   0.59401   0.49995   0.00000  Uiso   1.00
O569   O     0.68393   0.50000   0.54563   0.00000  Uiso   1.00
O570   O     0.81608   0.50000   0.45437   0.00000  Uiso   1.00
O571   O     0.81608   0.50000   0.54563   0.00000  Uiso   1.00
O572   O     0.68393   0.50000   0.45437   0.00000  Uiso   1.00
C573   C     0.66328   0.49940   0.50037   0.00000  Uiso   1.00
C574   C     0.83675   0.50080   0.49963   0.00000  Uiso   1.00
Zn575  Zn    0.75000   0.50000   0.56093   0.00000  Uiso   1.00
Zn576  Zn    0.75000   0.50000   0.43907   0.00000  Uiso   1.00
N577   N     0.75000   0.50000   0.35788   0.00000  Uiso   1.00
N578   N     0.75000   0.50000   0.64212   0.00000  Uiso   1.00
C579   C     0.90792   0.53360   0.46416   0.00000  Uiso   1.00
C580   C     0.59230   0.46697   0.53671   0.00000  Uiso   1.00
C581   C     0.90640   0.46689   0.53391   0.00000  Uiso   1.00
C582   C     0.59368   0.53343   0.46656   0.00000  Uiso   1.00
C583   C     0.88448   0.50025   0.49876   0.00000  Uiso   1.00
C584   C     0.61560   0.49976   0.50131   0.00000  Uiso   1.00
C585   C     0.95286   0.46621   0.53401   0.00000  Uiso   1.00
C586   C     0.54725   0.53370   0.46599   0.00000  Uiso   1.00
C587   C     0.95419   0.53355   0.46499   0.00000  Uiso   1.00
C588   C     0.54597   0.46636   0.53515   0.00000  Uiso   1.00
C589   C     0.97675   0.49990   0.49977   0.00000  Uiso   1.00
C590   C     0.52339   0.50000   0.50030   0.00000  Uiso   1.00
C591   C     0.97596   0.43200   0.56677   0.00000  Uiso   1.00
C592   C     0.52414   0.56709   0.43223   0.00000  Uiso   1.00
C593   C     0.97832   0.56677   0.43148   0.00000  Uiso   1.00
C594   C     0.52179   0.43187   0.56702   0.00000  Uiso   1.00
C595   C     0.74993   0.35506   0.50007   0.00000  Uiso   1.00
C596   C     0.74992   0.64494   0.49993   0.00000  Uiso   1.00
N597   N     0.88549   0.56868   0.42992   0.00000  Uiso   1.00
H598   H     0.86209   0.55438   0.40369   0.00000  Uiso   1.00
C599   C     0.87271   0.61456   0.45684   0.00000  Uiso   1.00
H600   H     0.84850   0.60698   0.49062   0.00000  Uiso   1.00
H601   H     0.85722   0.64011   0.42656   0.00000  Uiso   1.00
H602   H     0.90252   0.63323   0.47374   0.00000  Uiso   1.00
N603   N     0.61513   0.43285   0.57186   0.00000  Uiso   1.00
H604   H     0.64397   0.41777   0.55591   0.00000  Uiso   1.00
C605   C     0.61873   0.44845   0.62874   0.00000  Uiso   1.00
H606   H     0.63996   0.48221   0.63208   0.00000  Uiso   1.00
H607   H     0.63379   0.41794   0.65329   0.00000  Uiso   1.00
H608   H     0.58551   0.45693   0.64662   0.00000  Uiso   1.00
N609   N     0.88099   0.43479   0.56924   0.00000  Uiso   1.00
H610   H     0.89141   0.43297   0.60948   0.00000  Uiso   1.00
C611   C     0.86976   0.38691   0.54586   0.00000  Uiso   1.00
H612   H     0.90010   0.36388   0.54081   0.00000  Uiso   1.00
H613   H     0.85359   0.39182   0.50530   0.00000  Uiso   1.00
H614   H     0.84620   0.36703   0.57375   0.00000  Uiso   1.00
N615   N     0.61913   0.56713   0.43314   0.00000  Uiso   1.00
H616   H     0.60967   0.56982   0.39260   0.00000  Uiso   1.00
C617   C     0.62900   0.61452   0.45873   0.00000  Uiso   1.00
H618   H     0.59802   0.63617   0.46558   0.00000  Uiso   1.00
H619   H     0.65165   0.63644   0.43156   0.00000  Uiso   1.00
H620   H     0.64575   0.60857   0.49874   0.00000  Uiso   1.00
O621   O     0.25000   0.76178   0.54562   0.00000  Uiso   1.00
O622   O     0.25000   0.90488   0.45438   0.00000  Uiso   1.00
O623   O     0.25000   0.90488   0.54562   0.00000  Uiso   1.00
O624   O     0.25000   0.76178   0.45438   0.00000  Uiso   1.00
H625   H     0.45914   0.73792   0.59222   0.00000  Uiso   1.00
H626   H     0.04090   0.92735   0.40610   0.00000  Uiso   1.00
H627   H     0.46200   0.92630   0.40439   0.00000  Uiso   1.00
H628   H     0.03803   0.73758   0.59238   0.00000  Uiso   1.00
C629   C     0.24994   0.73932   0.50005   0.00000  Uiso   1.00
C630   C     0.24992   0.92734   0.49995   0.00000  Uiso   1.00
O631   O     0.18393   0.83333   0.54563   0.00000  Uiso   1.00
O632   O     0.31608   0.83333   0.45437   0.00000  Uiso   1.00
O633   O     0.31608   0.83333   0.54563   0.00000  Uiso   1.00
O634   O     0.18393   0.83333   0.45437   0.00000  Uiso   1.00
C635   C     0.16328   0.83273   0.50037   0.00000  Uiso   1.00
C636   C     0.33675   0.83414   0.49963   0.00000  Uiso   1.00
Zn637  Zn    0.25000   0.83333   0.56093   0.00000  Uiso   1.00
Zn638  Zn    0.25000   0.83333   0.43907   0.00000  Uiso   1.00
N639   N     0.25000   0.83333   0.35788   0.00000  Uiso   1.00
N640   N     0.25000   0.83333   0.64212   0.00000  Uiso   1.00
C641   C     0.40792   0.86694   0.46416   0.00000  Uiso   1.00
C642   C     0.09230   0.80030   0.53671   0.00000  Uiso   1.00
C643   C     0.40640   0.80022   0.53391   0.00000  Uiso   1.00
C644   C     0.09368   0.86677   0.46656   0.00000  Uiso   1.00
C645   C     0.38448   0.83359   0.49876   0.00000  Uiso   1.00
C646   C     0.11560   0.83310   0.50131   0.00000  Uiso   1.00
C647   C     0.45286   0.79954   0.53401   0.00000  Uiso   1.00
C648   C     0.04725   0.86703   0.46599   0.00000  Uiso   1.00
C649   C     0.45419   0.86689   0.46499   0.00000  Uiso   1.00
C650   C     0.04597   0.79969   0.53515   0.00000  Uiso   1.00
C651   C     0.47675   0.83324   0.49977   0.00000  Uiso   1.00
C652   C     0.02339   0.83334   0.50030   0.00000  Uiso   1.00
C653   C     0.47596   0.76533   0.56677   0.00000  Uiso   1.00
C654   C     0.02414   0.90042   0.43223   0.00000  Uiso   1.00
C655   C     0.47832   0.90010   0.43148   0.00000  Uiso   1.00
C656   C     0.02179   0.76520   0.56702   0.00000  Uiso   1.00
C657   C     0.24993   0.68840   0.50007   0.00000  Uiso   1.00
C658   C     0.24992   0.97827   0.49993   0.00000  Uiso   1.00
N659   N     0.38549   0.90201   0.42992   0.00000  Uiso   1.00
H660   H     0.36209   0.88771   0.40369   0.00000  Uiso   1.00
C661   C     0.37271   0.94790   0.45684   0.00000  Uiso   1.00
H662   H     0.34850   0.94032   0.49062   0.00000  Uiso   1.00
H663   H     0.35722   0.97345   0.42656   0.00000  Uiso   1.00
H664   H     0.40252   0.96656   0.47374   0.00000  Uiso   1.00
N665   N     0.11513   0.76618   0.57186   0.00000  Uiso   1.00
H666   H     0.14397   0.75110   0.55591   0.00000  Uiso   1.00
C667   C     0.11873   0.78178   0.62874   0.00000  Uiso   1.00
H668   H     0.13996   0.81554   0.63208   0.00000  Uiso   1.00
H669   H     0.13379   0.75127   0.65329   0.00000  Uiso   1.00
H670   H     0.08551   0.79027   0.64662   0.00000  Uiso   1.00
N671   N     0.38099   0.76813   0.56924   0.00000  Uiso   1.00
H672   H     0.39141   0.76631   0.60948   0.00000  Uiso   1.00
C673   C     0.36976   0.72024   0.54586   0.00000  Uiso   1.00
H674   H     0.40010   0.69722   0.54081   0.00000  Uiso   1.00
H675   H     0.35359   0.72516   0.50530   0.00000  Uiso   1.00
H676   H     0.34620   0.70036   0.57375   0.00000  Uiso   1.00
N677   N     0.11913   0.90047   0.43314   0.00000  Uiso   1.00
H678   H     0.10967   0.90315   0.39260   0.00000  Uiso   1.00
C679   C     0.12900   0.94785   0.45873   0.00000  Uiso   1.00
H680   H     0.09802   0.96951   0.46558   0.00000  Uiso   1.00
H681   H     0.15165   0.96977   0.43156   0.00000  Uiso   1.00
H682   H     0.14575   0.94191   0.49874   0.00000  Uiso   1.00
O683   O     0.75000   0.76178   0.54562   0.00000  Uiso   1.00
O684   O     0.75000   0.90488   0.45438   0.00000  Uiso   1.00
O685   O     0.75000   0.90488   0.54562   0.00000  Uiso   1.00
O686   O     0.75000   0.76178   0.45438   0.00000  Uiso   1.00
H687   H     0.95914   0.73792   0.59222   0.00000  Uiso   1.00
H688   H     0.54090   0.92735   0.40610   0.00000  Uiso   1.00
H689   H     0.96200   0.92630   0.40439   0.00000  Uiso   1.00
H690   H     0.53803   0.73758   0.59238   0.00000  Uiso   1.00
C691   C     0.74994   0.73932   0.50005   0.00000  Uiso   1.00
C692   C     0.74992   0.92734   0.49995   0.00000  Uiso   1.00
O693   O     0.68393   0.83333   0.54563   0.00000  Uiso   1.00
O694   O     0.81608   0.83333   0.45437   0.00000  Uiso   1.00
O695   O     0.81608   0.83333   0.54563   0.00000  Uiso   1.00
O696   O     0.68393   0.83333   0.45437   0.00000  Uiso   1.00
C697   C     0.66328   0.83273   0.50037   0.00000  Uiso   1.00
C698   C     0.83675   0.83414   0.49963   0.00000  Uiso   1.00
Zn699  Zn    0.75000   0.83333   0.56093   0.00000  Uiso   1.00
Zn700  Zn    0.75000   0.83333   0.43907   0.00000  Uiso   1.00
N701   N     0.75000   0.83333   0.35788   0.00000  Uiso   1.00
N702   N     0.75000   0.83333   0.64212   0.00000  Uiso   1.00
C703   C     0.90792   0.86694   0.46416   0.00000  Uiso   1.00
C704   C     0.59230   0.80030   0.53671   0.00000  Uiso   1.00
C705   C     0.90640   0.80022   0.53391   0.00000  Uiso   1.00
C706   C     0.59368   0.86677   0.46656   0.00000  Uiso   1.00
C707   C     0.88448   0.83359   0.49876   0.00000  Uiso   1.00
C708   C     0.61560   0.83310   0.50131   0.00000  Uiso   1.00
C709   C     0.95286   0.79954   0.53401   0.00000  Uiso   1.00
C710   C     0.54725   0.86703   0.46599   0.00000  Uiso   1.00
C711   C     0.95419   0.86689   0.46499   0.00000  Uiso   1.00
C712   C     0.54597   0.79969   0.53515   0.00000  Uiso   1.00
C713   C     0.97675   0.83324   0.49977   0.00000  Uiso   1.00
C714   C     0.52339   0.83334   0.50030   0.00000  Uiso   1.00
C715   C     0.97596   0.76533   0.56677   0.00000  Uiso   1.00
C716   C     0.52414   0.90042   0.43223   0.00000  Uiso   1.00
C717   C     0.97832   0.90010   0.43148   0.00000  Uiso   1.00
C718   C     0.52179   0.76520   0.56702   0.00000  Uiso   1.00
C719   C     0.74993   0.68840   0.50007   0.00000  Uiso   1.00
C720   C     0.74992   0.97827   0.49993   0.00000  Uiso   1.00
N721   N     0.88549   0.90201   0.42992   0.00000  Uiso   1.00
H722   H     0.86209   0.88771   0.40369   0.00000  Uiso   1.00
C723   C     0.87271   0.94790   0.45684   0.00000  Uiso   1.00
H724   H     0.84850   0.94032   0.49062   0.00000  Uiso   1.00
H725   H     0.85722   0.97345   0.42656   0.00000  Uiso   1.00
H726   H     0.90252   0.96656   0.47374   0.00000  Uiso   1.00
N727   N     0.61513   0.76618   0.57186   0.00000  Uiso   1.00
H728   H     0.64397   0.75110   0.55591   0.00000  Uiso   1.00
C729   C     0.61873   0.78178   0.62874   0.00000  Uiso   1.00
H730   H     0.63996   0.81554   0.63208   0.00000  Uiso   1.00
H731   H     0.63379   0.75127   0.65329   0.00000  Uiso   1.00
H732   H     0.58551   0.79027   0.64662   0.00000  Uiso   1.00
N733   N     0.88099   0.76813   0.56924   0.00000  Uiso   1.00
H734   H     0.89141   0.76631   0.60948   0.00000  Uiso   1.00
C735   C     0.86976   0.72024   0.54586   0.00000  Uiso   1.00
H736   H     0.90010   0.69722   0.54081   0.00000  Uiso   1.00
H737   H     0.85359   0.72516   0.50530   0.00000  Uiso   1.00
H738   H     0.84620   0.70036   0.57375   0.00000  Uiso   1.00
N739   N     0.61913   0.90047   0.43314   0.00000  Uiso   1.00
H740   H     0.60967   0.90315   0.39260   0.00000  Uiso   1.00
C741   C     0.62900   0.94785   0.45873   0.00000  Uiso   1.00
H742   H     0.59802   0.96951   0.46558   0.00000  Uiso   1.00
H743   H     0.65165   0.96977   0.43156   0.00000  Uiso   1.00
H744   H     0.64575   0.94191   0.49874   0.00000  Uiso   1.00
O745   O     0.25000   0.09512   0.87895   0.00000  Uiso   1.00
O746   O     0.25000   0.23822   0.78772   0.00000  Uiso   1.00
O747   O     0.25000   0.23822   0.87895   0.00000  Uiso   1.00
O748   O     0.25000   0.09512   0.78772   0.00000  Uiso   1.00
H749   H     0.45914   0.07125   0.92555   0.00000  Uiso   1.00
H750   H     0.04090   0.26068   0.73943   0.00000  Uiso   1.00
H751   H     0.46200   0.25964   0.73772   0.00000  Uiso   1.00
H752   H     0.03803   0.07091   0.92572   0.00000  Uiso   1.00
C753   C     0.24994   0.07266   0.83338   0.00000  Uiso   1.00
C754   C     0.24992   0.26067   0.83329   0.00000  Uiso   1.00
O755   O     0.18393   0.16667   0.87896   0.00000  Uiso   1.00
O756   O     0.31608   0.16667   0.78770   0.00000  Uiso   1.00
O757   O     0.31608   0.16667   0.87896   0.00000  Uiso   1.00
O758   O     0.18393   0.16667   0.78770   0.00000  Uiso   1.00
C759   C     0.16328   0.16607   0.83371   0.00000  Uiso   1.00
C760   C     0.33675   0.16747   0.83296   0.00000  Uiso   1.00
Zn761  Zn    0.25000   0.16667   0.89426   0.00000  Uiso   1.00
Zn762  Zn    0.25000   0.16667   0.77241   0.00000  Uiso   1.00
N763   N     0.25000   0.16667   0.69121   0.00000  Uiso   1.00
N764   N     0.25000   0.16667   0.97545   0.00000  Uiso   1.00
C765   C     0.40792   0.20027   0.79749   0.00000  Uiso   1.00
C766   C     0.09230   0.13364   0.87005   0.00000  Uiso   1.00
C767   C     0.40640   0.13356   0.86725   0.00000  Uiso   1.00
C768   C     0.09368   0.20010   0.79990   0.00000  Uiso   1.00
C769   C     0.38448   0.16692   0.83210   0.00000  Uiso   1.00
C770   C     0.11560   0.16643   0.83464   0.00000  Uiso   1.00
C771   C     0.45286   0.13287   0.86735   0.00000  Uiso   1.00
C772   C     0.04725   0.20036   0.79933   0.00000  Uiso   1.00
C773   C     0.45419   0.20022   0.79832   0.00000  Uiso   1.00
C774   C     0.04597   0.13302   0.86848   0.00000  Uiso   1.00
C775   C     0.47675   0.16657   0.83311   0.00000  Uiso   1.00
C776   C     0.02339   0.16667   0.83364   0.00000  Uiso   1.00
C777   C     0.47596   0.09867   0.90010   0.00000  Uiso   1.00
C778   C     0.02414   0.23376   0.76556   0.00000  Uiso   1.00
C779   C     0.47832   0.23343   0.76481   0.00000  Uiso   1.00
C780   C     0.02179   0.09854   0.90035   0.00000  Uiso   1.00
C781   C     0.24993   0.02173   0.83340   0.00000  Uiso   1.00
C782   C     0.24992   0.31160   0.83326   0.00000  Uiso   1.00
N783   N     0.38549   0.23534   0.76326   0.00000  Uiso   1.00
H784   H     0.36209   0.22105   0.73702   0.00000  Uiso   1.00
C785   C     0.37271   0.28123   0.79017   0.00000  Uiso   1.00
H786   H     0.34850   0.27365   0.82396   0.00000  Uiso   1.00
H787   H     0.35722   0.30678   0.75990   0.00000  Uiso   1.00
H788   H     0.40252   0.29990   0.80707   0.00000  Uiso   1.00
N789   N     0.11513   0.09952   0.90519   0.00000  Uiso   1.00
H790   H     0.14397   0.08443   0.88924   0.00000  Uiso   1.00
C791   C     0.11873   0.11511   0.96207   0.00000  Uiso   1.00
H792   H     0.13996   0.14888   0.96541   0.00000  Uiso   1.00
H793   H     0.13379   0.08460   0.98663   0.00000  Uiso   1.00
H794   H     0.08551   0.12360   0.97995   0.00000  Uiso   1.00
N795   N     0.38099   0.10146   0.90258   0.00000  Uiso   1.00
H796   H     0.39141   0.09964   0.94281   0.00000  Uiso   1.00
C797   C     0.36976   0.05357   0.87919   0.00000  Uiso   1.00
H798   H     0.40010   0.03055   0.87414   0.00000  Uiso   1.00
H799   H     0.35359   0.05849   0.83864   0.00000  Uiso   1.00
H800   H     0.34620   0.03370   0.90708   0.00000  Uiso   1.00
N801   N     0.11913   0.23380   0.76647   0.00000  Uiso   1.00
H802   H     0.10967   0.23648   0.72593   0.00000  Uiso   1.00
C803   C     0.12900   0.28119   0.79206   0.00000  Uiso   1.00
H804   H     0.09802   0.30284   0.79891   0.00000  Uiso   1.00
H805   H     0.15165   0.30310   0.76489   0.00000  Uiso   1.00
H806   H     0.14575   0.27524   0.83208   0.00000  Uiso   1.00
O807   O     0.75000   0.09512   0.87895   0.00000  Uiso   1.00
O808   O     0.75000   0.23822   0.78772   0.00000  Uiso   1.00
O809   O     0.75000   0.23822   0.87895   0.00000  Uiso   1.00
O810   O     0.75000   0.09512   0.78772   0.00000  Uiso   1.00
H811   H     0.95914   0.07125   0.92555   0.00000  Uiso   1.00
H812   H     0.54090   0.26068   0.73943   0.00000  Uiso   1.00
H813   H     0.96200   0.25964   0.73772   0.00000  Uiso   1.00
H814   H     0.53803   0.07091   0.92572   0.00000  Uiso   1.00
C815   C     0.74994   0.07266   0.83338   0.00000  Uiso   1.00
C816   C     0.74992   0.26067   0.83329   0.00000  Uiso   1.00
O817   O     0.68393   0.16667   0.87896   0.00000  Uiso   1.00
O818   O     0.81608   0.16667   0.78770   0.00000  Uiso   1.00
O819   O     0.81608   0.16667   0.87896   0.00000  Uiso   1.00
O820   O     0.68393   0.16667   0.78770   0.00000  Uiso   1.00
C821   C     0.66328   0.16607   0.83371   0.00000  Uiso   1.00
C822   C     0.83675   0.16747   0.83296   0.00000  Uiso   1.00
Zn823  Zn    0.75000   0.16667   0.89426   0.00000  Uiso   1.00
Zn824  Zn    0.75000   0.16667   0.77241   0.00000  Uiso   1.00
N825   N     0.75000   0.16667   0.69121   0.00000  Uiso   1.00
N826   N     0.75000   0.16667   0.97545   0.00000  Uiso   1.00
C827   C     0.90792   0.20027   0.79749   0.00000  Uiso   1.00
C828   C     0.59230   0.13364   0.87005   0.00000  Uiso   1.00
C829   C     0.90640   0.13356   0.86725   0.00000  Uiso   1.00
C830   C     0.59368   0.20010   0.79990   0.00000  Uiso   1.00
C831   C     0.88448   0.16692   0.83210   0.00000  Uiso   1.00
C832   C     0.61560   0.16643   0.83464   0.00000  Uiso   1.00
C833   C     0.95286   0.13287   0.86735   0.00000  Uiso   1.00
C834   C     0.54725   0.20036   0.79933   0.00000  Uiso   1.00
C835   C     0.95419   0.20022   0.79832   0.00000  Uiso   1.00
C836   C     0.54597   0.13302   0.86848   0.00000  Uiso   1.00
C837   C     0.97675   0.16657   0.83311   0.00000  Uiso   1.00
C838   C     0.52339   0.16667   0.83364   0.00000  Uiso   1.00
C839   C     0.97596   0.09867   0.90010   0.00000  Uiso   1.00
C840   C     0.52414   0.23376   0.76556   0.00000  Uiso   1.00
C841   C     0.97832   0.23343   0.76481   0.00000  Uiso   1.00
C842   C     0.52179   0.09854   0.90035   0.00000  Uiso   1.00
C843   C     0.74993   0.02173   0.83340   0.00000  Uiso   1.00
C844   C     0.74992   0.31160   0.83326   0.00000  Uiso   1.00
N845   N     0.88549   0.23534   0.76326   0.00000  Uiso   1.00
H846   H     0.86209   0.22105   0.73702   0.00000  Uiso   1.00
C847   C     0.87271   0.28123   0.79017   0.00000  Uiso   1.00
H848   H     0.84850   0.27365   0.82396   0.00000  Uiso   1.00
H849   H     0.85722   0.30678   0.75990   0.00000  Uiso   1.00
H850   H     0.90252   0.29990   0.80707   0.00000  Uiso   1.00
N851   N     0.61513   0.09952   0.90519   0.00000  Uiso   1.00
H852   H     0.64397   0.08443   0.88924   0.00000  Uiso   1.00
C853   C     0.61873   0.11511   0.96207   0.00000  Uiso   1.00
H854   H     0.63996   0.14888   0.96541   0.00000  Uiso   1.00
H855   H     0.63379   0.08460   0.98663   0.00000  Uiso   1.00
H856   H     0.58551   0.12360   0.97995   0.00000  Uiso   1.00
N857   N     0.88099   0.10146   0.90258   0.00000  Uiso   1.00
H858   H     0.89141   0.09964   0.94281   0.00000  Uiso   1.00
C859   C     0.86976   0.05357   0.87919   0.00000  Uiso   1.00
H860   H     0.90010   0.03055   0.87414   0.00000  Uiso   1.00
H861   H     0.85359   0.05849   0.83864   0.00000  Uiso   1.00
H862   H     0.84620   0.03370   0.90708   0.00000  Uiso   1.00
N863   N     0.61913   0.23380   0.76647   0.00000  Uiso   1.00
H864   H     0.60967   0.23648   0.72593   0.00000  Uiso   1.00
C865   C     0.62900   0.28119   0.79206   0.00000  Uiso   1.00
H866   H     0.59802   0.30284   0.79891   0.00000  Uiso   1.00
H867   H     0.65165   0.30310   0.76489   0.00000  Uiso   1.00
H868   H     0.64575   0.27524   0.83208   0.00000  Uiso   1.00
O869   O     0.25000   0.42845   0.87895   0.00000  Uiso   1.00
O870   O     0.25000   0.57155   0.78772   0.00000  Uiso   1.00
O871   O     0.25000   0.57155   0.87895   0.00000  Uiso   1.00
O872   O     0.25000   0.42845   0.78772   0.00000  Uiso   1.00
H873   H     0.45914   0.40459   0.92555   0.00000  Uiso   1.00
H874   H     0.04090   0.59401   0.73943   0.00000  Uiso   1.00
H875   H     0.46200   0.59297   0.73772   0.00000  Uiso   1.00
H876   H     0.03803   0.40425   0.92572   0.00000  Uiso   1.00
C877   C     0.24994   0.40599   0.83338   0.00000  Uiso   1.00
C878   C     0.24992   0.59401   0.83329   0.00000  Uiso   1.00
O879   O     0.18393   0.50000   0.87896   0.00000  Uiso   1.00
O880   O     0.31608   0.50000   0.78770   0.00000  Uiso   1.00
O881   O     0.31608   0.50000   0.87896   0.00000  Uiso   1.00
O882   O     0.18393   0.50000   0.78770   0.00000  Uiso   1.00
C883   C     0.16328   0.49940   0.83371   0.00000  Uiso   1.00
C884   C     0.33675   0.50080   0.83296   0.00000  Uiso   1.00
Zn885  Zn    0.25000   0.50000   0.89426   0.00000  Uiso   1.00
Zn886  Zn    0.25000   0.50000   0.77241   0.00000  Uiso   1.00
N887   N     0.25000   0.50000   0.69121   0.00000  Uiso   1.00
N888   N     0.25000   0.50000   0.97545   0.00000  Uiso   1.00
C889   C     0.40792   0.53360   0.79749   0.00000  Uiso   1.00
C890   C     0.09230   0.46697   0.87005   0.00000  Uiso   1.00
C891   C     0.40640   0.46689   0.86725   0.00000  Uiso   1.00
C892   C     0.09368   0.53343   0.79990   0.00000  Uiso   1.00
C893   C     0.38448   0.50025   0.83210   0.00000  Uiso   1.00
C894   C     0.11560   0.49976   0.83464   0.00000  Uiso   1.00
C895   C     0.45286   0.46621   0.86735   0.00000  Uiso   1.00
C896   C     0.04725   0.53370   0.79933   0.00000  Uiso   1.00
C897   C     0.45419   0.53355   0.79832   0.00000  Uiso   1.00
C898   C     0.04597   0.46636   0.86848   0.00000  Uiso   1.00
C899   C     0.47675   0.49990   0.83311   0.00000  Uiso   1.00
C900   C     0.02339   0.50000   0.83364   0.00000  Uiso   1.00
C901   C     0.47596   0.43200   0.90010   0.00000  Uiso   1.00
C902   C     0.02414   0.56709   0.76556   0.00000  Uiso   1.00
C903   C     0.47832   0.56677   0.76481   0.00000  Uiso   1.00
C904   C     0.02179   0.43187   0.90035   0.00000  Uiso   1.00
C905   C     0.24993   0.35506   0.83340   0.00000  Uiso   1.00
C906   C     0.24992   0.64494   0.83326   0.00000  Uiso   1.00
N907   N     0.38549   0.56868   0.76326   0.00000  Uiso   1.00
H908   H     0.36209   0.55438   0.73702   0.00000  Uiso   1.00
C909   C     0.37271   0.61456   0.79017   0.00000  Uiso   1.00
H910   H     0.34850   0.60698   0.82396   0.00000  Uiso   1.00
H911   H     0.35722   0.64011   0.75990   0.00000  Uiso   1.00
H912   H     0.40252   0.63323   0.80707   0.00000  Uiso   1.00
N913   N     0.11513   0.43285   0.90519   0.00000  Uiso   1.00
H914   H     0.14397   0.41777   0.88924   0.00000  Uiso   1.00
C915   C     0.11873   0.44845   0.96207   0.00000  Uiso   1.00
H916   H     0.13996   0.48221   0.96541   0.00000  Uiso   1.00
H917   H     0.13379   0.41794   0.98663   0.00000  Uiso   1.00
H918   H     0.08551   0.45693   0.97995   0.00000  Uiso   1.00
N919   N     0.38099   0.43479   0.90258   0.00000  Uiso   1.00
H920   H     0.39141   0.43297   0.94281   0.00000  Uiso   1.00
C921   C     0.36976   0.38691   0.87919   0.00000  Uiso   1.00
H922   H     0.40010   0.36388   0.87414   0.00000  Uiso   1.00
H923   H     0.35359   0.39182   0.83864   0.00000  Uiso   1.00
H924   H     0.34620   0.36703   0.90708   0.00000  Uiso   1.00
N925   N     0.11913   0.56713   0.76647   0.00000  Uiso   1.00
H926   H     0.10967   0.56982   0.72593   0.00000  Uiso   1.00
C927   C     0.12900   0.61452   0.79206   0.00000  Uiso   1.00
H928   H     0.09802   0.63617   0.79891   0.00000  Uiso   1.00
H929   H     0.15165   0.63644   0.76489   0.00000  Uiso   1.00
H930   H     0.14575   0.60857   0.83208   0.00000  Uiso   1.00
O931   O     0.75000   0.42845   0.87895   0.00000  Uiso   1.00
O932   O     0.75000   0.57155   0.78772   0.00000  Uiso   1.00
O933   O     0.75000   0.57155   0.87895   0.00000  Uiso   1.00
O934   O     0.75000   0.42845   0.78772   0.00000  Uiso   1.00
H935   H     0.95914   0.40459   0.92555   0.00000  Uiso   1.00
H936   H     0.54090   0.59401   0.73943   0.00000  Uiso   1.00
H937   H     0.96200   0.59297   0.73772   0.00000  Uiso   1.00
H938   H     0.53803   0.40425   0.92572   0.00000  Uiso   1.00
C939   C     0.74994   0.40599   0.83338   0.00000  Uiso   1.00
C940   C     0.74992   0.59401   0.83329   0.00000  Uiso   1.00
O941   O     0.68393   0.50000   0.87896   0.00000  Uiso   1.00
O942   O     0.81608   0.50000   0.78770   0.00000  Uiso   1.00
O943   O     0.81608   0.50000   0.87896   0.00000  Uiso   1.00
O944   O     0.68393   0.50000   0.78770   0.00000  Uiso   1.00
C945   C     0.66328   0.49940   0.83371   0.00000  Uiso   1.00
C946   C     0.83675   0.50080   0.83296   0.00000  Uiso   1.00
Zn947  Zn    0.75000   0.50000   0.89426   0.00000  Uiso   1.00
Zn948  Zn    0.75000   0.50000   0.77241   0.00000  Uiso   1.00
N949   N     0.75000   0.50000   0.69121   0.00000  Uiso   1.00
N950   N     0.75000   0.50000   0.97545   0.00000  Uiso   1.00
C951   C     0.90792   0.53360   0.79749   0.00000  Uiso   1.00
C952   C     0.59230   0.46697   0.87005   0.00000  Uiso   1.00
C953   C     0.90640   0.46689   0.86725   0.00000  Uiso   1.00
C954   C     0.59368   0.53343   0.79990   0.00000  Uiso   1.00
C955   C     0.88448   0.50025   0.83210   0.00000  Uiso   1.00
C956   C     0.61560   0.49976   0.83464   0.00000  Uiso   1.00
C957   C     0.95286   0.46621   0.86735   0.00000  Uiso   1.00
C958   C     0.54725   0.53370   0.79933   0.00000  Uiso   1.00
C959   C     0.95419   0.53355   0.79832   0.00000  Uiso   1.00
C960   C     0.54597   0.46636   0.86848   0.00000  Uiso   1.00
C961   C     0.97675   0.49990   0.83311   0.00000  Uiso   1.00
C962   C     0.52339   0.50000   0.83364   0.00000  Uiso   1.00
C963   C     0.97596   0.43200   0.90010   0.00000  Uiso   1.00
C964   C     0.52414   0.56709   0.76556   0.00000  Uiso   1.00
C965   C     0.97832   0.56677   0.76481   0.00000  Uiso   1.00
C966   C     0.52179   0.43187   0.90035   0.00000  Uiso   1.00
C967   C     0.74993   0.35506   0.83340   0.00000  Uiso   1.00
C968   C     0.74992   0.64494   0.83326   0.00000  Uiso   1.00
N969   N     0.88549   0.56868   0.76326   0.00000  Uiso   1.00
H970   H     0.86209   0.55438   0.73702   0.00000  Uiso   1.00
C971   C     0.87271   0.61456   0.79017   0.00000  Uiso   1.00
H972   H     0.84850   0.60698   0.82396   0.00000  Uiso   1.00
H973   H     0.85722   0.64011   0.75990   0.00000  Uiso   1.00
H974   H     0.90252   0.63323   0.80707   0.00000  Uiso   1.00
N975   N     0.61513   0.43285   0.90519   0.00000  Uiso   1.00
H976   H     0.64397   0.41777   0.88924   0.00000  Uiso   1.00
C977   C     0.61873   0.44845   0.96207   0.00000  Uiso   1.00
H978   H     0.63996   0.48221   0.96541   0.00000  Uiso   1.00
H979   H     0.63379   0.41794   0.98663   0.00000  Uiso   1.00
H980   H     0.58551   0.45693   0.97995   0.00000  Uiso   1.00
N981   N     0.88099   0.43479   0.90258   0.00000  Uiso   1.00
H982   H     0.89141   0.43297   0.94281   0.00000  Uiso   1.00
C983   C     0.86976   0.38691   0.87919   0.00000  Uiso   1.00
H984   H     0.90010   0.36388   0.87414   0.00000  Uiso   1.00
H985   H     0.85359   0.39182   0.83864   0.00000  Uiso   1.00
H986   H     0.84620   0.36703   0.90708   0.00000  Uiso   1.00
N987   N     0.61913   0.56713   0.76647   0.00000  Uiso   1.00
H988   H     0.60967   0.56982   0.72593   0.00000  Uiso   1.00
C989   C     0.62900   0.61452   0.79206   0.00000  Uiso   1.00
H990   H     0.59802   0.63617   0.79891   0.00000  Uiso   1.00
H991   H     0.65165   0.63644   0.76489   0.00000  Uiso   1.00
H992   H     0.64575   0.60857   0.83208   0.00000  Uiso   1.00
O993   O     0.25000   0.76178   0.87895   0.00000  Uiso   1.00
O994   O     0.25000   0.90488   0.78772   0.00000  Uiso   1.00
O995   O     0.25000   0.90488   0.87895   0.00000  Uiso   1.00
O996   O     0.25000   0.76178   0.78772   0.00000  Uiso   1.00
H997   H     0.45914   0.73792   0.92555   0.00000  Uiso   1.00
H998   H     0.04090   0.92735   0.73943   0.00000  Uiso   1.00
H999   H     0.46200   0.92630   0.73772   0.00000  Uiso   1.00
H1000  H     0.03803   0.73758   0.92572   0.00000  Uiso   1.00
C1001  C     0.24994   0.73932   0.83338   0.00000  Uiso   1.00
C1002  C     0.24992   0.92734   0.83329   0.00000  Uiso   1.00
O1003  O     0.18393   0.83333   0.87896   0.00000  Uiso   1.00
O1004  O     0.31608   0.83333   0.78770   0.00000  Uiso   1.00
O1005  O     0.31608   0.83333   0.87896   0.00000  Uiso   1.00
O1006  O     0.18393   0.83333   0.78770   0.00000  Uiso   1.00
C1007  C     0.16328   0.83273   0.83371   0.00000  Uiso   1.00
C1008  C     0.33675   0.83414   0.83296   0.00000  Uiso   1.00
Zn1009 Zn    0.25000   0.83333   0.89426   0.00000  Uiso   1.00
Zn1010 Zn    0.25000   0.83333   0.77241   0.00000  Uiso   1.00
N1011  N     0.25000   0.83333   0.69121   0.00000  Uiso   1.00
N1012  N     0.25000   0.83333   0.97545   0.00000  Uiso   1.00
C1013  C     0.40792   0.86694   0.79749   0.00000  Uiso   1.00
C1014  C     0.09230   0.80030   0.87005   0.00000  Uiso   1.00
C1015  C     0.40640   0.80022   0.86725   0.00000  Uiso   1.00
C1016  C     0.09368   0.86677   0.79990   0.00000  Uiso   1.00
C1017  C     0.38448   0.83359   0.83210   0.00000  Uiso   1.00
C1018  C     0.11560   0.83310   0.83464   0.00000  Uiso   1.00
C1019  C     0.45286   0.79954   0.86735   0.00000  Uiso   1.00
C1020  C     0.04725   0.86703   0.79933   0.00000  Uiso   1.00
C1021  C     0.45419   0.86689   0.79832   0.00000  Uiso   1.00
C1022  C     0.04597   0.79969   0.86848   0.00000  Uiso   1.00
C1023  C     0.47675   0.83324   0.83311   0.00000  Uiso   1.00
C1024  C     0.02339   0.83334   0.83364   0.00000  Uiso   1.00
C1025  C     0.47596   0.76533   0.90010   0.00000  Uiso   1.00
C1026  C     0.02414   0.90042   0.76556   0.00000  Uiso   1.00
C1027  C     0.47832   0.90010   0.76481   0.00000  Uiso   1.00
C1028  C     0.02179   0.76520   0.90035   0.00000  Uiso   1.00
C1029  C     0.24993   0.68840   0.83340   0.00000  Uiso   1.00
C1030  C     0.24992   0.97827   0.83326   0.00000  Uiso   1.00
N1031  N     0.38549   0.90201   0.76326   0.00000  Uiso   1.00
H1032  H     0.36209   0.88771   0.73702   0.00000  Uiso   1.00
C1033  C     0.37271   0.94790   0.79017   0.00000  Uiso   1.00
H1034  H     0.34850   0.94032   0.82396   0.00000  Uiso   1.00
H1035  H     0.35722   0.97345   0.75990   0.00000  Uiso   1.00
H1036  H     0.40252   0.96656   0.80707   0.00000  Uiso   1.00
N1037  N     0.11513   0.76618   0.90519   0.00000  Uiso   1.00
H1038  H     0.14397   0.75110   0.88924   0.00000  Uiso   1.00
C1039  C     0.11873   0.78178   0.96207   0.00000  Uiso   1.00
H1040  H     0.13996   0.81554   0.96541   0.00000  Uiso   1.00
H1041  H     0.13379   0.75127   0.98663   0.00000  Uiso   1.00
H1042  H     0.08551   0.79027   0.97995   0.00000  Uiso   1.00
N1043  N     0.38099   0.76813   0.90258   0.00000  Uiso   1.00
H1044  H     0.39141   0.76631   0.94281   0.00000  Uiso   1.00
C1045  C     0.36976   0.72024   0.87919   0.00000  Uiso   1.00
H1046  H     0.40010   0.69722   0.87414   0.00000  Uiso   1.00
H1047  H     0.35359   0.72516   0.83864   0.00000  Uiso   1.00
H1048  H     0.34620   0.70036   0.90708   0.00000  Uiso   1.00
N1049  N     0.11913   0.90047   0.76647   0.00000  Uiso   1.00
H1050  H     0.10967   0.90315   0.72593   0.00000  Uiso   1.00
C1051  C     0.12900   0.94785   0.79206   0.00000  Uiso   1.00
H1052  H     0.09802   0.96951   0.79891   0.00000  Uiso   1.00
H1053  H     0.15165   0.96977   0.76489   0.00000  Uiso   1.00
H1054  H     0.14575   0.94191   0.83208   0.00000  Uiso   1.00
O1055  O     0.75000   0.76178   0.87895   0.00000  Uiso   1.00
O1056  O     0.75000   0.90488   0.78772   0.00000  Uiso   1.00
O1057  O     0.75000   0.90488   0.87895   0.00000  Uiso   1.00
O1058  O     0.75000   0.76178   0.78772   0.00000  Uiso   1.00
H1059  H     0.95914   0.73792   0.92555   0.00000  Uiso   1.00
H1060  H     0.54090   0.92735   0.73943   0.00000  Uiso   1.00
H1061  H     0.96200   0.92630   0.73772   0.00000  Uiso   1.00
H1062  H     0.53803   0.73758   0.92572   0.00000  Uiso   1.00
C1063  C     0.74994   0.73932   0.83338   0.00000  Uiso   1.00
C1064  C     0.74992   0.92734   0.83329   0.00000  Uiso   1.00
O1065  O     0.68393   0.83333   0.87896   0.00000  Uiso   1.00
O1066  O     0.81608   0.83333   0.78770   0.00000  Uiso   1.00
O1067  O     0.81608   0.83333   0.87896   0.00000  Uiso   1.00
O1068  O     0.68393   0.83333   0.78770   0.00000  Uiso   1.00
C1069  C     0.66328   0.83273   0.83371   0.00000  Uiso   1.00
C1070  C     0.83675   0.83414   0.83296   0.00000  Uiso   1.00
Zn1071 Zn    0.75000   0.83333   0.89426   0.00000  Uiso   1.00
Zn1072 Zn    0.75000   0.83333   0.77241   0.00000  Uiso   1.00
N1073  N     0.75000   0.83333   0.69121   0.00000  Uiso   1.00
N1074  N     0.75000   0.83333   0.97545   0.00000  Uiso   1.00
C1075  C     0.90792   0.86694   0.79749   0.00000  Uiso   1.00
C1076  C     0.59230   0.80030   0.87005   0.00000  Uiso   1.00
C1077  C     0.90640   0.80022   0.86725   0.00000  Uiso   1.00
C1078  C     0.59368   0.86677   0.79990   0.00000  Uiso   1.00
C1079  C     0.88448   0.83359   0.83210   0.00000  Uiso   1.00
C1080  C     0.61560   0.83310   0.83464   0.00000  Uiso   1.00
C1081  C     0.95286   0.79954   0.86735   0.00000  Uiso   1.00
C1082  C     0.54725   0.86703   0.79933   0.00000  Uiso   1.00
C1083  C     0.95419   0.86689   0.79832   0.00000  Uiso   1.00
C1084  C     0.54597   0.79969   0.86848   0.00000  Uiso   1.00
C1085  C     0.97675   0.83324   0.83311   0.00000  Uiso   1.00
C1086  C     0.52339   0.83334   0.83364   0.00000  Uiso   1.00
C1087  C     0.97596   0.76533   0.90010   0.00000  Uiso   1.00
C1088  C     0.52414   0.90042   0.76556   0.00000  Uiso   1.00
C1089  C     0.97832   0.90010   0.76481   0.00000  Uiso   1.00
C1090  C     0.52179   0.76520   0.90035   0.00000  Uiso   1.00
C1091  C     0.74993   0.68840   0.83340   0.00000  Uiso   1.00
C1092  C     0.74992   0.97827   0.83326   0.00000  Uiso   1.00
N1093  N     0.88549   0.90201   0.76326   0.00000  Uiso   1.00
H1094  H     0.86209   0.88771   0.73702   0.00000  Uiso   1.00
C1095  C     0.87271   0.94790   0.79017   0.00000  Uiso   1.00
H1096  H     0.84850   0.94032   0.82396   0.00000  Uiso   1.00
H1097  H     0.85722   0.97345   0.75990   0.00000  Uiso   1.00
H1098  H     0.90252   0.96656   0.80707   0.00000  Uiso   1.00
N1099  N     0.61513   0.76618   0.90519   0.00000  Uiso   1.00
H1100  H     0.64397   0.75110   0.88924   0.00000  Uiso   1.00
C1101  C     0.61873   0.78178   0.96207   0.00000  Uiso   1.00
H1102  H     0.63996   0.81554   0.96541   0.00000  Uiso   1.00
H1103  H     0.63379   0.75127   0.98663   0.00000  Uiso   1.00
H1104  H     0.58551   0.79027   0.97995   0.00000  Uiso   1.00
N1105  N     0.88099   0.76813   0.90258   0.00000  Uiso   1.00
H1106  H     0.89141   0.76631   0.94281   0.00000  Uiso   1.00
C1107  C     0.86976   0.72024   0.87919   0.00000  Uiso   1.00
H1108  H     0.90010   0.69722   0.87414   0.00000  Uiso   1.00
H1109  H     0.85359   0.72516   0.83864   0.00000  Uiso   1.00
H1110  H     0.84620   0.70036   0.90708   0.00000  Uiso   1.00
N1111  N     0.61913   0.90047   0.76647   0.00000  Uiso   1.00
H1112  H     0.60967   0.90315   0.72593   0.00000  Uiso   1.00
C1113  C     0.62900   0.94785   0.79206   0.00000  Uiso   1.00
H1114  H     0.59802   0.96951   0.79891   0.00000  Uiso   1.00
H1115  H     0.65165   0.96977   0.76489   0.00000  Uiso   1.00
H1116  H     0.64575   0.94191   0.83208   0.00000  Uiso   1.00
loop_
_geom_bond_atom_site_label_1
_geom_bond_atom_site_label_2
_geom_bond_distance
_geom_bond_site_symmetry_2
_ccdc_geom_bond_type
O1     Zn17    1.953   .     S
O1     C9      1.262   .     A
O2     Zn18    1.953   .     S
O2     C10     1.262   .     A
O3     C10     1.261   .     A
O3     Zn17    1.951   .     S
O4     Zn18    1.951   .     S
O4     C9      1.261   .     A
H5     C33     1.081   .     S
H6     C34     1.081   .     S
H7     C35     1.083   .     S
H8     C36     1.082   .     S
C9     C37     1.364   .     S
C10    C38     1.364   .     S
O11    C15     1.269   .     A
O11    Zn17    2.028   .     S
O12    Zn18    2.028   .     S
O12    C16     1.269   .     A
O13    Zn17    2.020   .     S
O13    C16     1.274   .     A
O14    Zn18    2.020   .     S
O14    C15     1.273   .     A
C15    C26     1.436   .     S
C16    C25     1.437   .     S
Zn17   N20     1.973   .     S
Zn18   N19     1.973   .     S
N19    N764    1.193   1_554 S
N20    N391    1.193   .     S
C21    N39     1.429   .     S
C21    C25     1.409   .     A
C21    C29     1.394   .     A
C22    N45     1.431   .     S
C22    C26     1.409   .     A
C22    C30     1.396   .     A
C23    C25     1.405   .     A
C23    C27     1.399   .     A
C23    N51     1.429   .     S
C24    C28     1.398   .     A
C24    C26     1.404   .     A
C24    N57     1.429   .     S
C27    C33     1.402   .     A
C27    C31     1.416   .     A
C28    C34     1.403   .     A
C28    C32     1.417   .     A
C29    C35     1.401   .     A
C29    C31     1.414   .     A
C30    C36     1.402   .     A
C30    C32     1.415   .     A
C31    C94     1.405   .     S
C32    C93     1.405   1_455 S
C33    C98     1.380   .     S
C34    C97     1.380   1_455 S
C35    C96     1.380   .     S
C36    C95     1.380   1_455 S
C37    C286    1.164   1_545 S
C38    C161    1.164   .     S
N39    H40     1.029   .     S
N39    C41     1.445   .     S
C41    H42     1.110   .     S
C41    H43     1.110   .     S
C41    H44     1.110   .     S
N45    C47     1.450   .     S
N45    H46     1.031   .     S
C47    H49     1.111   .     S
C47    H50     1.111   .     S
C47    H48     1.110   .     S
N51    H52     1.031   .     S
N51    C53     1.445   .     S
C53    H54     1.109   .     S
C53    H56     1.110   .     S
C53    H55     1.111   .     S
N57    H58     1.031   .     S
N57    C59     1.447   .     S
C59    H60     1.111   .     S
C59    H61     1.110   .     S
C59    H62     1.111   .     S
O63    Zn79    1.953   .     S
O63    C71     1.262   .     A
O64    Zn80    1.953   .     S
O64    C72     1.262   .     A
O65    C72     1.261   .     A
O65    Zn79    1.951   .     S
O66    Zn80    1.951   .     S
O66    C71     1.261   .     A
H67    C95     1.081   .     S
H68    C96     1.081   .     S
H69    C97     1.083   .     S
H70    C98     1.082   .     S
C71    C99     1.364   .     S
C72    C100    1.364   .     S
O73    C77     1.269   .     A
O73    Zn79    2.028   .     S
O74    Zn80    2.028   .     S
O74    C78     1.269   .     A
O75    Zn79    2.020   .     S
O75    C78     1.274   .     A
O76    Zn80    2.020   .     S
O76    C77     1.273   .     A
C77    C88     1.436   .     S
C78    C87     1.437   .     S
Zn79   N82     1.973   .     S
Zn80   N81     1.973   .     S
N81    N826    1.193   1_554 S
N82    N453    1.193   .     S
C83    N101    1.429   .     S
C83    C87     1.409   .     A
C83    C91     1.394   .     A
C84    N107    1.431   .     S
C84    C88     1.409   .     A
C84    C92     1.396   .     A
C85    C87     1.405   .     A
C85    C89     1.399   .     A
C85    N113    1.429   .     S
C86    C90     1.398   .     A
C86    C88     1.404   .     A
C86    N119    1.429   .     S
C89    C95     1.402   .     A
C89    C93     1.416   .     A
C90    C96     1.403   .     A
C90    C94     1.417   .     A
C91    C97     1.401   .     A
C91    C93     1.414   .     A
C92    C98     1.402   .     A
C92    C94     1.415   .     A
C93    C32     1.405   1_655 S
C95    C36     1.380   1_655 S
C97    C34     1.380   1_655 S
C99    C348    1.164   1_545 S
C100   C223    1.164   .     S
N101   H102    1.029   .     S
N101   C103    1.445   .     S
C103   H104    1.110   .     S
C103   H105    1.110   .     S
C103   H106    1.110   .     S
N107   C109    1.450   .     S
N107   H108    1.031   .     S
C109   H111    1.111   .     S
C109   H112    1.111   .     S
C109   H110    1.110   .     S
N113   H114    1.031   .     S
N113   C115    1.445   .     S
C115   H116    1.109   .     S
C115   H118    1.110   .     S
C115   H117    1.111   .     S
N119   H120    1.031   .     S
N119   C121    1.447   .     S
C121   H122    1.111   .     S
C121   H123    1.110   .     S
C121   H124    1.111   .     S
O125   Zn141   1.953   .     S
O125   C133    1.262   .     A
O126   Zn142   1.953   .     S
O126   C134    1.262   .     A
O127   C134    1.261   .     A
O127   Zn141   1.951   .     S
O128   Zn142   1.951   .     S
O128   C133    1.261   .     A
H129   C157    1.081   .     S
H130   C158    1.081   .     S
H131   C159    1.083   .     S
H132   C160    1.082   .     S
C133   C161    1.364   .     S
C134   C162    1.364   .     S
O135   C139    1.269   .     A
O135   Zn141   2.028   .     S
O136   Zn142   2.028   .     S
O136   C140    1.269   .     A
O137   Zn141   2.020   .     S
O137   C140    1.274   .     A
O138   Zn142   2.020   .     S
O138   C139    1.273   .     A
C139   C150    1.436   .     S
C140   C149    1.437   .     S
Zn141  N144    1.973   .     S
Zn142  N143    1.973   .     S
N143   N888    1.193   1_554 S
N144   N515    1.193   .     S
C145   N163    1.429   .     S
C145   C149    1.409   .     A
C145   C153    1.394   .     A
C146   N169    1.431   .     S
C146   C150    1.409   .     A
C146   C154    1.396   .     A
C147   C149    1.405   .     A
C147   C151    1.399   .     A
C147   N175    1.429   .     S
C148   C152    1.398   .     A
C148   C150    1.404   .     A
C148   N181    1.429   .     S
C151   C157    1.402   .     A
C151   C155    1.416   .     A
C152   C158    1.403   .     A
C152   C156    1.417   .     A
C153   C159    1.401   .     A
C153   C155    1.414   .     A
C154   C160    1.402   .     A
C154   C156    1.415   .     A
C155   C218    1.405   .     S
C156   C217    1.405   1_455 S
C157   C222    1.380   .     S
C158   C221    1.380   1_455 S
C159   C220    1.380   .     S
C160   C219    1.380   1_455 S
C162   C285    1.164   .     S
N163   H164    1.029   .     S
N163   C165    1.445   .     S
C165   H166    1.110   .     S
C165   H167    1.110   .     S
C165   H168    1.110   .     S
N169   C171    1.450   .     S
N169   H170    1.031   .     S
C171   H173    1.111   .     S
C171   H174    1.111   .     S
C171   H172    1.110   .     S
N175   H176    1.031   .     S
N175   C177    1.445   .     S
C177   H178    1.109   .     S
C177   H180    1.110   .     S
C177   H179    1.111   .     S
N181   H182    1.031   .     S
N181   C183    1.447   .     S
C183   H184    1.111   .     S
C183   H185    1.110   .     S
C183   H186    1.111   .     S
O187   Zn203   1.953   .     S
O187   C195    1.262   .     A
O188   Zn204   1.953   .     S
O188   C196    1.262   .     A
O189   C196    1.261   .     A
O189   Zn203   1.951   .     S
O190   Zn204   1.951   .     S
O190   C195    1.261   .     A
H191   C219    1.081   .     S
H192   C220    1.081   .     S
H193   C221    1.083   .     S
H194   C222    1.082   .     S
C195   C223    1.364   .     S
C196   C224    1.364   .     S
O197   C201    1.269   .     A
O197   Zn203   2.028   .     S
O198   Zn204   2.028   .     S
O198   C202    1.269   .     A
O199   Zn203   2.020   .     S
O199   C202    1.274   .     A
O200   Zn204   2.020   .     S
O200   C201    1.273   .     A
C201   C212    1.436   .     S
C202   C211    1.437   .     S
Zn203  N206    1.973   .     S
Zn204  N205    1.973   .     S
N205   N950    1.193   1_554 S
N206   N577    1.193   .     S
C207   N225    1.429   .     S
C207   C211    1.409   .     A
C207   C215    1.394   .     A
C208   N231    1.431   .     S
C208   C212    1.409   .     A
C208   C216    1.396   .     A
C209   C211    1.405   .     A
C209   C213    1.399   .     A
C209   N237    1.429   .     S
C210   C214    1.398   .     A
C210   C212    1.404   .     A
C210   N243    1.429   .     S
C213   C219    1.402   .     A
C213   C217    1.416   .     A
C214   C220    1.403   .     A
C214   C218    1.417   .     A
C215   C221    1.401   .     A
C215   C217    1.414   .     A
C216   C222    1.402   .     A
C216   C218    1.415   .     A
C217   C156    1.405   1_655 S
C219   C160    1.380   1_655 S
C221   C158    1.380   1_655 S
C224   C347    1.164   .     S
N225   H226    1.029   .     S
N225   C227    1.445   .     S
C227   H228    1.110   .     S
C227   H229    1.110   .     S
C227   H230    1.110   .     S
N231   C233    1.450   .     S
N231   H232    1.031   .     S
C233   H235    1.111   .     S
C233   H236    1.111   .     S
C233   H234    1.110   .     S
N237   H238    1.031   .     S
N237   C239    1.445   .     S
C239   H240    1.109   .     S
C239   H242    1.110   .     S
C239   H241    1.111   .     S
N243   H244    1.031   .     S
N243   C245    1.447   .     S
C245   H246    1.111   .     S
C245   H247    1.110   .     S
C245   H248    1.111   .     S
O249   Zn265   1.953   .     S
O249   C257    1.262   .     A
O250   Zn266   1.953   .     S
O250   C258    1.262   .     A
O251   C258    1.261   .     A
O251   Zn265   1.951   .     S
O252   Zn266   1.951   .     S
O252   C257    1.261   .     A
H253   C281    1.081   .     S
H254   C282    1.081   .     S
H255   C283    1.083   .     S
H256   C284    1.082   .     S
C257   C285    1.364   .     S
C258   C286    1.364   .     S
O259   C263    1.269   .     A
O259   Zn265   2.028   .     S
O260   Zn266   2.028   .     S
O260   C264    1.269   .     A
O261   Zn265   2.020   .     S
O261   C264    1.274   .     A
O262   Zn266   2.020   .     S
O262   C263    1.273   .     A
C263   C274    1.436   .     S
C264   C273    1.437   .     S
Zn265  N268    1.973   .     S
Zn266  N267    1.973   .     S
N267   N1012   1.193   1_554 S
N268   N639    1.193   .     S
C269   N287    1.429   .     S
C269   C273    1.409   .     A
C269   C277    1.394   .     A
C270   N293    1.431   .     S
C270   C274    1.409   .     A
C270   C278    1.396   .     A
C271   C273    1.405   .     A
C271   C275    1.399   .     A
C271   N299    1.429   .     S
C272   C276    1.398   .     A
C272   C274    1.404   .     A
C272   N305    1.429   .     S
C275   C281    1.402   .     A
C275   C279    1.416   .     A
C276   C282    1.403   .     A
C276   C280    1.417   .     A
C277   C283    1.401   .     A
C277   C279    1.414   .     A
C278   C284    1.402   .     A
C278   C280    1.415   .     A
C279   C342    1.405   .     S
C280   C341    1.405   1_455 S
C281   C346    1.380   .     S
C282   C345    1.380   1_455 S
C283   C344    1.380   .     S
C284   C343    1.380   1_455 S
C286   C37     1.164   1_565 S
N287   H288    1.029   .     S
N287   C289    1.445   .     S
C289   H290    1.110   .     S
C289   H291    1.110   .     S
C289   H292    1.110   .     S
N293   C295    1.450   .     S
N293   H294    1.031   .     S
C295   H297    1.111   .     S
C295   H298    1.111   .     S
C295   H296    1.110   .     S
N299   H300    1.031   .     S
N299   C301    1.445   .     S
C301   H302    1.109   .     S
C301   H304    1.110   .     S
C301   H303    1.111   .     S
N305   H306    1.031   .     S
N305   C307    1.447   .     S
C307   H308    1.111   .     S
C307   H309    1.110   .     S
C307   H310    1.111   .     S
O311   Zn327   1.953   .     S
O311   C319    1.262   .     A
O312   Zn328   1.953   .     S
O312   C320    1.262   .     A
O313   C320    1.261   .     A
O313   Zn327   1.951   .     S
O314   Zn328   1.951   .     S
O314   C319    1.261   .     A
H315   C343    1.081   .     S
H316   C344    1.081   .     S
H317   C345    1.083   .     S
H318   C346    1.082   .     S
C319   C347    1.364   .     S
C320   C348    1.364   .     S
O321   C325    1.269   .     A
O321   Zn327   2.028   .     S
O322   Zn328   2.028   .     S
O322   C326    1.269   .     A
O323   Zn327   2.020   .     S
O323   C326    1.274   .     A
O324   Zn328   2.020   .     S
O324   C325    1.273   .     A
C325   C336    1.436   .     S
C326   C335    1.437   .     S
Zn327  N330    1.973   .     S
Zn328  N329    1.973   .     S
N329   N1074   1.193   1_554 S
N330   N701    1.193   .     S
C331   N349    1.429   .     S
C331   C335    1.409   .     A
C331   C339    1.394   .     A
C332   N355    1.431   .     S
C332   C336    1.409   .     A
C332   C340    1.396   .     A
C333   C335    1.405   .     A
C333   C337    1.399   .     A
C333   N361    1.429   .     S
C334   C338    1.398   .     A
C334   C336    1.404   .     A
C334   N367    1.429   .     S
C337   C343    1.402   .     A
C337   C341    1.416   .     A
C338   C344    1.403   .     A
C338   C342    1.417   .     A
C339   C345    1.401   .     A
C339   C341    1.414   .     A
C340   C346    1.402   .     A
C340   C342    1.415   .     A
C341   C280    1.405   1_655 S
C343   C284    1.380   1_655 S
C345   C282    1.380   1_655 S
C348   C99     1.164   1_565 S
N349   H350    1.029   .     S
N349   C351    1.445   .     S
C351   H352    1.110   .     S
C351   H353    1.110   .     S
C351   H354    1.110   .     S
N355   C357    1.450   .     S
N355   H356    1.031   .     S
C357   H359    1.111   .     S
C357   H360    1.111   .     S
C357   H358    1.110   .     S
N361   H362    1.031   .     S
N361   C363    1.445   .     S
C363   H364    1.109   .     S
C363   H366    1.110   .     S
C363   H365    1.111   .     S
N367   H368    1.031   .     S
N367   C369    1.447   .     S
C369   H370    1.111   .     S
C369   H371    1.110   .     S
C369   H372    1.111   .     S
O373   Zn389   1.953   .     S
O373   C381    1.262   .     A
O374   Zn390   1.953   .     S
O374   C382    1.262   .     A
O375   C382    1.261   .     A
O375   Zn389   1.951   .     S
O376   Zn390   1.951   .     S
O376   C381    1.261   .     A
H377   C405    1.081   .     S
H378   C406    1.081   .     S
H379   C407    1.083   .     S
H380   C408    1.082   .     S
C381   C409    1.364   .     S
C382   C410    1.364   .     S
O383   C387    1.269   .     A
O383   Zn389   2.028   .     S
O384   Zn390   2.028   .     S
O384   C388    1.269   .     A
O385   Zn389   2.020   .     S
O385   C388    1.274   .     A
O386   Zn390   2.020   .     S
O386   C387    1.273   .     A
C387   C398    1.436   .     S
C388   C397    1.437   .     S
Zn389  N392    1.973   .     S
Zn390  N391    1.973   .     S
N392   N763    1.193   .     S
C393   N411    1.429   .     S
C393   C397    1.409   .     A
C393   C401    1.394   .     A
C394   N417    1.431   .     S
C394   C398    1.409   .     A
C394   C402    1.396   .     A
C395   C397    1.405   .     A
C395   C399    1.399   .     A
C395   N423    1.429   .     S
C396   C400    1.398   .     A
C396   C398    1.404   .     A
C396   N429    1.429   .     S
C399   C405    1.402   .     A
C399   C403    1.416   .     A
C400   C406    1.403   .     A
C400   C404    1.417   .     A
C401   C407    1.401   .     A
C401   C403    1.414   .     A
C402   C408    1.402   .     A
C402   C404    1.415   .     A
C403   C466    1.405   .     S
C404   C465    1.405   1_455 S
C405   C470    1.380   .     S
C406   C469    1.380   1_455 S
C407   C468    1.380   .     S
C408   C467    1.380   1_455 S
C409   C658    1.164   1_545 S
C410   C533    1.164   .     S
N411   H412    1.029   .     S
N411   C413    1.445   .     S
C413   H414    1.110   .     S
C413   H415    1.110   .     S
C413   H416    1.110   .     S
N417   C419    1.450   .     S
N417   H418    1.031   .     S
C419   H421    1.111   .     S
C419   H422    1.111   .     S
C419   H420    1.110   .     S
N423   H424    1.031   .     S
N423   C425    1.445   .     S
C425   H426    1.109   .     S
C425   H428    1.110   .     S
C425   H427    1.111   .     S
N429   H430    1.031   .     S
N429   C431    1.447   .     S
C431   H432    1.111   .     S
C431   H433    1.110   .     S
C431   H434    1.111   .     S
O435   Zn451   1.953   .     S
O435   C443    1.262   .     A
O436   Zn452   1.953   .     S
O436   C444    1.262   .     A
O437   C444    1.261   .     A
O437   Zn451   1.951   .     S
O438   Zn452   1.951   .     S
O438   C443    1.261   .     A
H439   C467    1.081   .     S
H440   C468    1.081   .     S
H441   C469    1.083   .     S
H442   C470    1.082   .     S
C443   C471    1.364   .     S
C444   C472    1.364   .     S
O445   C449    1.269   .     A
O445   Zn451   2.028   .     S
O446   Zn452   2.028   .     S
O446   C450    1.269   .     A
O447   Zn451   2.020   .     S
O447   C450    1.274   .     A
O448   Zn452   2.020   .     S
O448   C449    1.273   .     A
C449   C460    1.436   .     S
C450   C459    1.437   .     S
Zn451  N454    1.973   .     S
Zn452  N453    1.973   .     S
N454   N825    1.193   .     S
C455   N473    1.429   .     S
C455   C459    1.409   .     A
C455   C463    1.394   .     A
C456   N479    1.431   .     S
C456   C460    1.409   .     A
C456   C464    1.396   .     A
C457   C459    1.405   .     A
C457   C461    1.399   .     A
C457   N485    1.429   .     S
C458   C462    1.398   .     A
C458   C460    1.404   .     A
C458   N491    1.429   .     S
C461   C467    1.402   .     A
C461   C465    1.416   .     A
C462   C468    1.403   .     A
C462   C466    1.417   .     A
C463   C469    1.401   .     A
C463   C465    1.414   .     A
C464   C470    1.402   .     A
C464   C466    1.415   .     A
C465   C404    1.405   1_655 S
C467   C408    1.380   1_655 S
C469   C406    1.380   1_655 S
C471   C720    1.164   1_545 S
C472   C595    1.164   .     S
N473   H474    1.029   .     S
N473   C475    1.445   .     S
C475   H476    1.110   .     S
C475   H477    1.110   .     S
C475   H478    1.110   .     S
N479   C481    1.450   .     S
N479   H480    1.031   .     S
C481   H483    1.111   .     S
C481   H484    1.111   .     S
C481   H482    1.110   .     S
N485   H486    1.031   .     S
N485   C487    1.445   .     S
C487   H488    1.109   .     S
C487   H490    1.110   .     S
C487   H489    1.111   .     S
N491   H492    1.031   .     S
N491   C493    1.447   .     S
C493   H494    1.111   .     S
C493   H495    1.110   .     S
C493   H496    1.111   .     S
O497   Zn513   1.953   .     S
O497   C505    1.262   .     A
O498   Zn514   1.953   .     S
O498   C506    1.262   .     A
O499   C506    1.261   .     A
O499   Zn513   1.951   .     S
O500   Zn514   1.951   .     S
O500   C505    1.261   .     A
H501   C529    1.081   .     S
H502   C530    1.081   .     S
H503   C531    1.083   .     S
H504   C532    1.082   .     S
C505   C533    1.364   .     S
C506   C534    1.364   .     S
O507   C511    1.269   .     A
O507   Zn513   2.028   .     S
O508   Zn514   2.028   .     S
O508   C512    1.269   .     A
O509   Zn513   2.020   .     S
O509   C512    1.274   .     A
O510   Zn514   2.020   .     S
O510   C511    1.273   .     A
C511   C522    1.436   .     S
C512   C521    1.437   .     S
Zn513  N516    1.973   .     S
Zn514  N515    1.973   .     S
N516   N887    1.193   .     S
C517   N535    1.429   .     S
C517   C521    1.409   .     A
C517   C525    1.394   .     A
C518   N541    1.431   .     S
C518   C522    1.409   .     A
C518   C526    1.396   .     A
C519   C521    1.405   .     A
C519   C523    1.399   .     A
C519   N547    1.429   .     S
C520   C524    1.398   .     A
C520   C522    1.404   .     A
C520   N553    1.429   .     S
C523   C529    1.402   .     A
C523   C527    1.416   .     A
C524   C530    1.403   .     A
C524   C528    1.417   .     A
C525   C531    1.401   .     A
C525   C527    1.414   .     A
C526   C532    1.402   .     A
C526   C528    1.415   .     A
C527   C590    1.405   .     S
C528   C589    1.405   1_455 S
C529   C594    1.380   .     S
C530   C593    1.380   1_455 S
C531   C592    1.380   .     S
C532   C591    1.380   1_455 S
C534   C657    1.164   .     S
N535   H536    1.029   .     S
N535   C537    1.445   .     S
C537   H538    1.110   .     S
C537   H539    1.110   .     S
C537   H540    1.110   .     S
N541   C543    1.450   .     S
N541   H542    1.031   .     S
C543   H545    1.111   .     S
C543   H546    1.111   .     S
C543   H544    1.110   .     S
N547   H548    1.031   .     S
N547   C549    1.445   .     S
C549   H550    1.109   .     S
C549   H552    1.110   .     S
C549   H551    1.111   .     S
N553   H554    1.031   .     S
N553   C555    1.447   .     S
C555   H556    1.111   .     S
C555   H557    1.110   .     S
C555   H558    1.111   .     S
O559   Zn575   1.953   .     S
O559   C567    1.262   .     A
O560   Zn576   1.953   .     S
O560   C568    1.262   .     A
O561   C568    1.261   .     A
O561   Zn575   1.951   .     S
O562   Zn576   1.951   .     S
O562   C567    1.261   .     A
H563   C591    1.081   .     S
H564   C592    1.081   .     S
H565   C593    1.083   .     S
H566   C594    1.082   .     S
C567   C595    1.364   .     S
C568   C596    1.364   .     S
O569   C573    1.269   .     A
O569   Zn575   2.028   .     S
O570   Zn576   2.028   .     S
O570   C574    1.269   .     A
O571   Zn575   2.020   .     S
O571   C574    1.274   .     A
O572   Zn576   2.020   .     S
O572   C573    1.273   .     A
C573   C584    1.436   .     S
C574   C583    1.437   .     S
Zn575  N578    1.973   .     S
Zn576  N577    1.973   .     S
N578   N949    1.193   .     S
C579   N597    1.429   .     S
C579   C583    1.409   .     A
C579   C587    1.394   .     A
C580   N603    1.431   .     S
C580   C584    1.409   .     A
C580   C588    1.396   .     A
C581   C583    1.405   .     A
C581   C585    1.399   .     A
C581   N609    1.429   .     S
C582   C586    1.398   .     A
C582   C584    1.404   .     A
C582   N615    1.429   .     S
C585   C591    1.402   .     A
C585   C589    1.416   .     A
C586   C592    1.403   .     A
C586   C590    1.417   .     A
C587   C593    1.401   .     A
C587   C589    1.414   .     A
C588   C594    1.402   .     A
C588   C590    1.415   .     A
C589   C528    1.405   1_655 S
C591   C532    1.380   1_655 S
C593   C530    1.380   1_655 S
C596   C719    1.164   .     S
N597   H598    1.029   .     S
N597   C599    1.445   .     S
C599   H600    1.110   .     S
C599   H601    1.110   .     S
C599   H602    1.110   .     S
N603   C605    1.450   .     S
N603   H604    1.031   .     S
C605   H607    1.111   .     S
C605   H608    1.111   .     S
C605   H606    1.110   .     S
N609   H610    1.031   .     S
N609   C611    1.445   .     S
C611   H612    1.109   .     S
C611   H614    1.110   .     S
C611   H613    1.111   .     S
N615   H616    1.031   .     S
N615   C617    1.447   .     S
C617   H618    1.111   .     S
C617   H619    1.110   .     S
C617   H620    1.111   .     S
O621   Zn637   1.953   .     S
O621   C629    1.262   .     A
O622   Zn638   1.953   .     S
O622   C630    1.262   .     A
O623   C630    1.261   .     A
O623   Zn637   1.951   .     S
O624   Zn638   1.951   .     S
O624   C629    1.261   .     A
H625   C653    1.081   .     S
H626   C654    1.081   .     S
H627   C655    1.083   .     S
H628   C656    1.082   .     S
C629   C657    1.364   .     S
C630   C658    1.364   .     S
O631   C635    1.269   .     A
O631   Zn637   2.028   .     S
O632   Zn638   2.028   .     S
O632   C636    1.269   .     A
O633   Zn637   2.020   .     S
O633   C636    1.274   .     A
O634   Zn638   2.020   .     S
O634   C635    1.273   .     A
C635   C646    1.436   .     S
C636   C645    1.437   .     S
Zn637  N640    1.973   .     S
Zn638  N639    1.973   .     S
N640   N1011   1.193   .     S
C641   N659    1.429   .     S
C641   C645    1.409   .     A
C641   C649    1.394   .     A
C642   N665    1.431   .     S
C642   C646    1.409   .     A
C642   C650    1.396   .     A
C643   C645    1.405   .     A
C643   C647    1.399   .     A
C643   N671    1.429   .     S
C644   C648    1.398   .     A
C644   C646    1.404   .     A
C644   N677    1.429   .     S
C647   C653    1.402   .     A
C647   C651    1.416   .     A
C648   C654    1.403   .     A
C648   C652    1.417   .     A
C649   C655    1.401   .     A
C649   C651    1.414   .     A
C650   C656    1.402   .     A
C650   C652    1.415   .     A
C651   C714    1.405   .     S
C652   C713    1.405   1_455 S
C653   C718    1.380   .     S
C654   C717    1.380   1_455 S
C655   C716    1.380   .     S
C656   C715    1.380   1_455 S
C658   C409    1.164   1_565 S
N659   H660    1.029   .     S
N659   C661    1.445   .     S
C661   H662    1.110   .     S
C661   H663    1.110   .     S
C661   H664    1.110   .     S
N665   C667    1.450   .     S
N665   H666    1.031   .     S
C667   H669    1.111   .     S
C667   H670    1.111   .     S
C667   H668    1.110   .     S
N671   H672    1.031   .     S
N671   C673    1.445   .     S
C673   H674    1.109   .     S
C673   H676    1.110   .     S
C673   H675    1.111   .     S
N677   H678    1.031   .     S
N677   C679    1.447   .     S
C679   H680    1.111   .     S
C679   H681    1.110   .     S
C679   H682    1.111   .     S
O683   Zn699   1.953   .     S
O683   C691    1.262   .     A
O684   Zn700   1.953   .     S
O684   C692    1.262   .     A
O685   C692    1.261   .     A
O685   Zn699   1.951   .     S
O686   Zn700   1.951   .     S
O686   C691    1.261   .     A
H687   C715    1.081   .     S
H688   C716    1.081   .     S
H689   C717    1.083   .     S
H690   C718    1.082   .     S
C691   C719    1.364   .     S
C692   C720    1.364   .     S
O693   C697    1.269   .     A
O693   Zn699   2.028   .     S
O694   Zn700   2.028   .     S
O694   C698    1.269   .     A
O695   Zn699   2.020   .     S
O695   C698    1.274   .     A
O696   Zn700   2.020   .     S
O696   C697    1.273   .     A
C697   C708    1.436   .     S
C698   C707    1.437   .     S
Zn699  N702    1.973   .     S
Zn700  N701    1.973   .     S
N702   N1073   1.193   .     S
C703   N721    1.429   .     S
C703   C707    1.409   .     A
C703   C711    1.394   .     A
C704   N727    1.431   .     S
C704   C708    1.409   .     A
C704   C712    1.396   .     A
C705   C707    1.405   .     A
C705   C709    1.399   .     A
C705   N733    1.429   .     S
C706   C710    1.398   .     A
C706   C708    1.404   .     A
C706   N739    1.429   .     S
C709   C715    1.402   .     A
C709   C713    1.416   .     A
C710   C716    1.403   .     A
C710   C714    1.417   .     A
C711   C717    1.401   .     A
C711   C713    1.414   .     A
C712   C718    1.402   .     A
C712   C714    1.415   .     A
C713   C652    1.405   1_655 S
C715   C656    1.380   1_655 S
C717   C654    1.380   1_655 S
C720   C471    1.164   1_565 S
N721   H722    1.029   .     S
N721   C723    1.445   .     S
C723   H724    1.110   .     S
C723   H725    1.110   .     S
C723   H726    1.110   .     S
N727   C729    1.450   .     S
N727   H728    1.031   .     S
C729   H731    1.111   .     S
C729   H732    1.111   .     S
C729   H730    1.110   .     S
N733   H734    1.031   .     S
N733   C735    1.445   .     S
C735   H736    1.109   .     S
C735   H738    1.110   .     S
C735   H737    1.111   .     S
N739   H740    1.031   .     S
N739   C741    1.447   .     S
C741   H742    1.111   .     S
C741   H743    1.110   .     S
C741   H744    1.111   .     S
O745   Zn761   1.953   .     S
O745   C753    1.262   .     A
O746   Zn762   1.953   .     S
O746   C754    1.262   .     A
O747   C754    1.261   .     A
O747   Zn761   1.951   .     S
O748   Zn762   1.951   .     S
O748   C753    1.261   .     A
H749   C777    1.081   .     S
H750   C778    1.081   .     S
H751   C779    1.083   .     S
H752   C780    1.082   .     S
C753   C781    1.364   .     S
C754   C782    1.364   .     S
O755   C759    1.269   .     A
O755   Zn761   2.028   .     S
O756   Zn762   2.028   .     S
O756   C760    1.269   .     A
O757   Zn761   2.020   .     S
O757   C760    1.274   .     A
O758   Zn762   2.020   .     S
O758   C759    1.273   .     A
C759   C770    1.436   .     S
C760   C769    1.437   .     S
Zn761  N764    1.973   .     S
Zn762  N763    1.973   .     S
N764   N19     1.193   1_556 S
C765   N783    1.429   .     S
C765   C769    1.409   .     A
C765   C773    1.394   .     A
C766   N789    1.431   .     S
C766   C770    1.409   .     A
C766   C774    1.396   .     A
C767   C769    1.405   .     A
C767   C771    1.399   .     A
C767   N795    1.429   .     S
C768   C772    1.398   .     A
C768   C770    1.404   .     A
C768   N801    1.429   .     S
C771   C777    1.402   .     A
C771   C775    1.416   .     A
C772   C778    1.403   .     A
C772   C776    1.417   .     A
C773   C779    1.401   .     A
C773   C775    1.414   .     A
C774   C780    1.402   .     A
C774   C776    1.415   .     A
C775   C838    1.405   .     S
C776   C837    1.405   1_455 S
C777   C842    1.380   .     S
C778   C841    1.380   1_455 S
C779   C840    1.380   .     S
C780   C839    1.380   1_455 S
C781   C1030   1.164   1_545 S
C782   C905    1.164   .     S
N783   H784    1.029   .     S
N783   C785    1.445   .     S
C785   H786    1.110   .     S
C785   H787    1.110   .     S
C785   H788    1.110   .     S
N789   C791    1.450   .     S
N789   H790    1.031   .     S
C791   H793    1.111   .     S
C791   H794    1.111   .     S
C791   H792    1.110   .     S
N795   H796    1.031   .     S
N795   C797    1.445   .     S
C797   H798    1.109   .     S
C797   H800    1.110   .     S
C797   H799    1.111   .     S
N801   H802    1.031   .     S
N801   C803    1.447   .     S
C803   H804    1.111   .     S
C803   H805    1.110   .     S
C803   H806    1.111   .     S
O807   Zn823   1.953   .     S
O807   C815    1.262   .     A
O808   Zn824   1.953   .     S
O808   C816    1.262   .     A
O809   C816    1.261   .     A
O809   Zn823   1.951   .     S
O810   Zn824   1.951   .     S
O810   C815    1.261   .     A
H811   C839    1.081   .     S
H812   C840    1.081   .     S
H813   C841    1.083   .     S
H814   C842    1.082   .     S
C815   C843    1.364   .     S
C816   C844    1.364   .     S
O817   C821    1.269   .     A
O817   Zn823   2.028   .     S
O818   Zn824   2.028   .     S
O818   C822    1.269   .     A
O819   Zn823   2.020   .     S
O819   C822    1.274   .     A
O820   Zn824   2.020   .     S
O820   C821    1.273   .     A
C821   C832    1.436   .     S
C822   C831    1.437   .     S
Zn823  N826    1.973   .     S
Zn824  N825    1.973   .     S
N826   N81     1.193   1_556 S
C827   N845    1.429   .     S
C827   C831    1.409   .     A
C827   C835    1.394   .     A
C828   N851    1.431   .     S
C828   C832    1.409   .     A
C828   C836    1.396   .     A
C829   C831    1.405   .     A
C829   C833    1.399   .     A
C829   N857    1.429   .     S
C830   C834    1.398   .     A
C830   C832    1.404   .     A
C830   N863    1.429   .     S
C833   C839    1.402   .     A
C833   C837    1.416   .     A
C834   C840    1.403   .     A
C834   C838    1.417   .     A
C835   C841    1.401   .     A
C835   C837    1.414   .     A
C836   C842    1.402   .     A
C836   C838    1.415   .     A
C837   C776    1.405   1_655 S
C839   C780    1.380   1_655 S
C841   C778    1.380   1_655 S
C843   C1092   1.164   1_545 S
C844   C967    1.164   .     S
N845   H846    1.029   .     S
N845   C847    1.445   .     S
C847   H848    1.110   .     S
C847   H849    1.110   .     S
C847   H850    1.110   .     S
N851   C853    1.450   .     S
N851   H852    1.031   .     S
C853   H855    1.111   .     S
C853   H856    1.111   .     S
C853   H854    1.110   .     S
N857   H858    1.031   .     S
N857   C859    1.445   .     S
C859   H860    1.109   .     S
C859   H862    1.110   .     S
C859   H861    1.111   .     S
N863   H864    1.031   .     S
N863   C865    1.447   .     S
C865   H866    1.111   .     S
C865   H867    1.110   .     S
C865   H868    1.111   .     S
O869   Zn885   1.953   .     S
O869   C877    1.262   .     A
O870   Zn886   1.953   .     S
O870   C878    1.262   .     A
O871   C878    1.261   .     A
O871   Zn885   1.951   .     S
O872   Zn886   1.951   .     S
O872   C877    1.261   .     A
H873   C901    1.081   .     S
H874   C902    1.081   .     S
H875   C903    1.083   .     S
H876   C904    1.082   .     S
C877   C905    1.364   .     S
C878   C906    1.364   .     S
O879   C883    1.269   .     A
O879   Zn885   2.028   .     S
O880   Zn886   2.028   .     S
O880   C884    1.269   .     A
O881   Zn885   2.020   .     S
O881   C884    1.274   .     A
O882   Zn886   2.020   .     S
O882   C883    1.273   .     A
C883   C894    1.436   .     S
C884   C893    1.437   .     S
Zn885  N888    1.973   .     S
Zn886  N887    1.973   .     S
N888   N143    1.193   1_556 S
C889   N907    1.429   .     S
C889   C893    1.409   .     A
C889   C897    1.394   .     A
C890   N913    1.431   .     S
C890   C894    1.409   .     A
C890   C898    1.396   .     A
C891   C893    1.405   .     A
C891   C895    1.399   .     A
C891   N919    1.429   .     S
C892   C896    1.398   .     A
C892   C894    1.404   .     A
C892   N925    1.429   .     S
C895   C901    1.402   .     A
C895   C899    1.416   .     A
C896   C902    1.403   .     A
C896   C900    1.417   .     A
C897   C903    1.401   .     A
C897   C899    1.414   .     A
C898   C904    1.402   .     A
C898   C900    1.415   .     A
C899   C962    1.405   .     S
C900   C961    1.405   1_455 S
C901   C966    1.380   .     S
C902   C965    1.380   1_455 S
C903   C964    1.380   .     S
C904   C963    1.380   1_455 S
C906   C1029   1.164   .     S
N907   H908    1.029   .     S
N907   C909    1.445   .     S
C909   H910    1.110   .     S
C909   H911    1.110   .     S
C909   H912    1.110   .     S
N913   C915    1.450   .     S
N913   H914    1.031   .     S
C915   H917    1.111   .     S
C915   H918    1.111   .     S
C915   H916    1.110   .     S
N919   H920    1.031   .     S
N919   C921    1.445   .     S
C921   H922    1.109   .     S
C921   H924    1.110   .     S
C921   H923    1.111   .     S
N925   H926    1.031   .     S
N925   C927    1.447   .     S
C927   H928    1.111   .     S
C927   H929    1.110   .     S
C927   H930    1.111   .     S
O931   Zn947   1.953   .     S
O931   C939    1.262   .     A
O932   Zn948   1.953   .     S
O932   C940    1.262   .     A
O933   C940    1.261   .     A
O933   Zn947   1.951   .     S
O934   Zn948   1.951   .     S
O934   C939    1.261   .     A
H935   C963    1.081   .     S
H936   C964    1.081   .     S
H937   C965    1.083   .     S
H938   C966    1.082   .     S
C939   C967    1.364   .     S
C940   C968    1.364   .     S
O941   C945    1.269   .     A
O941   Zn947   2.028   .     S
O942   Zn948   2.028   .     S
O942   C946    1.269   .     A
O943   Zn947   2.020   .     S
O943   C946    1.274   .     A
O944   Zn948   2.020   .     S
O944   C945    1.273   .     A
C945   C956    1.436   .     S
C946   C955    1.437   .     S
Zn947  N950    1.973   .     S
Zn948  N949    1.973   .     S
N950   N205    1.193   1_556 S
C951   N969    1.429   .     S
C951   C955    1.409   .     A
C951   C959    1.394   .     A
C952   N975    1.431   .     S
C952   C956    1.409   .     A
C952   C960    1.396   .     A
C953   C955    1.405   .     A
C953   C957    1.399   .     A
C953   N981    1.429   .     S
C954   C958    1.398   .     A
C954   C956    1.404   .     A
C954   N987    1.429   .     S
C957   C963    1.402   .     A
C957   C961    1.416   .     A
C958   C964    1.403   .     A
C958   C962    1.417   .     A
C959   C965    1.401   .     A
C959   C961    1.414   .     A
C960   C966    1.402   .     A
C960   C962    1.415   .     A
C961   C900    1.405   1_655 S
C963   C904    1.380   1_655 S
C965   C902    1.380   1_655 S
C968   C1091   1.164   .     S
N969   H970    1.029   .     S
N969   C971    1.445   .     S
C971   H972    1.110   .     S
C971   H973    1.110   .     S
C971   H974    1.110   .     S
N975   C977    1.450   .     S
N975   H976    1.031   .     S
C977   H979    1.111   .     S
C977   H980    1.111   .     S
C977   H978    1.110   .     S
N981   H982    1.031   .     S
N981   C983    1.445   .     S
C983   H984    1.109   .     S
C983   H986    1.110   .     S
C983   H985    1.111   .     S
N987   H988    1.031   .     S
N987   C989    1.447   .     S
C989   H990    1.111   .     S
C989   H991    1.110   .     S
C989   H992    1.111   .     S
O993   Zn1009  1.953   .     S
O993   C1001   1.262   .     A
O994   Zn1010  1.953   .     S
O994   C1002   1.262   .     A
O995   C1002   1.261   .     A
O995   Zn1009  1.951   .     S
O996   Zn1010  1.951   .     S
O996   C1001   1.261   .     A
H997   C1025   1.081   .     S
H998   C1026   1.081   .     S
H999   C1027   1.083   .     S
H1000  C1028   1.082   .     S
C1001  C1029   1.364   .     S
C1002  C1030   1.364   .     S
O1003  C1007   1.269   .     A
O1003  Zn1009  2.028   .     S
O1004  Zn1010  2.028   .     S
O1004  C1008   1.269   .     A
O1005  Zn1009  2.020   .     S
O1005  C1008   1.274   .     A
O1006  Zn1010  2.020   .     S
O1006  C1007   1.273   .     A
C1007  C1018   1.436   .     S
C1008  C1017   1.437   .     S
Zn1009 N1012   1.973   .     S
Zn1010 N1011   1.973   .     S
N1012  N267    1.193   1_556 S
C1013  N1031   1.429   .     S
C1013  C1017   1.409   .     A
C1013  C1021   1.394   .     A
C1014  N1037   1.431   .     S
C1014  C1018   1.409   .     A
C1014  C1022   1.396   .     A
C1015  C1017   1.405   .     A
C1015  C1019   1.399   .     A
C1015  N1043   1.429   .     S
C1016  C1020   1.398   .     A
C1016  C1018   1.404   .     A
C1016  N1049   1.429   .     S
C1019  C1025   1.402   .     A
C1019  C1023   1.416   .     A
C1020  C1026   1.403   .     A
C1020  C1024   1.417   .     A
C1021  C1027   1.401   .     A
C1021  C1023   1.414   .     A
C1022  C1028   1.402   .     A
C1022  C1024   1.415   .     A
C1023  C1086   1.405   .     S
C1024  C1085   1.405   1_455 S
C1025  C1090   1.380   .     S
C1026  C1089   1.380   1_455 S
C1027  C1088   1.380   .     S
C1028  C1087   1.380   1_455 S
C1030  C781    1.164   1_565 S
N1031  H1032   1.029   .     S
N1031  C1033   1.445   .     S
C1033  H1034   1.110   .     S
C1033  H1035   1.110   .     S
C1033  H1036   1.110   .     S
N1037  C1039   1.450   .     S
N1037  H1038   1.031   .     S
C1039  H1041   1.111   .     S
C1039  H1042   1.111   .     S
C1039  H1040   1.110   .     S
N1043  H1044   1.031   .     S
N1043  C1045   1.445   .     S
C1045  H1046   1.109   .     S
C1045  H1048   1.110   .     S
C1045  H1047   1.111   .     S
N1049  H1050   1.031   .     S
N1049  C1051   1.447   .     S
C1051  H1052   1.111   .     S
C1051  H1053   1.110   .     S
C1051  H1054   1.111   .     S
O1055  Zn1071  1.953   .     S
O1055  C1063   1.262   .     A
O1056  Zn1072  1.953   .     S
O1056  C1064   1.262   .     A
O1057  C1064   1.261   .     A
O1057  Zn1071  1.951   .     S
O1058  Zn1072  1.951   .     S
O1058  C1063   1.261   .     A
H1059  C1087   1.081   .     S
H1060  C1088   1.081   .     S
H1061  C1089   1.083   .     S
H1062  C1090   1.082   .     S
C1063  C1091   1.364   .     S
C1064  C1092   1.364   .     S
O1065  C1069   1.269   .     A
O1065  Zn1071  2.028   .     S
O1066  Zn1072  2.028   .     S
O1066  C1070   1.269   .     A
O1067  Zn1071  2.020   .     S
O1067  C1070   1.274   .     A
O1068  Zn1072  2.020   .     S
O1068  C1069   1.273   .     A
C1069  C1080   1.436   .     S
C1070  C1079   1.437   .     S
Zn1071 N1074   1.973   .     S
Zn1072 N1073   1.973   .     S
N1074  N329    1.193   1_556 S
C1075  N1093   1.429   .     S
C1075  C1079   1.409   .     A
C1075  C1083   1.394   .     A
C1076  N1099   1.431   .     S
C1076  C1080   1.409   .     A
C1076  C1084   1.396   .     A
C1077  C1079   1.405   .     A
C1077  C1081   1.399   .     A
C1077  N1105   1.429   .     S
C1078  C1082   1.398   .     A
C1078  C1080   1.404   .     A
C1078  N1111   1.429   .     S
C1081  C1087   1.402   .     A
C1081  C1085   1.416   .     A
C1082  C1088   1.403   .     A
C1082  C1086   1.417   .     A
C1083  C1089   1.401   .     A
C1083  C1085   1.414   .     A
C1084  C1090   1.402   .     A
C1084  C1086   1.415   .     A
C1085  C1024   1.405   1_655 S
C1087  C1028   1.380   1_655 S
C1089  C1026   1.380   1_655 S
C1092  C843    1.164   1_565 S
N1093  H1094   1.029   .     S
N1093  C1095   1.445   .     S
C1095  H1096   1.110   .     S
C1095  H1097   1.110   .     S
C1095  H1098   1.110   .     S
N1099  C1101   1.450   .     S
N1099  H1100   1.031   .     S
C1101  H1103   1.111   .     S
C1101  H1104   1.111   .     S
C1101  H1102   1.110   .     S
N1105  H1106   1.031   .     S
N1105  C1107   1.445   .     S
C1107  H1108   1.109   .     S
C1107  H1110   1.110   .     S
C1107  H1109   1.111   .     S
N1111  H1112   1.031   .     S
N1111  C1113   1.447   .     S
C1113  H1114   1.111   .     S
C1113  H1115   1.110   .     S
C1113  H1116   1.111   .     S
