data_str_m3_o2_o10_pcu_sym.19
_audit_creation_date              2020-01-03
_audit_creation_method            'Materials Studio'
_symmetry_space_group_name_H-M    'P1'
_symmetry_Int_Tables_number       1
_symmetry_cell_setting            triclinic
loop_
_symmetry_equiv_pos_as_xyz
  x,y,z
_cell_length_a                    25.8679
_cell_length_b                    30.0163
_cell_length_c                    28.3273
_cell_angle_alpha                 89.9697
_cell_angle_beta                  98.0885
_cell_angle_gamma                 90.0352
loop_
_atom_site_label
_atom_site_type_symbol
_atom_site_fract_x
_atom_site_fract_y
_atom_site_fract_z
_atom_site_U_iso_or_equiv
_atom_site_adp_type
_atom_site_occupancy
C1     C     0.16673   0.16389   0.25002   0.00000  Uiso   1.00
C2     C     0.14194   0.21586   0.44420   0.00000  Uiso   1.00
C3     C     0.16663   0.24998   0.02666   0.00000  Uiso   1.00
C4     C     0.16661   0.25001   0.47330   0.00000  Uiso   1.00
C5     C     0.06717   0.24981   0.23790   0.00000  Uiso   1.00
C6     C     0.26616   0.25018   0.26209   0.00000  Uiso   1.00
C7     C     0.01323   0.24247   0.23278   0.00000  Uiso   1.00
C8     C     0.32010   0.25751   0.26721   0.00000  Uiso   1.00
C9     C     0.14914   0.04693   0.28734   0.00000  Uiso   1.00
C10    C     0.15000   0.45312   0.20807   0.00000  Uiso   1.00
C11    C     0.14893   0.09292   0.28738   0.00000  Uiso   1.00
C12    C     0.16676   0.33612   0.25001   0.00000  Uiso   1.00
C13    C     0.14982   0.40713   0.20794   0.00000  Uiso   1.00
C14    C     0.16717   0.11601   0.25012   0.00000  Uiso   1.00
C15    C     0.16722   0.38401   0.25007   0.00000  Uiso   1.00
C16    C     0.18603   0.09318   0.21302   0.00000  Uiso   1.00
C17    C     0.18520   0.40685   0.29224   0.00000  Uiso   1.00
C18    C     0.18680   0.04720   0.21329   0.00000  Uiso   1.00
C19    C     0.18594   0.45284   0.29223   0.00000  Uiso   1.00
C20    C     0.16816   0.02407   0.25034   0.00000  Uiso   1.00
C21    C     0.16815   0.47597   0.25020   0.00000  Uiso   1.00
C22    C     0.12470   0.23186   0.04723   0.00000  Uiso   1.00
C23    C     0.19126   0.28418   0.45053   0.00000  Uiso   1.00
C24    C     0.12559   0.23206   0.09698   0.00000  Uiso   1.00
C25    C     0.19096   0.28347   0.40085   0.00000  Uiso   1.00
C26    C     0.20773   0.26790   0.10748   0.00000  Uiso   1.00
C27    C     0.14229   0.21658   0.39461   0.00000  Uiso   1.00
C28    C     0.20860   0.26808   0.05796   0.00000  Uiso   1.00
Cl29   Cl    0.32168   0.20495   0.18639   0.00000  Uiso   1.00
Cl30   Cl    0.01167   0.29498   0.31365   0.00000  Uiso   1.00
H31    H     0.13396   0.02921   0.31577   0.00000  Uiso   1.00
H32    H     0.21010   0.31174   0.47071   0.00000  Uiso   1.00
H33    H     0.09317   0.21795   0.11219   0.00000  Uiso   1.00
H34    H     0.21009   0.30988   0.38390   0.00000  Uiso   1.00
H35    H     0.24017   0.28204   0.13097   0.00000  Uiso   1.00
H36    H     0.12314   0.19019   0.37276   0.00000  Uiso   1.00
H37    H     0.24236   0.28181   0.04451   0.00000  Uiso   1.00
H38    H     0.12307   0.18830   0.45955   0.00000  Uiso   1.00
H39    H     0.13548   0.47083   0.17557   0.00000  Uiso   1.00
H40    H     0.13387   0.11035   0.31604   0.00000  Uiso   1.00
H41    H     0.13544   0.38972   0.17521   0.00000  Uiso   1.00
H42    H     0.20075   0.11083   0.18430   0.00000  Uiso   1.00
H43    H     0.19925   0.38921   0.32492   0.00000  Uiso   1.00
H44    H     0.20224   0.02970   0.18488   0.00000  Uiso   1.00
H45    H     0.20070   0.47033   0.32480   0.00000  Uiso   1.00
H46    H     0.09093   0.21813   0.02514   0.00000  Uiso   1.00
N47    N     0.16667   0.24999   0.12623   0.00000  Uiso   1.00
N48    N     0.16667   0.25001   0.37376   0.00000  Uiso   1.00
O49    O     0.16667   0.18453   0.28974   0.00000  Uiso   1.00
O50    O     0.16666   0.31546   0.21026   0.00000  Uiso   1.00
O51    O     0.16667   0.18453   0.21026   0.00000  Uiso   1.00
O52    O     0.16666   0.31547   0.28974   0.00000  Uiso   1.00
O53    O     0.09058   0.25000   0.28044   0.00000  Uiso   1.00
O54    O     0.24275   0.25000   0.21955   0.00000  Uiso   1.00
O55    O     0.09058   0.24999   0.20096   0.00000  Uiso   1.00
O56    O     0.24275   0.25000   0.29903   0.00000  Uiso   1.00
Zn57   Zn    0.16667   0.25000   0.30307   0.00000  Uiso   1.00
Zn58   Zn    0.16667   0.24999   0.19693   0.00000  Uiso   1.00
C59    C     0.50006   0.16389   0.25002   0.00000  Uiso   1.00
C60    C     0.47527   0.21586   0.44420   0.00000  Uiso   1.00
C61    C     0.49997   0.24998   0.02666   0.00000  Uiso   1.00
C62    C     0.49994   0.25001   0.47330   0.00000  Uiso   1.00
C63    C     0.40050   0.24981   0.23790   0.00000  Uiso   1.00
C64    C     0.59950   0.25018   0.26209   0.00000  Uiso   1.00
C65    C     0.34656   0.24247   0.23278   0.00000  Uiso   1.00
C66    C     0.65344   0.25751   0.26721   0.00000  Uiso   1.00
C67    C     0.48248   0.04693   0.28734   0.00000  Uiso   1.00
C68    C     0.48334   0.45312   0.20807   0.00000  Uiso   1.00
C69    C     0.48226   0.09292   0.28738   0.00000  Uiso   1.00
C70    C     0.50009   0.33612   0.25001   0.00000  Uiso   1.00
C71    C     0.48315   0.40713   0.20794   0.00000  Uiso   1.00
C72    C     0.50051   0.11601   0.25012   0.00000  Uiso   1.00
C73    C     0.50056   0.38401   0.25007   0.00000  Uiso   1.00
C74    C     0.51936   0.09318   0.21302   0.00000  Uiso   1.00
C75    C     0.51854   0.40685   0.29224   0.00000  Uiso   1.00
C76    C     0.52013   0.04720   0.21329   0.00000  Uiso   1.00
C77    C     0.51927   0.45284   0.29223   0.00000  Uiso   1.00
C78    C     0.50149   0.02407   0.25034   0.00000  Uiso   1.00
C79    C     0.50148   0.47597   0.25020   0.00000  Uiso   1.00
C80    C     0.45803   0.23186   0.04723   0.00000  Uiso   1.00
C81    C     0.52459   0.28418   0.45053   0.00000  Uiso   1.00
C82    C     0.45892   0.23206   0.09698   0.00000  Uiso   1.00
C83    C     0.52429   0.28347   0.40085   0.00000  Uiso   1.00
C84    C     0.54107   0.26790   0.10748   0.00000  Uiso   1.00
C85    C     0.47563   0.21658   0.39461   0.00000  Uiso   1.00
C86    C     0.54193   0.26808   0.05796   0.00000  Uiso   1.00
Cl87   Cl    0.65501   0.20495   0.18639   0.00000  Uiso   1.00
Cl88   Cl    0.34500   0.29498   0.31365   0.00000  Uiso   1.00
H89    H     0.46730   0.02921   0.31577   0.00000  Uiso   1.00
H90    H     0.54343   0.31174   0.47071   0.00000  Uiso   1.00
H91    H     0.42650   0.21795   0.11219   0.00000  Uiso   1.00
H92    H     0.54343   0.30988   0.38390   0.00000  Uiso   1.00
H93    H     0.57350   0.28204   0.13097   0.00000  Uiso   1.00
H94    H     0.45647   0.19019   0.37276   0.00000  Uiso   1.00
H95    H     0.57569   0.28181   0.04451   0.00000  Uiso   1.00
H96    H     0.45640   0.18830   0.45955   0.00000  Uiso   1.00
H97    H     0.46881   0.47083   0.17557   0.00000  Uiso   1.00
H98    H     0.46721   0.11035   0.31604   0.00000  Uiso   1.00
H99    H     0.46877   0.38972   0.17521   0.00000  Uiso   1.00
H100   H     0.53408   0.11083   0.18430   0.00000  Uiso   1.00
H101   H     0.53258   0.38921   0.32492   0.00000  Uiso   1.00
H102   H     0.53558   0.02970   0.18488   0.00000  Uiso   1.00
H103   H     0.53403   0.47033   0.32480   0.00000  Uiso   1.00
H104   H     0.42426   0.21813   0.02514   0.00000  Uiso   1.00
N105   N     0.50000   0.24999   0.12623   0.00000  Uiso   1.00
N106   N     0.50000   0.25001   0.37376   0.00000  Uiso   1.00
O107   O     0.50000   0.18453   0.28974   0.00000  Uiso   1.00
O108   O     0.50000   0.31546   0.21026   0.00000  Uiso   1.00
O109   O     0.50000   0.18453   0.21026   0.00000  Uiso   1.00
O110   O     0.50000   0.31547   0.28974   0.00000  Uiso   1.00
O111   O     0.42392   0.25000   0.28044   0.00000  Uiso   1.00
O112   O     0.57608   0.25000   0.21955   0.00000  Uiso   1.00
O113   O     0.42392   0.24999   0.20096   0.00000  Uiso   1.00
O114   O     0.57608   0.25000   0.29903   0.00000  Uiso   1.00
Zn115  Zn    0.50000   0.25000   0.30307   0.00000  Uiso   1.00
Zn116  Zn    0.50000   0.24999   0.19693   0.00000  Uiso   1.00
C117   C     0.83340   0.16389   0.25002   0.00000  Uiso   1.00
C118   C     0.80860   0.21586   0.44420   0.00000  Uiso   1.00
C119   C     0.83330   0.24998   0.02666   0.00000  Uiso   1.00
C120   C     0.83327   0.25001   0.47330   0.00000  Uiso   1.00
C121   C     0.73384   0.24981   0.23790   0.00000  Uiso   1.00
C122   C     0.93283   0.25018   0.26209   0.00000  Uiso   1.00
C123   C     0.67990   0.24247   0.23278   0.00000  Uiso   1.00
C124   C     0.98677   0.25751   0.26721   0.00000  Uiso   1.00
C125   C     0.81581   0.04693   0.28734   0.00000  Uiso   1.00
C126   C     0.81667   0.45312   0.20807   0.00000  Uiso   1.00
C127   C     0.81559   0.09292   0.28738   0.00000  Uiso   1.00
C128   C     0.83343   0.33612   0.25001   0.00000  Uiso   1.00
C129   C     0.81648   0.40713   0.20794   0.00000  Uiso   1.00
C130   C     0.83384   0.11601   0.25012   0.00000  Uiso   1.00
C131   C     0.83389   0.38401   0.25007   0.00000  Uiso   1.00
C132   C     0.85270   0.09318   0.21302   0.00000  Uiso   1.00
C133   C     0.85187   0.40685   0.29224   0.00000  Uiso   1.00
C134   C     0.85347   0.04720   0.21329   0.00000  Uiso   1.00
C135   C     0.85260   0.45284   0.29223   0.00000  Uiso   1.00
C136   C     0.83483   0.02407   0.25034   0.00000  Uiso   1.00
C137   C     0.83482   0.47597   0.25020   0.00000  Uiso   1.00
C138   C     0.79136   0.23186   0.04723   0.00000  Uiso   1.00
C139   C     0.85793   0.28418   0.45053   0.00000  Uiso   1.00
C140   C     0.79226   0.23206   0.09698   0.00000  Uiso   1.00
C141   C     0.85762   0.28347   0.40085   0.00000  Uiso   1.00
C142   C     0.87440   0.26790   0.10748   0.00000  Uiso   1.00
C143   C     0.80896   0.21658   0.39461   0.00000  Uiso   1.00
C144   C     0.87527   0.26808   0.05796   0.00000  Uiso   1.00
Cl145  Cl    0.98835   0.20495   0.18639   0.00000  Uiso   1.00
Cl146  Cl    0.67834   0.29498   0.31365   0.00000  Uiso   1.00
H147   H     0.80063   0.02921   0.31577   0.00000  Uiso   1.00
H148   H     0.87677   0.31174   0.47071   0.00000  Uiso   1.00
H149   H     0.75983   0.21795   0.11219   0.00000  Uiso   1.00
H150   H     0.87676   0.30988   0.38390   0.00000  Uiso   1.00
H151   H     0.90684   0.28204   0.13097   0.00000  Uiso   1.00
H152   H     0.78981   0.19019   0.37276   0.00000  Uiso   1.00
H153   H     0.90903   0.28181   0.04451   0.00000  Uiso   1.00
H154   H     0.78973   0.18830   0.45955   0.00000  Uiso   1.00
H155   H     0.80214   0.47083   0.17557   0.00000  Uiso   1.00
H156   H     0.80054   0.11035   0.31604   0.00000  Uiso   1.00
H157   H     0.80210   0.38972   0.17521   0.00000  Uiso   1.00
H158   H     0.86741   0.11083   0.18430   0.00000  Uiso   1.00
H159   H     0.86591   0.38921   0.32492   0.00000  Uiso   1.00
H160   H     0.86891   0.02970   0.18488   0.00000  Uiso   1.00
H161   H     0.86736   0.47033   0.32480   0.00000  Uiso   1.00
H162   H     0.75760   0.21813   0.02514   0.00000  Uiso   1.00
N163   N     0.83333   0.24999   0.12623   0.00000  Uiso   1.00
N164   N     0.83333   0.25001   0.37376   0.00000  Uiso   1.00
O165   O     0.83334   0.18453   0.28974   0.00000  Uiso   1.00
O166   O     0.83333   0.31546   0.21026   0.00000  Uiso   1.00
O167   O     0.83334   0.18453   0.21026   0.00000  Uiso   1.00
O168   O     0.83333   0.31547   0.28974   0.00000  Uiso   1.00
O169   O     0.75725   0.25000   0.28044   0.00000  Uiso   1.00
O170   O     0.90942   0.25000   0.21955   0.00000  Uiso   1.00
O171   O     0.75725   0.24999   0.20096   0.00000  Uiso   1.00
O172   O     0.90942   0.25000   0.29903   0.00000  Uiso   1.00
Zn173  Zn    0.83333   0.25000   0.30307   0.00000  Uiso   1.00
Zn174  Zn    0.83333   0.24999   0.19693   0.00000  Uiso   1.00
C175   C     0.16673   0.66389   0.25002   0.00000  Uiso   1.00
C176   C     0.14194   0.71586   0.44420   0.00000  Uiso   1.00
C177   C     0.16663   0.74998   0.02666   0.00000  Uiso   1.00
C178   C     0.16661   0.75001   0.47330   0.00000  Uiso   1.00
C179   C     0.06717   0.74981   0.23790   0.00000  Uiso   1.00
C180   C     0.26616   0.75018   0.26209   0.00000  Uiso   1.00
C181   C     0.01323   0.74247   0.23278   0.00000  Uiso   1.00
C182   C     0.32010   0.75751   0.26721   0.00000  Uiso   1.00
C183   C     0.14914   0.54693   0.28734   0.00000  Uiso   1.00
C184   C     0.15000   0.95312   0.20807   0.00000  Uiso   1.00
C185   C     0.14893   0.59292   0.28738   0.00000  Uiso   1.00
C186   C     0.16676   0.83612   0.25001   0.00000  Uiso   1.00
C187   C     0.14982   0.90713   0.20794   0.00000  Uiso   1.00
C188   C     0.16717   0.61601   0.25012   0.00000  Uiso   1.00
C189   C     0.16722   0.88401   0.25007   0.00000  Uiso   1.00
C190   C     0.18603   0.59318   0.21302   0.00000  Uiso   1.00
C191   C     0.18520   0.90685   0.29224   0.00000  Uiso   1.00
C192   C     0.18680   0.54720   0.21329   0.00000  Uiso   1.00
C193   C     0.18594   0.95284   0.29223   0.00000  Uiso   1.00
C194   C     0.16816   0.52407   0.25034   0.00000  Uiso   1.00
C195   C     0.16815   0.97597   0.25020   0.00000  Uiso   1.00
C196   C     0.12470   0.73186   0.04723   0.00000  Uiso   1.00
C197   C     0.19126   0.78418   0.45053   0.00000  Uiso   1.00
C198   C     0.12559   0.73206   0.09698   0.00000  Uiso   1.00
C199   C     0.19096   0.78347   0.40085   0.00000  Uiso   1.00
C200   C     0.20773   0.76790   0.10748   0.00000  Uiso   1.00
C201   C     0.14229   0.71658   0.39461   0.00000  Uiso   1.00
C202   C     0.20860   0.76808   0.05796   0.00000  Uiso   1.00
Cl203  Cl    0.32168   0.70495   0.18639   0.00000  Uiso   1.00
Cl204  Cl    0.01167   0.79498   0.31365   0.00000  Uiso   1.00
H205   H     0.13396   0.52921   0.31577   0.00000  Uiso   1.00
H206   H     0.21010   0.81174   0.47071   0.00000  Uiso   1.00
H207   H     0.09317   0.71795   0.11219   0.00000  Uiso   1.00
H208   H     0.21009   0.80988   0.38390   0.00000  Uiso   1.00
H209   H     0.24017   0.78204   0.13097   0.00000  Uiso   1.00
H210   H     0.12314   0.69019   0.37276   0.00000  Uiso   1.00
H211   H     0.24236   0.78181   0.04451   0.00000  Uiso   1.00
H212   H     0.12307   0.68830   0.45955   0.00000  Uiso   1.00
H213   H     0.13548   0.97083   0.17557   0.00000  Uiso   1.00
H214   H     0.13387   0.61035   0.31604   0.00000  Uiso   1.00
H215   H     0.13544   0.88972   0.17521   0.00000  Uiso   1.00
H216   H     0.20075   0.61083   0.18430   0.00000  Uiso   1.00
H217   H     0.19925   0.88921   0.32492   0.00000  Uiso   1.00
H218   H     0.20224   0.52970   0.18488   0.00000  Uiso   1.00
H219   H     0.20070   0.97033   0.32480   0.00000  Uiso   1.00
H220   H     0.09093   0.71813   0.02514   0.00000  Uiso   1.00
N221   N     0.16667   0.74999   0.12623   0.00000  Uiso   1.00
N222   N     0.16667   0.75001   0.37376   0.00000  Uiso   1.00
O223   O     0.16667   0.68453   0.28974   0.00000  Uiso   1.00
O224   O     0.16666   0.81546   0.21026   0.00000  Uiso   1.00
O225   O     0.16667   0.68453   0.21026   0.00000  Uiso   1.00
O226   O     0.16666   0.81547   0.28974   0.00000  Uiso   1.00
O227   O     0.09058   0.75000   0.28044   0.00000  Uiso   1.00
O228   O     0.24275   0.75000   0.21955   0.00000  Uiso   1.00
O229   O     0.09058   0.74999   0.20096   0.00000  Uiso   1.00
O230   O     0.24275   0.75000   0.29903   0.00000  Uiso   1.00
Zn231  Zn    0.16667   0.75000   0.30307   0.00000  Uiso   1.00
Zn232  Zn    0.16667   0.74999   0.19693   0.00000  Uiso   1.00
C233   C     0.50006   0.66389   0.25002   0.00000  Uiso   1.00
C234   C     0.47527   0.71586   0.44420   0.00000  Uiso   1.00
C235   C     0.49997   0.74998   0.02666   0.00000  Uiso   1.00
C236   C     0.49994   0.75001   0.47330   0.00000  Uiso   1.00
C237   C     0.40050   0.74981   0.23790   0.00000  Uiso   1.00
C238   C     0.59950   0.75018   0.26209   0.00000  Uiso   1.00
C239   C     0.34656   0.74247   0.23278   0.00000  Uiso   1.00
C240   C     0.65344   0.75751   0.26721   0.00000  Uiso   1.00
C241   C     0.48248   0.54693   0.28734   0.00000  Uiso   1.00
C242   C     0.48334   0.95312   0.20807   0.00000  Uiso   1.00
C243   C     0.48226   0.59292   0.28738   0.00000  Uiso   1.00
C244   C     0.50009   0.83612   0.25001   0.00000  Uiso   1.00
C245   C     0.48315   0.90713   0.20794   0.00000  Uiso   1.00
C246   C     0.50051   0.61601   0.25012   0.00000  Uiso   1.00
C247   C     0.50056   0.88401   0.25007   0.00000  Uiso   1.00
C248   C     0.51936   0.59318   0.21302   0.00000  Uiso   1.00
C249   C     0.51854   0.90685   0.29224   0.00000  Uiso   1.00
C250   C     0.52013   0.54720   0.21329   0.00000  Uiso   1.00
C251   C     0.51927   0.95284   0.29223   0.00000  Uiso   1.00
C252   C     0.50149   0.52407   0.25034   0.00000  Uiso   1.00
C253   C     0.50148   0.97597   0.25020   0.00000  Uiso   1.00
C254   C     0.45803   0.73186   0.04723   0.00000  Uiso   1.00
C255   C     0.52459   0.78418   0.45053   0.00000  Uiso   1.00
C256   C     0.45892   0.73206   0.09698   0.00000  Uiso   1.00
C257   C     0.52429   0.78347   0.40085   0.00000  Uiso   1.00
C258   C     0.54107   0.76790   0.10748   0.00000  Uiso   1.00
C259   C     0.47563   0.71658   0.39461   0.00000  Uiso   1.00
C260   C     0.54193   0.76808   0.05796   0.00000  Uiso   1.00
Cl261  Cl    0.65501   0.70495   0.18639   0.00000  Uiso   1.00
Cl262  Cl    0.34500   0.79498   0.31365   0.00000  Uiso   1.00
H263   H     0.46730   0.52921   0.31577   0.00000  Uiso   1.00
H264   H     0.54343   0.81174   0.47071   0.00000  Uiso   1.00
H265   H     0.42650   0.71795   0.11219   0.00000  Uiso   1.00
H266   H     0.54343   0.80988   0.38390   0.00000  Uiso   1.00
H267   H     0.57350   0.78204   0.13097   0.00000  Uiso   1.00
H268   H     0.45647   0.69019   0.37276   0.00000  Uiso   1.00
H269   H     0.57569   0.78181   0.04451   0.00000  Uiso   1.00
H270   H     0.45640   0.68830   0.45955   0.00000  Uiso   1.00
H271   H     0.46881   0.97083   0.17557   0.00000  Uiso   1.00
H272   H     0.46721   0.61035   0.31604   0.00000  Uiso   1.00
H273   H     0.46877   0.88972   0.17521   0.00000  Uiso   1.00
H274   H     0.53408   0.61083   0.18430   0.00000  Uiso   1.00
H275   H     0.53258   0.88921   0.32492   0.00000  Uiso   1.00
H276   H     0.53558   0.52970   0.18488   0.00000  Uiso   1.00
H277   H     0.53403   0.97033   0.32480   0.00000  Uiso   1.00
H278   H     0.42426   0.71813   0.02514   0.00000  Uiso   1.00
N279   N     0.50000   0.74999   0.12623   0.00000  Uiso   1.00
N280   N     0.50000   0.75001   0.37376   0.00000  Uiso   1.00
O281   O     0.50000   0.68453   0.28974   0.00000  Uiso   1.00
O282   O     0.50000   0.81546   0.21026   0.00000  Uiso   1.00
O283   O     0.50000   0.68453   0.21026   0.00000  Uiso   1.00
O284   O     0.50000   0.81547   0.28974   0.00000  Uiso   1.00
O285   O     0.42392   0.75000   0.28044   0.00000  Uiso   1.00
O286   O     0.57608   0.75000   0.21955   0.00000  Uiso   1.00
O287   O     0.42392   0.74999   0.20096   0.00000  Uiso   1.00
O288   O     0.57608   0.75000   0.29903   0.00000  Uiso   1.00
Zn289  Zn    0.50000   0.75000   0.30307   0.00000  Uiso   1.00
Zn290  Zn    0.50000   0.74999   0.19693   0.00000  Uiso   1.00
C291   C     0.83340   0.66389   0.25002   0.00000  Uiso   1.00
C292   C     0.80860   0.71586   0.44420   0.00000  Uiso   1.00
C293   C     0.83330   0.74998   0.02666   0.00000  Uiso   1.00
C294   C     0.83327   0.75001   0.47330   0.00000  Uiso   1.00
C295   C     0.73384   0.74981   0.23790   0.00000  Uiso   1.00
C296   C     0.93283   0.75018   0.26209   0.00000  Uiso   1.00
C297   C     0.67990   0.74247   0.23278   0.00000  Uiso   1.00
C298   C     0.98677   0.75751   0.26721   0.00000  Uiso   1.00
C299   C     0.81581   0.54693   0.28734   0.00000  Uiso   1.00
C300   C     0.81667   0.95312   0.20807   0.00000  Uiso   1.00
C301   C     0.81559   0.59292   0.28738   0.00000  Uiso   1.00
C302   C     0.83343   0.83612   0.25001   0.00000  Uiso   1.00
C303   C     0.81648   0.90713   0.20794   0.00000  Uiso   1.00
C304   C     0.83384   0.61601   0.25012   0.00000  Uiso   1.00
C305   C     0.83389   0.88401   0.25007   0.00000  Uiso   1.00
C306   C     0.85270   0.59318   0.21302   0.00000  Uiso   1.00
C307   C     0.85187   0.90685   0.29224   0.00000  Uiso   1.00
C308   C     0.85347   0.54720   0.21329   0.00000  Uiso   1.00
C309   C     0.85260   0.95284   0.29223   0.00000  Uiso   1.00
C310   C     0.83483   0.52407   0.25034   0.00000  Uiso   1.00
C311   C     0.83482   0.97597   0.25020   0.00000  Uiso   1.00
C312   C     0.79136   0.73186   0.04723   0.00000  Uiso   1.00
C313   C     0.85793   0.78418   0.45053   0.00000  Uiso   1.00
C314   C     0.79226   0.73206   0.09698   0.00000  Uiso   1.00
C315   C     0.85762   0.78347   0.40085   0.00000  Uiso   1.00
C316   C     0.87440   0.76790   0.10748   0.00000  Uiso   1.00
C317   C     0.80896   0.71658   0.39461   0.00000  Uiso   1.00
C318   C     0.87527   0.76808   0.05796   0.00000  Uiso   1.00
Cl319  Cl    0.98835   0.70495   0.18639   0.00000  Uiso   1.00
Cl320  Cl    0.67834   0.79498   0.31365   0.00000  Uiso   1.00
H321   H     0.80063   0.52921   0.31577   0.00000  Uiso   1.00
H322   H     0.87677   0.81174   0.47071   0.00000  Uiso   1.00
H323   H     0.75983   0.71795   0.11219   0.00000  Uiso   1.00
H324   H     0.87676   0.80988   0.38390   0.00000  Uiso   1.00
H325   H     0.90684   0.78204   0.13097   0.00000  Uiso   1.00
H326   H     0.78981   0.69019   0.37276   0.00000  Uiso   1.00
H327   H     0.90903   0.78181   0.04451   0.00000  Uiso   1.00
H328   H     0.78973   0.68830   0.45955   0.00000  Uiso   1.00
H329   H     0.80214   0.97083   0.17557   0.00000  Uiso   1.00
H330   H     0.80054   0.61035   0.31604   0.00000  Uiso   1.00
H331   H     0.80210   0.88972   0.17521   0.00000  Uiso   1.00
H332   H     0.86741   0.61083   0.18430   0.00000  Uiso   1.00
H333   H     0.86591   0.88921   0.32492   0.00000  Uiso   1.00
H334   H     0.86891   0.52970   0.18488   0.00000  Uiso   1.00
H335   H     0.86736   0.97033   0.32480   0.00000  Uiso   1.00
H336   H     0.75760   0.71813   0.02514   0.00000  Uiso   1.00
N337   N     0.83333   0.74999   0.12623   0.00000  Uiso   1.00
N338   N     0.83333   0.75001   0.37376   0.00000  Uiso   1.00
O339   O     0.83334   0.68453   0.28974   0.00000  Uiso   1.00
O340   O     0.83333   0.81546   0.21026   0.00000  Uiso   1.00
O341   O     0.83334   0.68453   0.21026   0.00000  Uiso   1.00
O342   O     0.83333   0.81547   0.28974   0.00000  Uiso   1.00
O343   O     0.75725   0.75000   0.28044   0.00000  Uiso   1.00
O344   O     0.90942   0.75000   0.21955   0.00000  Uiso   1.00
O345   O     0.75725   0.74999   0.20096   0.00000  Uiso   1.00
O346   O     0.90942   0.75000   0.29903   0.00000  Uiso   1.00
Zn347  Zn    0.83333   0.75000   0.30307   0.00000  Uiso   1.00
Zn348  Zn    0.83333   0.74999   0.19693   0.00000  Uiso   1.00
C349   C     0.16673   0.16389   0.75002   0.00000  Uiso   1.00
C350   C     0.14194   0.21586   0.94420   0.00000  Uiso   1.00
C351   C     0.16663   0.24998   0.52666   0.00000  Uiso   1.00
C352   C     0.16661   0.25001   0.97330   0.00000  Uiso   1.00
C353   C     0.06717   0.24981   0.73790   0.00000  Uiso   1.00
C354   C     0.26616   0.25018   0.76209   0.00000  Uiso   1.00
C355   C     0.01323   0.24247   0.73278   0.00000  Uiso   1.00
C356   C     0.32010   0.25751   0.76721   0.00000  Uiso   1.00
C357   C     0.14914   0.04693   0.78734   0.00000  Uiso   1.00
C358   C     0.15000   0.45312   0.70807   0.00000  Uiso   1.00
C359   C     0.14893   0.09292   0.78738   0.00000  Uiso   1.00
C360   C     0.16676   0.33612   0.75001   0.00000  Uiso   1.00
C361   C     0.14982   0.40713   0.70794   0.00000  Uiso   1.00
C362   C     0.16717   0.11601   0.75012   0.00000  Uiso   1.00
C363   C     0.16722   0.38401   0.75007   0.00000  Uiso   1.00
C364   C     0.18603   0.09318   0.71302   0.00000  Uiso   1.00
C365   C     0.18520   0.40685   0.79224   0.00000  Uiso   1.00
C366   C     0.18680   0.04720   0.71329   0.00000  Uiso   1.00
C367   C     0.18594   0.45284   0.79223   0.00000  Uiso   1.00
C368   C     0.16816   0.02407   0.75034   0.00000  Uiso   1.00
C369   C     0.16815   0.47597   0.75020   0.00000  Uiso   1.00
C370   C     0.12470   0.23186   0.54723   0.00000  Uiso   1.00
C371   C     0.19126   0.28418   0.95053   0.00000  Uiso   1.00
C372   C     0.12559   0.23206   0.59698   0.00000  Uiso   1.00
C373   C     0.19096   0.28347   0.90085   0.00000  Uiso   1.00
C374   C     0.20773   0.26790   0.60748   0.00000  Uiso   1.00
C375   C     0.14229   0.21658   0.89461   0.00000  Uiso   1.00
C376   C     0.20860   0.26808   0.55796   0.00000  Uiso   1.00
Cl377  Cl    0.32168   0.20495   0.68639   0.00000  Uiso   1.00
Cl378  Cl    0.01167   0.29498   0.81365   0.00000  Uiso   1.00
H379   H     0.13396   0.02921   0.81577   0.00000  Uiso   1.00
H380   H     0.21010   0.31174   0.97071   0.00000  Uiso   1.00
H381   H     0.09317   0.21795   0.61219   0.00000  Uiso   1.00
H382   H     0.21009   0.30988   0.88390   0.00000  Uiso   1.00
H383   H     0.24017   0.28204   0.63097   0.00000  Uiso   1.00
H384   H     0.12314   0.19019   0.87276   0.00000  Uiso   1.00
H385   H     0.24236   0.28181   0.54451   0.00000  Uiso   1.00
H386   H     0.12307   0.18830   0.95955   0.00000  Uiso   1.00
H387   H     0.13548   0.47083   0.67557   0.00000  Uiso   1.00
H388   H     0.13387   0.11035   0.81604   0.00000  Uiso   1.00
H389   H     0.13544   0.38972   0.67521   0.00000  Uiso   1.00
H390   H     0.20075   0.11083   0.68430   0.00000  Uiso   1.00
H391   H     0.19925   0.38921   0.82492   0.00000  Uiso   1.00
H392   H     0.20224   0.02970   0.68488   0.00000  Uiso   1.00
H393   H     0.20070   0.47033   0.82480   0.00000  Uiso   1.00
H394   H     0.09093   0.21813   0.52514   0.00000  Uiso   1.00
N395   N     0.16667   0.24999   0.62623   0.00000  Uiso   1.00
N396   N     0.16667   0.25001   0.87376   0.00000  Uiso   1.00
O397   O     0.16667   0.18453   0.78974   0.00000  Uiso   1.00
O398   O     0.16666   0.31546   0.71026   0.00000  Uiso   1.00
O399   O     0.16667   0.18453   0.71026   0.00000  Uiso   1.00
O400   O     0.16666   0.31547   0.78974   0.00000  Uiso   1.00
O401   O     0.09058   0.25000   0.78044   0.00000  Uiso   1.00
O402   O     0.24275   0.25000   0.71955   0.00000  Uiso   1.00
O403   O     0.09058   0.24999   0.70096   0.00000  Uiso   1.00
O404   O     0.24275   0.25000   0.79903   0.00000  Uiso   1.00
Zn405  Zn    0.16667   0.25000   0.80307   0.00000  Uiso   1.00
Zn406  Zn    0.16667   0.24999   0.69693   0.00000  Uiso   1.00
C407   C     0.50006   0.16389   0.75002   0.00000  Uiso   1.00
C408   C     0.47527   0.21586   0.94420   0.00000  Uiso   1.00
C409   C     0.49997   0.24998   0.52666   0.00000  Uiso   1.00
C410   C     0.49994   0.25001   0.97330   0.00000  Uiso   1.00
C411   C     0.40050   0.24981   0.73790   0.00000  Uiso   1.00
C412   C     0.59950   0.25018   0.76209   0.00000  Uiso   1.00
C413   C     0.34656   0.24247   0.73278   0.00000  Uiso   1.00
C414   C     0.65344   0.25751   0.76721   0.00000  Uiso   1.00
C415   C     0.48248   0.04693   0.78734   0.00000  Uiso   1.00
C416   C     0.48334   0.45312   0.70807   0.00000  Uiso   1.00
C417   C     0.48226   0.09292   0.78738   0.00000  Uiso   1.00
C418   C     0.50009   0.33612   0.75001   0.00000  Uiso   1.00
C419   C     0.48315   0.40713   0.70794   0.00000  Uiso   1.00
C420   C     0.50051   0.11601   0.75012   0.00000  Uiso   1.00
C421   C     0.50056   0.38401   0.75007   0.00000  Uiso   1.00
C422   C     0.51936   0.09318   0.71302   0.00000  Uiso   1.00
C423   C     0.51854   0.40685   0.79224   0.00000  Uiso   1.00
C424   C     0.52013   0.04720   0.71329   0.00000  Uiso   1.00
C425   C     0.51927   0.45284   0.79223   0.00000  Uiso   1.00
C426   C     0.50149   0.02407   0.75034   0.00000  Uiso   1.00
C427   C     0.50148   0.47597   0.75020   0.00000  Uiso   1.00
C428   C     0.45803   0.23186   0.54723   0.00000  Uiso   1.00
C429   C     0.52459   0.28418   0.95053   0.00000  Uiso   1.00
C430   C     0.45892   0.23206   0.59698   0.00000  Uiso   1.00
C431   C     0.52429   0.28347   0.90085   0.00000  Uiso   1.00
C432   C     0.54107   0.26790   0.60748   0.00000  Uiso   1.00
C433   C     0.47563   0.21658   0.89461   0.00000  Uiso   1.00
C434   C     0.54193   0.26808   0.55796   0.00000  Uiso   1.00
Cl435  Cl    0.65501   0.20495   0.68639   0.00000  Uiso   1.00
Cl436  Cl    0.34500   0.29498   0.81365   0.00000  Uiso   1.00
H437   H     0.46730   0.02921   0.81577   0.00000  Uiso   1.00
H438   H     0.54343   0.31174   0.97071   0.00000  Uiso   1.00
H439   H     0.42650   0.21795   0.61219   0.00000  Uiso   1.00
H440   H     0.54343   0.30988   0.88390   0.00000  Uiso   1.00
H441   H     0.57350   0.28204   0.63097   0.00000  Uiso   1.00
H442   H     0.45647   0.19019   0.87276   0.00000  Uiso   1.00
H443   H     0.57569   0.28181   0.54451   0.00000  Uiso   1.00
H444   H     0.45640   0.18830   0.95955   0.00000  Uiso   1.00
H445   H     0.46881   0.47083   0.67557   0.00000  Uiso   1.00
H446   H     0.46721   0.11035   0.81604   0.00000  Uiso   1.00
H447   H     0.46877   0.38972   0.67521   0.00000  Uiso   1.00
H448   H     0.53408   0.11083   0.68430   0.00000  Uiso   1.00
H449   H     0.53258   0.38921   0.82492   0.00000  Uiso   1.00
H450   H     0.53558   0.02970   0.68488   0.00000  Uiso   1.00
H451   H     0.53403   0.47033   0.82480   0.00000  Uiso   1.00
H452   H     0.42426   0.21813   0.52514   0.00000  Uiso   1.00
N453   N     0.50000   0.24999   0.62623   0.00000  Uiso   1.00
N454   N     0.50000   0.25001   0.87376   0.00000  Uiso   1.00
O455   O     0.50000   0.18453   0.78974   0.00000  Uiso   1.00
O456   O     0.50000   0.31546   0.71026   0.00000  Uiso   1.00
O457   O     0.50000   0.18453   0.71026   0.00000  Uiso   1.00
O458   O     0.50000   0.31547   0.78974   0.00000  Uiso   1.00
O459   O     0.42392   0.25000   0.78044   0.00000  Uiso   1.00
O460   O     0.57608   0.25000   0.71955   0.00000  Uiso   1.00
O461   O     0.42392   0.24999   0.70096   0.00000  Uiso   1.00
O462   O     0.57608   0.25000   0.79903   0.00000  Uiso   1.00
Zn463  Zn    0.50000   0.25000   0.80307   0.00000  Uiso   1.00
Zn464  Zn    0.50000   0.24999   0.69693   0.00000  Uiso   1.00
C465   C     0.83340   0.16389   0.75002   0.00000  Uiso   1.00
C466   C     0.80860   0.21586   0.94420   0.00000  Uiso   1.00
C467   C     0.83330   0.24998   0.52666   0.00000  Uiso   1.00
C468   C     0.83327   0.25001   0.97330   0.00000  Uiso   1.00
C469   C     0.73384   0.24981   0.73790   0.00000  Uiso   1.00
C470   C     0.93283   0.25018   0.76209   0.00000  Uiso   1.00
C471   C     0.67990   0.24247   0.73278   0.00000  Uiso   1.00
C472   C     0.98677   0.25751   0.76721   0.00000  Uiso   1.00
C473   C     0.81581   0.04693   0.78734   0.00000  Uiso   1.00
C474   C     0.81667   0.45312   0.70807   0.00000  Uiso   1.00
C475   C     0.81559   0.09292   0.78738   0.00000  Uiso   1.00
C476   C     0.83343   0.33612   0.75001   0.00000  Uiso   1.00
C477   C     0.81648   0.40713   0.70794   0.00000  Uiso   1.00
C478   C     0.83384   0.11601   0.75012   0.00000  Uiso   1.00
C479   C     0.83389   0.38401   0.75007   0.00000  Uiso   1.00
C480   C     0.85270   0.09318   0.71302   0.00000  Uiso   1.00
C481   C     0.85187   0.40685   0.79224   0.00000  Uiso   1.00
C482   C     0.85347   0.04720   0.71329   0.00000  Uiso   1.00
C483   C     0.85260   0.45284   0.79223   0.00000  Uiso   1.00
C484   C     0.83483   0.02407   0.75034   0.00000  Uiso   1.00
C485   C     0.83482   0.47597   0.75020   0.00000  Uiso   1.00
C486   C     0.79136   0.23186   0.54723   0.00000  Uiso   1.00
C487   C     0.85793   0.28418   0.95053   0.00000  Uiso   1.00
C488   C     0.79226   0.23206   0.59698   0.00000  Uiso   1.00
C489   C     0.85762   0.28347   0.90085   0.00000  Uiso   1.00
C490   C     0.87440   0.26790   0.60748   0.00000  Uiso   1.00
C491   C     0.80896   0.21658   0.89461   0.00000  Uiso   1.00
C492   C     0.87527   0.26808   0.55796   0.00000  Uiso   1.00
Cl493  Cl    0.98835   0.20495   0.68639   0.00000  Uiso   1.00
Cl494  Cl    0.67834   0.29498   0.81365   0.00000  Uiso   1.00
H495   H     0.80063   0.02921   0.81577   0.00000  Uiso   1.00
H496   H     0.87677   0.31174   0.97071   0.00000  Uiso   1.00
H497   H     0.75983   0.21795   0.61219   0.00000  Uiso   1.00
H498   H     0.87676   0.30988   0.88390   0.00000  Uiso   1.00
H499   H     0.90684   0.28204   0.63097   0.00000  Uiso   1.00
H500   H     0.78981   0.19019   0.87276   0.00000  Uiso   1.00
H501   H     0.90903   0.28181   0.54451   0.00000  Uiso   1.00
H502   H     0.78973   0.18830   0.95955   0.00000  Uiso   1.00
H503   H     0.80214   0.47083   0.67557   0.00000  Uiso   1.00
H504   H     0.80054   0.11035   0.81604   0.00000  Uiso   1.00
H505   H     0.80210   0.38972   0.67521   0.00000  Uiso   1.00
H506   H     0.86741   0.11083   0.68430   0.00000  Uiso   1.00
H507   H     0.86591   0.38921   0.82492   0.00000  Uiso   1.00
H508   H     0.86891   0.02970   0.68488   0.00000  Uiso   1.00
H509   H     0.86736   0.47033   0.82480   0.00000  Uiso   1.00
H510   H     0.75760   0.21813   0.52514   0.00000  Uiso   1.00
N511   N     0.83333   0.24999   0.62623   0.00000  Uiso   1.00
N512   N     0.83333   0.25001   0.87376   0.00000  Uiso   1.00
O513   O     0.83334   0.18453   0.78974   0.00000  Uiso   1.00
O514   O     0.83333   0.31546   0.71026   0.00000  Uiso   1.00
O515   O     0.83334   0.18453   0.71026   0.00000  Uiso   1.00
O516   O     0.83333   0.31547   0.78974   0.00000  Uiso   1.00
O517   O     0.75725   0.25000   0.78044   0.00000  Uiso   1.00
O518   O     0.90942   0.25000   0.71955   0.00000  Uiso   1.00
O519   O     0.75725   0.24999   0.70096   0.00000  Uiso   1.00
O520   O     0.90942   0.25000   0.79903   0.00000  Uiso   1.00
Zn521  Zn    0.83333   0.25000   0.80307   0.00000  Uiso   1.00
Zn522  Zn    0.83333   0.24999   0.69693   0.00000  Uiso   1.00
C523   C     0.16673   0.66389   0.75002   0.00000  Uiso   1.00
C524   C     0.14194   0.71586   0.94420   0.00000  Uiso   1.00
C525   C     0.16663   0.74998   0.52666   0.00000  Uiso   1.00
C526   C     0.16661   0.75001   0.97330   0.00000  Uiso   1.00
C527   C     0.06717   0.74981   0.73790   0.00000  Uiso   1.00
C528   C     0.26616   0.75018   0.76209   0.00000  Uiso   1.00
C529   C     0.01323   0.74247   0.73278   0.00000  Uiso   1.00
C530   C     0.32010   0.75751   0.76721   0.00000  Uiso   1.00
C531   C     0.14914   0.54693   0.78734   0.00000  Uiso   1.00
C532   C     0.15000   0.95312   0.70807   0.00000  Uiso   1.00
C533   C     0.14893   0.59292   0.78738   0.00000  Uiso   1.00
C534   C     0.16676   0.83612   0.75001   0.00000  Uiso   1.00
C535   C     0.14982   0.90713   0.70794   0.00000  Uiso   1.00
C536   C     0.16717   0.61601   0.75012   0.00000  Uiso   1.00
C537   C     0.16722   0.88401   0.75007   0.00000  Uiso   1.00
C538   C     0.18603   0.59318   0.71302   0.00000  Uiso   1.00
C539   C     0.18520   0.90685   0.79224   0.00000  Uiso   1.00
C540   C     0.18680   0.54720   0.71329   0.00000  Uiso   1.00
C541   C     0.18594   0.95284   0.79223   0.00000  Uiso   1.00
C542   C     0.16816   0.52407   0.75034   0.00000  Uiso   1.00
C543   C     0.16815   0.97597   0.75020   0.00000  Uiso   1.00
C544   C     0.12470   0.73186   0.54723   0.00000  Uiso   1.00
C545   C     0.19126   0.78418   0.95053   0.00000  Uiso   1.00
C546   C     0.12559   0.73206   0.59698   0.00000  Uiso   1.00
C547   C     0.19096   0.78347   0.90085   0.00000  Uiso   1.00
C548   C     0.20773   0.76790   0.60748   0.00000  Uiso   1.00
C549   C     0.14229   0.71658   0.89461   0.00000  Uiso   1.00
C550   C     0.20860   0.76808   0.55796   0.00000  Uiso   1.00
Cl551  Cl    0.32168   0.70495   0.68639   0.00000  Uiso   1.00
Cl552  Cl    0.01167   0.79498   0.81365   0.00000  Uiso   1.00
H553   H     0.13396   0.52921   0.81577   0.00000  Uiso   1.00
H554   H     0.21010   0.81174   0.97071   0.00000  Uiso   1.00
H555   H     0.09317   0.71795   0.61219   0.00000  Uiso   1.00
H556   H     0.21009   0.80988   0.88390   0.00000  Uiso   1.00
H557   H     0.24017   0.78204   0.63097   0.00000  Uiso   1.00
H558   H     0.12314   0.69019   0.87276   0.00000  Uiso   1.00
H559   H     0.24236   0.78181   0.54451   0.00000  Uiso   1.00
H560   H     0.12307   0.68830   0.95955   0.00000  Uiso   1.00
H561   H     0.13548   0.97083   0.67557   0.00000  Uiso   1.00
H562   H     0.13387   0.61035   0.81604   0.00000  Uiso   1.00
H563   H     0.13544   0.88972   0.67521   0.00000  Uiso   1.00
H564   H     0.20075   0.61083   0.68430   0.00000  Uiso   1.00
H565   H     0.19925   0.88921   0.82492   0.00000  Uiso   1.00
H566   H     0.20224   0.52970   0.68488   0.00000  Uiso   1.00
H567   H     0.20070   0.97033   0.82480   0.00000  Uiso   1.00
H568   H     0.09093   0.71813   0.52514   0.00000  Uiso   1.00
N569   N     0.16667   0.74999   0.62623   0.00000  Uiso   1.00
N570   N     0.16667   0.75001   0.87376   0.00000  Uiso   1.00
O571   O     0.16667   0.68453   0.78974   0.00000  Uiso   1.00
O572   O     0.16666   0.81546   0.71026   0.00000  Uiso   1.00
O573   O     0.16667   0.68453   0.71026   0.00000  Uiso   1.00
O574   O     0.16666   0.81547   0.78974   0.00000  Uiso   1.00
O575   O     0.09058   0.75000   0.78044   0.00000  Uiso   1.00
O576   O     0.24275   0.75000   0.71955   0.00000  Uiso   1.00
O577   O     0.09058   0.74999   0.70096   0.00000  Uiso   1.00
O578   O     0.24275   0.75000   0.79903   0.00000  Uiso   1.00
Zn579  Zn    0.16667   0.75000   0.80307   0.00000  Uiso   1.00
Zn580  Zn    0.16667   0.74999   0.69693   0.00000  Uiso   1.00
C581   C     0.50006   0.66389   0.75002   0.00000  Uiso   1.00
C582   C     0.47527   0.71586   0.94420   0.00000  Uiso   1.00
C583   C     0.49997   0.74998   0.52666   0.00000  Uiso   1.00
C584   C     0.49994   0.75001   0.97330   0.00000  Uiso   1.00
C585   C     0.40050   0.74981   0.73790   0.00000  Uiso   1.00
C586   C     0.59950   0.75018   0.76209   0.00000  Uiso   1.00
C587   C     0.34656   0.74247   0.73278   0.00000  Uiso   1.00
C588   C     0.65344   0.75751   0.76721   0.00000  Uiso   1.00
C589   C     0.48248   0.54693   0.78734   0.00000  Uiso   1.00
C590   C     0.48334   0.95312   0.70807   0.00000  Uiso   1.00
C591   C     0.48226   0.59292   0.78738   0.00000  Uiso   1.00
C592   C     0.50009   0.83612   0.75001   0.00000  Uiso   1.00
C593   C     0.48315   0.90713   0.70794   0.00000  Uiso   1.00
C594   C     0.50051   0.61601   0.75012   0.00000  Uiso   1.00
C595   C     0.50056   0.88401   0.75007   0.00000  Uiso   1.00
C596   C     0.51936   0.59318   0.71302   0.00000  Uiso   1.00
C597   C     0.51854   0.90685   0.79224   0.00000  Uiso   1.00
C598   C     0.52013   0.54720   0.71329   0.00000  Uiso   1.00
C599   C     0.51927   0.95284   0.79223   0.00000  Uiso   1.00
C600   C     0.50149   0.52407   0.75034   0.00000  Uiso   1.00
C601   C     0.50148   0.97597   0.75020   0.00000  Uiso   1.00
C602   C     0.45803   0.73186   0.54723   0.00000  Uiso   1.00
C603   C     0.52459   0.78418   0.95053   0.00000  Uiso   1.00
C604   C     0.45892   0.73206   0.59698   0.00000  Uiso   1.00
C605   C     0.52429   0.78347   0.90085   0.00000  Uiso   1.00
C606   C     0.54107   0.76790   0.60748   0.00000  Uiso   1.00
C607   C     0.47563   0.71658   0.89461   0.00000  Uiso   1.00
C608   C     0.54193   0.76808   0.55796   0.00000  Uiso   1.00
Cl609  Cl    0.65501   0.70495   0.68639   0.00000  Uiso   1.00
Cl610  Cl    0.34500   0.79498   0.81365   0.00000  Uiso   1.00
H611   H     0.46730   0.52921   0.81577   0.00000  Uiso   1.00
H612   H     0.54343   0.81174   0.97071   0.00000  Uiso   1.00
H613   H     0.42650   0.71795   0.61219   0.00000  Uiso   1.00
H614   H     0.54343   0.80988   0.88390   0.00000  Uiso   1.00
H615   H     0.57350   0.78204   0.63097   0.00000  Uiso   1.00
H616   H     0.45647   0.69019   0.87276   0.00000  Uiso   1.00
H617   H     0.57569   0.78181   0.54451   0.00000  Uiso   1.00
H618   H     0.45640   0.68830   0.95955   0.00000  Uiso   1.00
H619   H     0.46881   0.97083   0.67557   0.00000  Uiso   1.00
H620   H     0.46721   0.61035   0.81604   0.00000  Uiso   1.00
H621   H     0.46877   0.88972   0.67521   0.00000  Uiso   1.00
H622   H     0.53408   0.61083   0.68430   0.00000  Uiso   1.00
H623   H     0.53258   0.88921   0.82492   0.00000  Uiso   1.00
H624   H     0.53558   0.52970   0.68488   0.00000  Uiso   1.00
H625   H     0.53403   0.97033   0.82480   0.00000  Uiso   1.00
H626   H     0.42426   0.71813   0.52514   0.00000  Uiso   1.00
N627   N     0.50000   0.74999   0.62623   0.00000  Uiso   1.00
N628   N     0.50000   0.75001   0.87376   0.00000  Uiso   1.00
O629   O     0.50000   0.68453   0.78974   0.00000  Uiso   1.00
O630   O     0.50000   0.81546   0.71026   0.00000  Uiso   1.00
O631   O     0.50000   0.68453   0.71026   0.00000  Uiso   1.00
O632   O     0.50000   0.81547   0.78974   0.00000  Uiso   1.00
O633   O     0.42392   0.75000   0.78044   0.00000  Uiso   1.00
O634   O     0.57608   0.75000   0.71955   0.00000  Uiso   1.00
O635   O     0.42392   0.74999   0.70096   0.00000  Uiso   1.00
O636   O     0.57608   0.75000   0.79903   0.00000  Uiso   1.00
Zn637  Zn    0.50000   0.75000   0.80307   0.00000  Uiso   1.00
Zn638  Zn    0.50000   0.74999   0.69693   0.00000  Uiso   1.00
C639   C     0.83340   0.66389   0.75002   0.00000  Uiso   1.00
C640   C     0.80860   0.71586   0.94420   0.00000  Uiso   1.00
C641   C     0.83330   0.74998   0.52666   0.00000  Uiso   1.00
C642   C     0.83327   0.75001   0.97330   0.00000  Uiso   1.00
C643   C     0.73384   0.74981   0.73790   0.00000  Uiso   1.00
C644   C     0.93283   0.75018   0.76209   0.00000  Uiso   1.00
C645   C     0.67990   0.74247   0.73278   0.00000  Uiso   1.00
C646   C     0.98677   0.75751   0.76721   0.00000  Uiso   1.00
C647   C     0.81581   0.54693   0.78734   0.00000  Uiso   1.00
C648   C     0.81667   0.95312   0.70807   0.00000  Uiso   1.00
C649   C     0.81559   0.59292   0.78738   0.00000  Uiso   1.00
C650   C     0.83343   0.83612   0.75001   0.00000  Uiso   1.00
C651   C     0.81648   0.90713   0.70794   0.00000  Uiso   1.00
C652   C     0.83384   0.61601   0.75012   0.00000  Uiso   1.00
C653   C     0.83389   0.88401   0.75007   0.00000  Uiso   1.00
C654   C     0.85270   0.59318   0.71302   0.00000  Uiso   1.00
C655   C     0.85187   0.90685   0.79224   0.00000  Uiso   1.00
C656   C     0.85347   0.54720   0.71329   0.00000  Uiso   1.00
C657   C     0.85260   0.95284   0.79223   0.00000  Uiso   1.00
C658   C     0.83483   0.52407   0.75034   0.00000  Uiso   1.00
C659   C     0.83482   0.97597   0.75020   0.00000  Uiso   1.00
C660   C     0.79136   0.73186   0.54723   0.00000  Uiso   1.00
C661   C     0.85793   0.78418   0.95053   0.00000  Uiso   1.00
C662   C     0.79226   0.73206   0.59698   0.00000  Uiso   1.00
C663   C     0.85762   0.78347   0.90085   0.00000  Uiso   1.00
C664   C     0.87440   0.76790   0.60748   0.00000  Uiso   1.00
C665   C     0.80896   0.71658   0.89461   0.00000  Uiso   1.00
C666   C     0.87527   0.76808   0.55796   0.00000  Uiso   1.00
Cl667  Cl    0.98835   0.70495   0.68639   0.00000  Uiso   1.00
Cl668  Cl    0.67834   0.79498   0.81365   0.00000  Uiso   1.00
H669   H     0.80063   0.52921   0.81577   0.00000  Uiso   1.00
H670   H     0.87677   0.81174   0.97071   0.00000  Uiso   1.00
H671   H     0.75983   0.71795   0.61219   0.00000  Uiso   1.00
H672   H     0.87676   0.80988   0.88390   0.00000  Uiso   1.00
H673   H     0.90684   0.78204   0.63097   0.00000  Uiso   1.00
H674   H     0.78981   0.69019   0.87276   0.00000  Uiso   1.00
H675   H     0.90903   0.78181   0.54451   0.00000  Uiso   1.00
H676   H     0.78973   0.68830   0.95955   0.00000  Uiso   1.00
H677   H     0.80214   0.97083   0.67557   0.00000  Uiso   1.00
H678   H     0.80054   0.61035   0.81604   0.00000  Uiso   1.00
H679   H     0.80210   0.88972   0.67521   0.00000  Uiso   1.00
H680   H     0.86741   0.61083   0.68430   0.00000  Uiso   1.00
H681   H     0.86591   0.88921   0.82492   0.00000  Uiso   1.00
H682   H     0.86891   0.52970   0.68488   0.00000  Uiso   1.00
H683   H     0.86736   0.97033   0.82480   0.00000  Uiso   1.00
H684   H     0.75760   0.71813   0.52514   0.00000  Uiso   1.00
N685   N     0.83333   0.74999   0.62623   0.00000  Uiso   1.00
N686   N     0.83333   0.75001   0.87376   0.00000  Uiso   1.00
O687   O     0.83334   0.68453   0.78974   0.00000  Uiso   1.00
O688   O     0.83333   0.81546   0.71026   0.00000  Uiso   1.00
O689   O     0.83334   0.68453   0.71026   0.00000  Uiso   1.00
O690   O     0.83333   0.81547   0.78974   0.00000  Uiso   1.00
O691   O     0.75725   0.75000   0.78044   0.00000  Uiso   1.00
O692   O     0.90942   0.75000   0.71955   0.00000  Uiso   1.00
O693   O     0.75725   0.74999   0.70096   0.00000  Uiso   1.00
O694   O     0.90942   0.75000   0.79903   0.00000  Uiso   1.00
Zn695  Zn    0.83333   0.75000   0.80307   0.00000  Uiso   1.00
Zn696  Zn    0.83333   0.74999   0.69693   0.00000  Uiso   1.00
loop_
_geom_bond_atom_site_label_1
_geom_bond_atom_site_label_2
_geom_bond_distance
_geom_bond_site_symmetry_2
_ccdc_geom_bond_type
C1     O51     1.285   .     A
C1     C14     1.437   .     S
C1     O49     1.285   .     A
C2     C4      1.410   .     A
C2     C27     1.406   .     A
C2     H38     1.082   .     S
C3     C28     1.410   .     A
C3     C22     1.410   .     A
C3     C352    1.512   1_554 S
C4     C23     1.410   .     A
C4     C351    1.512   .     S
C5     O53     1.270   .     A
C5     C7      1.400   .     S
C5     O55     1.281   .     A
C6     O54     1.270   .     A
C6     C8      1.400   .     S
C6     O56     1.281   .     A
C7     C124    1.346   1_455 S
C7     Cl145   1.781   1_455 S
C8     C65     1.346   .     S
C8     Cl88    1.781   .     S
C9     C20     1.399   .     A
C9     C11     1.380   .     A
C9     H31     1.083   .     S
C10    C21     1.399   .     A
C10    H39     1.083   .     S
C10    C13     1.380   .     A
C11    H40     1.084   .     S
C11    C14     1.399   .     A
C12    C15     1.437   .     S
C12    O52     1.285   .     A
C12    O50     1.285   .     A
C13    C15     1.399   .     A
C13    H41     1.084   .     S
C14    C16     1.399   .     A
C15    C17     1.399   .     A
C16    H42     1.084   .     S
C16    C18     1.380   .     A
C17    H43     1.084   .     S
C17    C19     1.381   .     A
C18    H44     1.083   .     S
C18    C20     1.399   .     A
C19    H45     1.083   .     S
C19    C21     1.399   .     A
C20    C195    1.444   1_545 S
C21    C194    1.444   .     S
C22    C24     1.406   .     A
C22    H46     1.082   .     S
C23    H32     1.082   .     S
C23    C25     1.406   .     A
C24    H33     1.082   .     S
C24    N47     1.363   .     A
C25    H34     1.082   .     S
C25    N48     1.363   .     A
C26    C28     1.406   .     A
C26    N47     1.363   .     A
C26    H35     1.081   .     S
C27    N48     1.363   .     A
C27    H36     1.082   .     S
C28    H37     1.082   .     S
Cl29   C65     1.781   .     S
Cl30   C124    1.781   1_455 S
N47    Zn58    2.003   .     S
N48    Zn57    2.003   .     S
O49    Zn57    2.001   .     S
O50    Zn58    2.001   .     S
O51    Zn58    2.001   .     S
O52    Zn57    2.001   .     S
O53    Zn57    1.982   .     S
O54    Zn58    1.982   .     S
O55    Zn58    1.987   .     S
O56    Zn57    1.987   .     S
C59    O109    1.285   .     A
C59    C72     1.437   .     S
C59    O107    1.285   .     A
C60    C62     1.410   .     A
C60    C85     1.406   .     A
C60    H96     1.082   .     S
C61    C86     1.410   .     A
C61    C80     1.410   .     A
C61    C410    1.512   1_554 S
C62    C81     1.410   .     A
C62    C409    1.512   .     S
C63    O111    1.270   .     A
C63    C65     1.400   .     S
C63    O113    1.281   .     A
C64    O112    1.270   .     A
C64    C66     1.400   .     S
C64    O114    1.281   .     A
C66    C123    1.346   .     S
C66    Cl146   1.781   .     S
C67    C78     1.399   .     A
C67    C69     1.380   .     A
C67    H89     1.083   .     S
C68    C79     1.399   .     A
C68    H97     1.083   .     S
C68    C71     1.380   .     A
C69    H98     1.084   .     S
C69    C72     1.399   .     A
C70    C73     1.437   .     S
C70    O110    1.285   .     A
C70    O108    1.285   .     A
C71    C73     1.399   .     A
C71    H99     1.084   .     S
C72    C74     1.399   .     A
C73    C75     1.399   .     A
C74    H100    1.084   .     S
C74    C76     1.380   .     A
C75    H101    1.084   .     S
C75    C77     1.381   .     A
C76    H102    1.083   .     S
C76    C78     1.399   .     A
C77    H103    1.083   .     S
C77    C79     1.399   .     A
C78    C253    1.444   1_545 S
C79    C252    1.444   .     S
C80    C82     1.406   .     A
C80    H104    1.082   .     S
C81    H90     1.082   .     S
C81    C83     1.406   .     A
C82    H91     1.082   .     S
C82    N105    1.363   .     A
C83    H92     1.082   .     S
C83    N106    1.363   .     A
C84    C86     1.406   .     A
C84    N105    1.363   .     A
C84    H93     1.081   .     S
C85    N106    1.363   .     A
C85    H94     1.082   .     S
C86    H95     1.082   .     S
Cl87   C123    1.781   .     S
N105   Zn116   2.003   .     S
N106   Zn115   2.003   .     S
O107   Zn115   2.001   .     S
O108   Zn116   2.001   .     S
O109   Zn116   2.001   .     S
O110   Zn115   2.001   .     S
O111   Zn115   1.982   .     S
O112   Zn116   1.982   .     S
O113   Zn116   1.987   .     S
O114   Zn115   1.987   .     S
C117   O167    1.285   .     A
C117   C130    1.437   .     S
C117   O165    1.285   .     A
C118   C120    1.410   .     A
C118   C143    1.406   .     A
C118   H154    1.082   .     S
C119   C144    1.410   .     A
C119   C138    1.410   .     A
C119   C468    1.512   1_554 S
C120   C139    1.410   .     A
C120   C467    1.512   .     S
C121   O169    1.270   .     A
C121   C123    1.400   .     S
C121   O171    1.281   .     A
C122   O170    1.270   .     A
C122   C124    1.400   .     S
C122   O172    1.281   .     A
C124   C7      1.346   1_655 S
C124   Cl30    1.781   1_655 S
C125   C136    1.399   .     A
C125   C127    1.380   .     A
C125   H147    1.083   .     S
C126   C137    1.399   .     A
C126   H155    1.083   .     S
C126   C129    1.380   .     A
C127   H156    1.084   .     S
C127   C130    1.399   .     A
C128   C131    1.437   .     S
C128   O168    1.285   .     A
C128   O166    1.285   .     A
C129   C131    1.399   .     A
C129   H157    1.084   .     S
C130   C132    1.399   .     A
C131   C133    1.399   .     A
C132   H158    1.084   .     S
C132   C134    1.380   .     A
C133   H159    1.084   .     S
C133   C135    1.381   .     A
C134   H160    1.083   .     S
C134   C136    1.399   .     A
C135   H161    1.083   .     S
C135   C137    1.399   .     A
C136   C311    1.444   1_545 S
C137   C310    1.444   .     S
C138   C140    1.406   .     A
C138   H162    1.082   .     S
C139   H148    1.082   .     S
C139   C141    1.406   .     A
C140   H149    1.082   .     S
C140   N163    1.363   .     A
C141   H150    1.082   .     S
C141   N164    1.363   .     A
C142   C144    1.406   .     A
C142   N163    1.363   .     A
C142   H151    1.081   .     S
C143   N164    1.363   .     A
C143   H152    1.082   .     S
C144   H153    1.082   .     S
Cl145  C7      1.781   1_655 S
N163   Zn174   2.003   .     S
N164   Zn173   2.003   .     S
O165   Zn173   2.001   .     S
O166   Zn174   2.001   .     S
O167   Zn174   2.001   .     S
O168   Zn173   2.001   .     S
O169   Zn173   1.982   .     S
O170   Zn174   1.982   .     S
O171   Zn174   1.987   .     S
O172   Zn173   1.987   .     S
C175   O225    1.285   .     A
C175   C188    1.437   .     S
C175   O223    1.285   .     A
C176   C178    1.410   .     A
C176   C201    1.406   .     A
C176   H212    1.082   .     S
C177   C202    1.410   .     A
C177   C196    1.410   .     A
C177   C526    1.512   1_554 S
C178   C197    1.410   .     A
C178   C525    1.512   .     S
C179   O227    1.270   .     A
C179   C181    1.400   .     S
C179   O229    1.281   .     A
C180   O228    1.270   .     A
C180   C182    1.400   .     S
C180   O230    1.281   .     A
C181   C298    1.346   1_455 S
C181   Cl319   1.781   1_455 S
C182   C239    1.346   .     S
C182   Cl262   1.781   .     S
C183   C194    1.399   .     A
C183   C185    1.380   .     A
C183   H205    1.083   .     S
C184   C195    1.399   .     A
C184   H213    1.083   .     S
C184   C187    1.380   .     A
C185   H214    1.084   .     S
C185   C188    1.399   .     A
C186   C189    1.437   .     S
C186   O226    1.285   .     A
C186   O224    1.285   .     A
C187   C189    1.399   .     A
C187   H215    1.084   .     S
C188   C190    1.399   .     A
C189   C191    1.399   .     A
C190   H216    1.084   .     S
C190   C192    1.380   .     A
C191   H217    1.084   .     S
C191   C193    1.381   .     A
C192   H218    1.083   .     S
C192   C194    1.399   .     A
C193   H219    1.083   .     S
C193   C195    1.399   .     A
C195   C20     1.444   1_565 S
C196   C198    1.406   .     A
C196   H220    1.082   .     S
C197   H206    1.082   .     S
C197   C199    1.406   .     A
C198   H207    1.082   .     S
C198   N221    1.363   .     A
C199   H208    1.082   .     S
C199   N222    1.363   .     A
C200   C202    1.406   .     A
C200   N221    1.363   .     A
C200   H209    1.081   .     S
C201   N222    1.363   .     A
C201   H210    1.082   .     S
C202   H211    1.082   .     S
Cl203  C239    1.781   .     S
Cl204  C298    1.781   1_455 S
N221   Zn232   2.003   .     S
N222   Zn231   2.003   .     S
O223   Zn231   2.001   .     S
O224   Zn232   2.001   .     S
O225   Zn232   2.001   .     S
O226   Zn231   2.001   .     S
O227   Zn231   1.982   .     S
O228   Zn232   1.982   .     S
O229   Zn232   1.987   .     S
O230   Zn231   1.987   .     S
C233   O283    1.285   .     A
C233   C246    1.437   .     S
C233   O281    1.285   .     A
C234   C236    1.410   .     A
C234   C259    1.406   .     A
C234   H270    1.082   .     S
C235   C260    1.410   .     A
C235   C254    1.410   .     A
C235   C584    1.512   1_554 S
C236   C255    1.410   .     A
C236   C583    1.512   .     S
C237   O285    1.270   .     A
C237   C239    1.400   .     S
C237   O287    1.281   .     A
C238   O286    1.270   .     A
C238   C240    1.400   .     S
C238   O288    1.281   .     A
C240   C297    1.346   .     S
C240   Cl320   1.781   .     S
C241   C252    1.399   .     A
C241   C243    1.380   .     A
C241   H263    1.083   .     S
C242   C253    1.399   .     A
C242   H271    1.083   .     S
C242   C245    1.380   .     A
C243   H272    1.084   .     S
C243   C246    1.399   .     A
C244   C247    1.437   .     S
C244   O284    1.285   .     A
C244   O282    1.285   .     A
C245   C247    1.399   .     A
C245   H273    1.084   .     S
C246   C248    1.399   .     A
C247   C249    1.399   .     A
C248   H274    1.084   .     S
C248   C250    1.380   .     A
C249   H275    1.084   .     S
C249   C251    1.381   .     A
C250   H276    1.083   .     S
C250   C252    1.399   .     A
C251   H277    1.083   .     S
C251   C253    1.399   .     A
C253   C78     1.444   1_565 S
C254   C256    1.406   .     A
C254   H278    1.082   .     S
C255   H264    1.082   .     S
C255   C257    1.406   .     A
C256   H265    1.082   .     S
C256   N279    1.363   .     A
C257   H266    1.082   .     S
C257   N280    1.363   .     A
C258   C260    1.406   .     A
C258   N279    1.363   .     A
C258   H267    1.081   .     S
C259   N280    1.363   .     A
C259   H268    1.082   .     S
C260   H269    1.082   .     S
Cl261  C297    1.781   .     S
N279   Zn290   2.003   .     S
N280   Zn289   2.003   .     S
O281   Zn289   2.001   .     S
O282   Zn290   2.001   .     S
O283   Zn290   2.001   .     S
O284   Zn289   2.001   .     S
O285   Zn289   1.982   .     S
O286   Zn290   1.982   .     S
O287   Zn290   1.987   .     S
O288   Zn289   1.987   .     S
C291   O341    1.285   .     A
C291   C304    1.437   .     S
C291   O339    1.285   .     A
C292   C294    1.410   .     A
C292   C317    1.406   .     A
C292   H328    1.082   .     S
C293   C318    1.410   .     A
C293   C312    1.410   .     A
C293   C642    1.512   1_554 S
C294   C313    1.410   .     A
C294   C641    1.512   .     S
C295   O343    1.270   .     A
C295   C297    1.400   .     S
C295   O345    1.281   .     A
C296   O344    1.270   .     A
C296   C298    1.400   .     S
C296   O346    1.281   .     A
C298   C181    1.346   1_655 S
C298   Cl204   1.781   1_655 S
C299   C310    1.399   .     A
C299   C301    1.380   .     A
C299   H321    1.083   .     S
C300   C311    1.399   .     A
C300   H329    1.083   .     S
C300   C303    1.380   .     A
C301   H330    1.084   .     S
C301   C304    1.399   .     A
C302   C305    1.437   .     S
C302   O342    1.285   .     A
C302   O340    1.285   .     A
C303   C305    1.399   .     A
C303   H331    1.084   .     S
C304   C306    1.399   .     A
C305   C307    1.399   .     A
C306   H332    1.084   .     S
C306   C308    1.380   .     A
C307   H333    1.084   .     S
C307   C309    1.381   .     A
C308   H334    1.083   .     S
C308   C310    1.399   .     A
C309   H335    1.083   .     S
C309   C311    1.399   .     A
C311   C136    1.444   1_565 S
C312   C314    1.406   .     A
C312   H336    1.082   .     S
C313   H322    1.082   .     S
C313   C315    1.406   .     A
C314   H323    1.082   .     S
C314   N337    1.363   .     A
C315   H324    1.082   .     S
C315   N338    1.363   .     A
C316   C318    1.406   .     A
C316   N337    1.363   .     A
C316   H325    1.081   .     S
C317   N338    1.363   .     A
C317   H326    1.082   .     S
C318   H327    1.082   .     S
Cl319  C181    1.781   1_655 S
N337   Zn348   2.003   .     S
N338   Zn347   2.003   .     S
O339   Zn347   2.001   .     S
O340   Zn348   2.001   .     S
O341   Zn348   2.001   .     S
O342   Zn347   2.001   .     S
O343   Zn347   1.982   .     S
O344   Zn348   1.982   .     S
O345   Zn348   1.987   .     S
O346   Zn347   1.987   .     S
C349   O399    1.285   .     A
C349   C362    1.437   .     S
C349   O397    1.285   .     A
C350   C352    1.410   .     A
C350   C375    1.406   .     A
C350   H386    1.082   .     S
C351   C376    1.410   .     A
C351   C370    1.410   .     A
C352   C371    1.410   .     A
C352   C3      1.512   1_556 S
C353   O401    1.270   .     A
C353   C355    1.400   .     S
C353   O403    1.281   .     A
C354   O402    1.270   .     A
C354   C356    1.400   .     S
C354   O404    1.281   .     A
C355   C472    1.346   1_455 S
C355   Cl493   1.781   1_455 S
C356   C413    1.346   .     S
C356   Cl436   1.781   .     S
C357   C368    1.399   .     A
C357   C359    1.380   .     A
C357   H379    1.083   .     S
C358   C369    1.399   .     A
C358   H387    1.083   .     S
C358   C361    1.380   .     A
C359   H388    1.084   .     S
C359   C362    1.399   .     A
C360   C363    1.437   .     S
C360   O400    1.285   .     A
C360   O398    1.285   .     A
C361   C363    1.399   .     A
C361   H389    1.084   .     S
C362   C364    1.399   .     A
C363   C365    1.399   .     A
C364   H390    1.084   .     S
C364   C366    1.380   .     A
C365   H391    1.084   .     S
C365   C367    1.381   .     A
C366   H392    1.083   .     S
C366   C368    1.399   .     A
C367   H393    1.083   .     S
C367   C369    1.399   .     A
C368   C543    1.444   1_545 S
C369   C542    1.444   .     S
C370   C372    1.406   .     A
C370   H394    1.082   .     S
C371   H380    1.082   .     S
C371   C373    1.406   .     A
C372   H381    1.082   .     S
C372   N395    1.363   .     A
C373   H382    1.082   .     S
C373   N396    1.363   .     A
C374   C376    1.406   .     A
C374   N395    1.363   .     A
C374   H383    1.081   .     S
C375   N396    1.363   .     A
C375   H384    1.082   .     S
C376   H385    1.082   .     S
Cl377  C413    1.781   .     S
Cl378  C472    1.781   1_455 S
N395   Zn406   2.003   .     S
N396   Zn405   2.003   .     S
O397   Zn405   2.001   .     S
O398   Zn406   2.001   .     S
O399   Zn406   2.001   .     S
O400   Zn405   2.001   .     S
O401   Zn405   1.982   .     S
O402   Zn406   1.982   .     S
O403   Zn406   1.987   .     S
O404   Zn405   1.987   .     S
C407   O457    1.285   .     A
C407   C420    1.437   .     S
C407   O455    1.285   .     A
C408   C410    1.410   .     A
C408   C433    1.406   .     A
C408   H444    1.082   .     S
C409   C434    1.410   .     A
C409   C428    1.410   .     A
C410   C429    1.410   .     A
C410   C61     1.512   1_556 S
C411   O459    1.270   .     A
C411   C413    1.400   .     S
C411   O461    1.281   .     A
C412   O460    1.270   .     A
C412   C414    1.400   .     S
C412   O462    1.281   .     A
C414   C471    1.346   .     S
C414   Cl494   1.781   .     S
C415   C426    1.399   .     A
C415   C417    1.380   .     A
C415   H437    1.083   .     S
C416   C427    1.399   .     A
C416   H445    1.083   .     S
C416   C419    1.380   .     A
C417   H446    1.084   .     S
C417   C420    1.399   .     A
C418   C421    1.437   .     S
C418   O458    1.285   .     A
C418   O456    1.285   .     A
C419   C421    1.399   .     A
C419   H447    1.084   .     S
C420   C422    1.399   .     A
C421   C423    1.399   .     A
C422   H448    1.084   .     S
C422   C424    1.380   .     A
C423   H449    1.084   .     S
C423   C425    1.381   .     A
C424   H450    1.083   .     S
C424   C426    1.399   .     A
C425   H451    1.083   .     S
C425   C427    1.399   .     A
C426   C601    1.444   1_545 S
C427   C600    1.444   .     S
C428   C430    1.406   .     A
C428   H452    1.082   .     S
C429   H438    1.082   .     S
C429   C431    1.406   .     A
C430   H439    1.082   .     S
C430   N453    1.363   .     A
C431   H440    1.082   .     S
C431   N454    1.363   .     A
C432   C434    1.406   .     A
C432   N453    1.363   .     A
C432   H441    1.081   .     S
C433   N454    1.363   .     A
C433   H442    1.082   .     S
C434   H443    1.082   .     S
Cl435  C471    1.781   .     S
N453   Zn464   2.003   .     S
N454   Zn463   2.003   .     S
O455   Zn463   2.001   .     S
O456   Zn464   2.001   .     S
O457   Zn464   2.001   .     S
O458   Zn463   2.001   .     S
O459   Zn463   1.982   .     S
O460   Zn464   1.982   .     S
O461   Zn464   1.987   .     S
O462   Zn463   1.987   .     S
C465   O515    1.285   .     A
C465   C478    1.437   .     S
C465   O513    1.285   .     A
C466   C468    1.410   .     A
C466   C491    1.406   .     A
C466   H502    1.082   .     S
C467   C492    1.410   .     A
C467   C486    1.410   .     A
C468   C487    1.410   .     A
C468   C119    1.512   1_556 S
C469   O517    1.270   .     A
C469   C471    1.400   .     S
C469   O519    1.281   .     A
C470   O518    1.270   .     A
C470   C472    1.400   .     S
C470   O520    1.281   .     A
C472   C355    1.346   1_655 S
C472   Cl378   1.781   1_655 S
C473   C484    1.399   .     A
C473   C475    1.380   .     A
C473   H495    1.083   .     S
C474   C485    1.399   .     A
C474   H503    1.083   .     S
C474   C477    1.380   .     A
C475   H504    1.084   .     S
C475   C478    1.399   .     A
C476   C479    1.437   .     S
C476   O516    1.285   .     A
C476   O514    1.285   .     A
C477   C479    1.399   .     A
C477   H505    1.084   .     S
C478   C480    1.399   .     A
C479   C481    1.399   .     A
C480   H506    1.084   .     S
C480   C482    1.380   .     A
C481   H507    1.084   .     S
C481   C483    1.381   .     A
C482   H508    1.083   .     S
C482   C484    1.399   .     A
C483   H509    1.083   .     S
C483   C485    1.399   .     A
C484   C659    1.444   1_545 S
C485   C658    1.444   .     S
C486   C488    1.406   .     A
C486   H510    1.082   .     S
C487   H496    1.082   .     S
C487   C489    1.406   .     A
C488   H497    1.082   .     S
C488   N511    1.363   .     A
C489   H498    1.082   .     S
C489   N512    1.363   .     A
C490   C492    1.406   .     A
C490   N511    1.363   .     A
C490   H499    1.081   .     S
C491   N512    1.363   .     A
C491   H500    1.082   .     S
C492   H501    1.082   .     S
Cl493  C355    1.781   1_655 S
N511   Zn522   2.003   .     S
N512   Zn521   2.003   .     S
O513   Zn521   2.001   .     S
O514   Zn522   2.001   .     S
O515   Zn522   2.001   .     S
O516   Zn521   2.001   .     S
O517   Zn521   1.982   .     S
O518   Zn522   1.982   .     S
O519   Zn522   1.987   .     S
O520   Zn521   1.987   .     S
C523   O573    1.285   .     A
C523   C536    1.437   .     S
C523   O571    1.285   .     A
C524   C526    1.410   .     A
C524   C549    1.406   .     A
C524   H560    1.082   .     S
C525   C550    1.410   .     A
C525   C544    1.410   .     A
C526   C545    1.410   .     A
C526   C177    1.512   1_556 S
C527   O575    1.270   .     A
C527   C529    1.400   .     S
C527   O577    1.281   .     A
C528   O576    1.270   .     A
C528   C530    1.400   .     S
C528   O578    1.281   .     A
C529   C646    1.346   1_455 S
C529   Cl667   1.781   1_455 S
C530   C587    1.346   .     S
C530   Cl610   1.781   .     S
C531   C542    1.399   .     A
C531   C533    1.380   .     A
C531   H553    1.083   .     S
C532   C543    1.399   .     A
C532   H561    1.083   .     S
C532   C535    1.380   .     A
C533   H562    1.084   .     S
C533   C536    1.399   .     A
C534   C537    1.437   .     S
C534   O574    1.285   .     A
C534   O572    1.285   .     A
C535   C537    1.399   .     A
C535   H563    1.084   .     S
C536   C538    1.399   .     A
C537   C539    1.399   .     A
C538   H564    1.084   .     S
C538   C540    1.380   .     A
C539   H565    1.084   .     S
C539   C541    1.381   .     A
C540   H566    1.083   .     S
C540   C542    1.399   .     A
C541   H567    1.083   .     S
C541   C543    1.399   .     A
C543   C368    1.444   1_565 S
C544   C546    1.406   .     A
C544   H568    1.082   .     S
C545   H554    1.082   .     S
C545   C547    1.406   .     A
C546   H555    1.082   .     S
C546   N569    1.363   .     A
C547   H556    1.082   .     S
C547   N570    1.363   .     A
C548   C550    1.406   .     A
C548   N569    1.363   .     A
C548   H557    1.081   .     S
C549   N570    1.363   .     A
C549   H558    1.082   .     S
C550   H559    1.082   .     S
Cl551  C587    1.781   .     S
Cl552  C646    1.781   1_455 S
N569   Zn580   2.003   .     S
N570   Zn579   2.003   .     S
O571   Zn579   2.001   .     S
O572   Zn580   2.001   .     S
O573   Zn580   2.001   .     S
O574   Zn579   2.001   .     S
O575   Zn579   1.982   .     S
O576   Zn580   1.982   .     S
O577   Zn580   1.987   .     S
O578   Zn579   1.987   .     S
C581   O631    1.285   .     A
C581   C594    1.437   .     S
C581   O629    1.285   .     A
C582   C584    1.410   .     A
C582   C607    1.406   .     A
C582   H618    1.082   .     S
C583   C608    1.410   .     A
C583   C602    1.410   .     A
C584   C603    1.410   .     A
C584   C235    1.512   1_556 S
C585   O633    1.270   .     A
C585   C587    1.400   .     S
C585   O635    1.281   .     A
C586   O634    1.270   .     A
C586   C588    1.400   .     S
C586   O636    1.281   .     A
C588   C645    1.346   .     S
C588   Cl668   1.781   .     S
C589   C600    1.399   .     A
C589   C591    1.380   .     A
C589   H611    1.083   .     S
C590   C601    1.399   .     A
C590   H619    1.083   .     S
C590   C593    1.380   .     A
C591   H620    1.084   .     S
C591   C594    1.399   .     A
C592   C595    1.437   .     S
C592   O632    1.285   .     A
C592   O630    1.285   .     A
C593   C595    1.399   .     A
C593   H621    1.084   .     S
C594   C596    1.399   .     A
C595   C597    1.399   .     A
C596   H622    1.084   .     S
C596   C598    1.380   .     A
C597   H623    1.084   .     S
C597   C599    1.381   .     A
C598   H624    1.083   .     S
C598   C600    1.399   .     A
C599   H625    1.083   .     S
C599   C601    1.399   .     A
C601   C426    1.444   1_565 S
C602   C604    1.406   .     A
C602   H626    1.082   .     S
C603   H612    1.082   .     S
C603   C605    1.406   .     A
C604   H613    1.082   .     S
C604   N627    1.363   .     A
C605   H614    1.082   .     S
C605   N628    1.363   .     A
C606   C608    1.406   .     A
C606   N627    1.363   .     A
C606   H615    1.081   .     S
C607   N628    1.363   .     A
C607   H616    1.082   .     S
C608   H617    1.082   .     S
Cl609  C645    1.781   .     S
N627   Zn638   2.003   .     S
N628   Zn637   2.003   .     S
O629   Zn637   2.001   .     S
O630   Zn638   2.001   .     S
O631   Zn638   2.001   .     S
O632   Zn637   2.001   .     S
O633   Zn637   1.982   .     S
O634   Zn638   1.982   .     S
O635   Zn638   1.987   .     S
O636   Zn637   1.987   .     S
C639   O689    1.285   .     A
C639   C652    1.437   .     S
C639   O687    1.285   .     A
C640   C642    1.410   .     A
C640   C665    1.406   .     A
C640   H676    1.082   .     S
C641   C666    1.410   .     A
C641   C660    1.410   .     A
C642   C661    1.410   .     A
C642   C293    1.512   1_556 S
C643   O691    1.270   .     A
C643   C645    1.400   .     S
C643   O693    1.281   .     A
C644   O692    1.270   .     A
C644   C646    1.400   .     S
C644   O694    1.281   .     A
C646   C529    1.346   1_655 S
C646   Cl552   1.781   1_655 S
C647   C658    1.399   .     A
C647   C649    1.380   .     A
C647   H669    1.083   .     S
C648   C659    1.399   .     A
C648   H677    1.083   .     S
C648   C651    1.380   .     A
C649   H678    1.084   .     S
C649   C652    1.399   .     A
C650   C653    1.437   .     S
C650   O690    1.285   .     A
C650   O688    1.285   .     A
C651   C653    1.399   .     A
C651   H679    1.084   .     S
C652   C654    1.399   .     A
C653   C655    1.399   .     A
C654   H680    1.084   .     S
C654   C656    1.380   .     A
C655   H681    1.084   .     S
C655   C657    1.381   .     A
C656   H682    1.083   .     S
C656   C658    1.399   .     A
C657   H683    1.083   .     S
C657   C659    1.399   .     A
C659   C484    1.444   1_565 S
C660   C662    1.406   .     A
C660   H684    1.082   .     S
C661   H670    1.082   .     S
C661   C663    1.406   .     A
C662   H671    1.082   .     S
C662   N685    1.363   .     A
C663   H672    1.082   .     S
C663   N686    1.363   .     A
C664   C666    1.406   .     A
C664   N685    1.363   .     A
C664   H673    1.081   .     S
C665   N686    1.363   .     A
C665   H674    1.082   .     S
C666   H675    1.082   .     S
Cl667  C529    1.781   1_655 S
N685   Zn696   2.003   .     S
N686   Zn695   2.003   .     S
O687   Zn695   2.001   .     S
O688   Zn696   2.001   .     S
O689   Zn696   2.001   .     S
O690   Zn695   2.001   .     S
O691   Zn695   1.982   .     S
O692   Zn696   1.982   .     S
O693   Zn696   1.987   .     S
O694   Zn695   1.987   .     S
