data_str_m3_o1_o16_pcu_sym.49
_audit_creation_date              2020-01-03
_audit_creation_method            'Materials Studio'
_symmetry_space_group_name_H-M    'P1'
_symmetry_Int_Tables_number       1
_symmetry_cell_setting            triclinic
loop_
_symmetry_equiv_pos_as_xyz
  x,y,z
_cell_length_a                    29.6669
_cell_length_b                    32.1738
_cell_length_c                    26.0961
_cell_angle_alpha                 91.1713
_cell_angle_beta                  72.0759
_cell_angle_gamma                 90.1712
loop_
_atom_site_label
_atom_site_type_symbol
_atom_site_fract_x
_atom_site_fract_y
_atom_site_fract_z
_atom_site_U_iso_or_equiv
_atom_site_adp_type
_atom_site_occupancy
C1     C     0.16657   0.24667   0.25057   0.00000  Uiso   1.00
C2     C     0.12995   0.14020   0.40363   0.00000  Uiso   1.00
C3     C     0.20497   0.31227   0.25898   0.00000  Uiso   1.00
C4     C     0.14181   0.15901   0.35004   0.00000  Uiso   1.00
C5     C     0.20474   0.02154   0.25946   0.00000  Uiso   1.00
C6     C     0.16584   0.04252   0.25267   0.00000  Uiso   1.00
C7     C     0.12641   0.02107   0.24757   0.00000  Uiso   1.00
C8     C     0.12660   0.31186   0.24707   0.00000  Uiso   1.00
C9     C     0.16613   0.29085   0.25210   0.00000  Uiso   1.00
C10    C     0.31714   0.13822   0.21942   0.00000  Uiso   1.00
C11    C     0.03176   0.13730   0.22022   0.00000  Uiso   1.00
C12    C     0.15223   0.12991   0.48435   0.00000  Uiso   1.00
C13    C     0.01582   0.19513   0.28023   0.00000  Uiso   1.00
C14    C     0.30126   0.19487   0.28059   0.00000  Uiso   1.00
C15    C     0.16642   0.08666   0.25071   0.00000  Uiso   1.00
C16    C     0.19245   0.16618   0.14799   0.00000  Uiso   1.00
C17    C     0.26858   0.15678   0.00369   0.00000  Uiso   1.00
C18    C     0.20753   0.16038   0.08974   0.00000  Uiso   1.00
C19    C     0.08326   0.12864   0.43100   0.00000  Uiso   1.00
C20    C     0.07198   0.11371   0.48355   0.00000  Uiso   1.00
C21    C     0.10520   0.11791   0.01163   0.00000  Uiso   1.00
C22    C     0.30144   0.11010   0.18331   0.00000  Uiso   1.00
C23    C     0.16576   0.13271   0.42810   0.00000  Uiso   1.00
C24    C     0.06420   0.10426   0.18898   0.00000  Uiso   1.00
C25    C     0.02667   0.09239   0.00887   0.00000  Uiso   1.00
C26    C     0.18664   0.13916   0.01029   0.00000  Uiso   1.00
C27    C     0.23496   0.14344   0.47934   0.00000  Uiso   1.00
C28    C     0.24879   0.13456   0.42435   0.00000  Uiso   1.00
C29    C     0.21449   0.12825   0.39904   0.00000  Uiso   1.00
C30    C     0.17372   0.14796   0.06533   0.00000  Uiso   1.00
C31    C     0.25495   0.16513   0.05879   0.00000  Uiso   1.00
H32    H     0.28133   0.17549   0.07703   0.00000  Uiso   1.00
H33    H     0.05634   0.12971   0.41086   0.00000  Uiso   1.00
H34    H     0.09489   0.10891   0.05334   0.00000  Uiso   1.00
H35    H     0.22685   0.11958   0.35680   0.00000  Uiso   1.00
H36    H     0.23541   0.29625   0.26389   0.00000  Uiso   1.00
H37    H     0.28756   0.07969   0.19672   0.00000  Uiso   1.00
H38    H     0.10138   0.10963   0.17133   0.00000  Uiso   1.00
H39    H     0.01749   0.08324   0.05053   0.00000  Uiso   1.00
H40    H     0.23490   0.03787   0.26505   0.00000  Uiso   1.00
H41    H     0.09568   0.03697   0.24352   0.00000  Uiso   1.00
H42    H     0.09607   0.29559   0.24227   0.00000  Uiso   1.00
H43    H     0.02734   0.21802   0.30443   0.00000  Uiso   1.00
H44    H     0.27669   0.21753   0.30514   0.00000  Uiso   1.00
H45    H     0.28590   0.13406   0.40060   0.00000  Uiso   1.00
H46    H     0.30523   0.16121   0.47998   0.00000  Uiso   1.00
H47    H     0.13701   0.14667   0.08940   0.00000  Uiso   1.00
N48    N     0.04760   0.16668   0.25002   0.00000  Uiso   1.00
N49    N     0.28573   0.16665   0.25001   0.00000  Uiso   1.00
O50    O     0.12846   0.22775   0.25001   0.00000  Uiso   1.00
O51    O     0.04954   0.06960   0.18284   0.00000  Uiso   1.00
O52    O     0.00023   0.08283   0.48282   0.00000  Uiso   1.00
O53    O     0.20490   0.22774   0.25001   0.00000  Uiso   1.00
O54    O     0.10947   0.16666   0.32681   0.00000  Uiso   1.00
O55    O     0.18591   0.16665   0.32681   0.00000  Uiso   1.00
O56    O     0.12843   0.10559   0.25000   0.00000  Uiso   1.00
O57    O     0.20488   0.10558   0.25000   0.00000  Uiso   1.00
O58    O     0.14742   0.16668   0.17319   0.00000  Uiso   1.00
O59    O     0.22387   0.16667   0.17319   0.00000  Uiso   1.00
O60    O     0.30606   0.12020   0.13726   0.00000  Uiso   1.00
Zn61   Zn    0.11562   0.16667   0.25000   0.00000  Uiso   1.00
Zn62   Zn    0.21771   0.16666   0.25000   0.00000  Uiso   1.00
C63    C     0.49990   0.24667   0.25057   0.00000  Uiso   1.00
C64    C     0.46329   0.14020   0.40363   0.00000  Uiso   1.00
C65    C     0.53830   0.31227   0.25898   0.00000  Uiso   1.00
C66    C     0.47514   0.15901   0.35004   0.00000  Uiso   1.00
C67    C     0.53807   0.02154   0.25946   0.00000  Uiso   1.00
C68    C     0.49917   0.04252   0.25267   0.00000  Uiso   1.00
C69    C     0.45974   0.02107   0.24757   0.00000  Uiso   1.00
C70    C     0.45993   0.31186   0.24707   0.00000  Uiso   1.00
C71    C     0.49946   0.29085   0.25210   0.00000  Uiso   1.00
C72    C     0.65048   0.13822   0.21942   0.00000  Uiso   1.00
C73    C     0.36509   0.13730   0.22022   0.00000  Uiso   1.00
C74    C     0.48556   0.12991   0.48435   0.00000  Uiso   1.00
C75    C     0.34915   0.19513   0.28023   0.00000  Uiso   1.00
C76    C     0.63459   0.19487   0.28059   0.00000  Uiso   1.00
C77    C     0.49975   0.08666   0.25071   0.00000  Uiso   1.00
C78    C     0.52579   0.16618   0.14799   0.00000  Uiso   1.00
C79    C     0.60191   0.15678   0.00369   0.00000  Uiso   1.00
C80    C     0.54086   0.16038   0.08974   0.00000  Uiso   1.00
C81    C     0.41659   0.12864   0.43100   0.00000  Uiso   1.00
C82    C     0.40531   0.11371   0.48355   0.00000  Uiso   1.00
C83    C     0.43854   0.11791   0.01163   0.00000  Uiso   1.00
C84    C     0.63478   0.11010   0.18331   0.00000  Uiso   1.00
C85    C     0.49910   0.13271   0.42810   0.00000  Uiso   1.00
C86    C     0.39754   0.10426   0.18898   0.00000  Uiso   1.00
C87    C     0.36000   0.09239   0.00887   0.00000  Uiso   1.00
C88    C     0.51997   0.13916   0.01029   0.00000  Uiso   1.00
C89    C     0.56829   0.14344   0.47934   0.00000  Uiso   1.00
C90    C     0.58213   0.13456   0.42435   0.00000  Uiso   1.00
C91    C     0.54783   0.12825   0.39904   0.00000  Uiso   1.00
C92    C     0.50706   0.14796   0.06533   0.00000  Uiso   1.00
C93    C     0.58828   0.16513   0.05879   0.00000  Uiso   1.00
H94    H     0.61466   0.17549   0.07703   0.00000  Uiso   1.00
H95    H     0.38967   0.12971   0.41086   0.00000  Uiso   1.00
H96    H     0.42822   0.10891   0.05334   0.00000  Uiso   1.00
H97    H     0.56018   0.11958   0.35680   0.00000  Uiso   1.00
H98    H     0.56874   0.29625   0.26389   0.00000  Uiso   1.00
H99    H     0.62089   0.07969   0.19672   0.00000  Uiso   1.00
H100   H     0.43472   0.10963   0.17133   0.00000  Uiso   1.00
H101   H     0.35083   0.08324   0.05053   0.00000  Uiso   1.00
H102   H     0.56824   0.03787   0.26505   0.00000  Uiso   1.00
H103   H     0.42901   0.03697   0.24352   0.00000  Uiso   1.00
H104   H     0.42940   0.29559   0.24227   0.00000  Uiso   1.00
H105   H     0.36067   0.21802   0.30443   0.00000  Uiso   1.00
H106   H     0.61002   0.21753   0.30514   0.00000  Uiso   1.00
H107   H     0.61923   0.13406   0.40060   0.00000  Uiso   1.00
H108   H     0.63856   0.16121   0.47998   0.00000  Uiso   1.00
H109   H     0.47034   0.14667   0.08940   0.00000  Uiso   1.00
N110   N     0.38093   0.16668   0.25002   0.00000  Uiso   1.00
N111   N     0.61906   0.16665   0.25001   0.00000  Uiso   1.00
O112   O     0.46179   0.22775   0.25001   0.00000  Uiso   1.00
O113   O     0.38288   0.06960   0.18284   0.00000  Uiso   1.00
O114   O     0.33356   0.08283   0.48282   0.00000  Uiso   1.00
O115   O     0.53823   0.22774   0.25001   0.00000  Uiso   1.00
O116   O     0.44280   0.16666   0.32681   0.00000  Uiso   1.00
O117   O     0.51924   0.16665   0.32681   0.00000  Uiso   1.00
O118   O     0.46177   0.10559   0.25000   0.00000  Uiso   1.00
O119   O     0.53821   0.10558   0.25000   0.00000  Uiso   1.00
O120   O     0.48076   0.16668   0.17319   0.00000  Uiso   1.00
O121   O     0.55720   0.16667   0.17319   0.00000  Uiso   1.00
O122   O     0.63939   0.12020   0.13726   0.00000  Uiso   1.00
Zn123  Zn    0.44896   0.16667   0.25000   0.00000  Uiso   1.00
Zn124  Zn    0.55104   0.16666   0.25000   0.00000  Uiso   1.00
C125   C     0.83324   0.24667   0.25057   0.00000  Uiso   1.00
C126   C     0.79662   0.14020   0.40363   0.00000  Uiso   1.00
C127   C     0.87163   0.31227   0.25898   0.00000  Uiso   1.00
C128   C     0.80847   0.15901   0.35004   0.00000  Uiso   1.00
C129   C     0.87141   0.02154   0.25946   0.00000  Uiso   1.00
C130   C     0.83250   0.04252   0.25267   0.00000  Uiso   1.00
C131   C     0.79308   0.02107   0.24757   0.00000  Uiso   1.00
C132   C     0.79326   0.31186   0.24707   0.00000  Uiso   1.00
C133   C     0.83279   0.29085   0.25210   0.00000  Uiso   1.00
C134   C     0.98381   0.13822   0.21942   0.00000  Uiso   1.00
C135   C     0.69843   0.13730   0.22022   0.00000  Uiso   1.00
C136   C     0.81890   0.12991   0.48435   0.00000  Uiso   1.00
C137   C     0.68249   0.19513   0.28023   0.00000  Uiso   1.00
C138   C     0.96793   0.19487   0.28059   0.00000  Uiso   1.00
C139   C     0.83309   0.08666   0.25071   0.00000  Uiso   1.00
C140   C     0.85912   0.16618   0.14799   0.00000  Uiso   1.00
C141   C     0.93524   0.15678   0.00369   0.00000  Uiso   1.00
C142   C     0.87419   0.16038   0.08974   0.00000  Uiso   1.00
C143   C     0.74992   0.12864   0.43100   0.00000  Uiso   1.00
C144   C     0.73864   0.11371   0.48355   0.00000  Uiso   1.00
C145   C     0.77187   0.11791   0.01163   0.00000  Uiso   1.00
C146   C     0.96811   0.11010   0.18331   0.00000  Uiso   1.00
C147   C     0.83243   0.13271   0.42810   0.00000  Uiso   1.00
C148   C     0.73087   0.10426   0.18898   0.00000  Uiso   1.00
C149   C     0.69334   0.09239   0.00887   0.00000  Uiso   1.00
C150   C     0.85330   0.13916   0.01029   0.00000  Uiso   1.00
C151   C     0.90162   0.14344   0.47934   0.00000  Uiso   1.00
C152   C     0.91546   0.13456   0.42435   0.00000  Uiso   1.00
C153   C     0.88116   0.12825   0.39904   0.00000  Uiso   1.00
C154   C     0.84039   0.14796   0.06533   0.00000  Uiso   1.00
C155   C     0.92161   0.16513   0.05879   0.00000  Uiso   1.00
H156   H     0.94799   0.17549   0.07703   0.00000  Uiso   1.00
H157   H     0.72300   0.12971   0.41086   0.00000  Uiso   1.00
H158   H     0.76156   0.10891   0.05334   0.00000  Uiso   1.00
H159   H     0.89351   0.11958   0.35680   0.00000  Uiso   1.00
H160   H     0.90208   0.29625   0.26389   0.00000  Uiso   1.00
H161   H     0.95423   0.07969   0.19672   0.00000  Uiso   1.00
H162   H     0.76805   0.10963   0.17133   0.00000  Uiso   1.00
H163   H     0.68416   0.08324   0.05053   0.00000  Uiso   1.00
H164   H     0.90157   0.03787   0.26505   0.00000  Uiso   1.00
H165   H     0.76234   0.03697   0.24352   0.00000  Uiso   1.00
H166   H     0.76274   0.29559   0.24227   0.00000  Uiso   1.00
H167   H     0.69401   0.21802   0.30443   0.00000  Uiso   1.00
H168   H     0.94335   0.21753   0.30514   0.00000  Uiso   1.00
H169   H     0.95256   0.13406   0.40060   0.00000  Uiso   1.00
H170   H     0.97190   0.16121   0.47998   0.00000  Uiso   1.00
H171   H     0.80367   0.14667   0.08940   0.00000  Uiso   1.00
N172   N     0.71426   0.16668   0.25002   0.00000  Uiso   1.00
N173   N     0.95239   0.16665   0.25001   0.00000  Uiso   1.00
O174   O     0.79512   0.22775   0.25001   0.00000  Uiso   1.00
O175   O     0.71621   0.06960   0.18284   0.00000  Uiso   1.00
O176   O     0.66690   0.08283   0.48282   0.00000  Uiso   1.00
O177   O     0.87157   0.22774   0.25001   0.00000  Uiso   1.00
O178   O     0.77613   0.16666   0.32681   0.00000  Uiso   1.00
O179   O     0.85258   0.16665   0.32681   0.00000  Uiso   1.00
O180   O     0.79510   0.10559   0.25000   0.00000  Uiso   1.00
O181   O     0.87154   0.10558   0.25000   0.00000  Uiso   1.00
O182   O     0.81409   0.16668   0.17319   0.00000  Uiso   1.00
O183   O     0.89053   0.16667   0.17319   0.00000  Uiso   1.00
O184   O     0.97272   0.12020   0.13726   0.00000  Uiso   1.00
Zn185  Zn    0.78229   0.16667   0.25000   0.00000  Uiso   1.00
Zn186  Zn    0.88438   0.16666   0.25000   0.00000  Uiso   1.00
C187   C     0.16657   0.58000   0.25057   0.00000  Uiso   1.00
C188   C     0.12995   0.47353   0.40363   0.00000  Uiso   1.00
C189   C     0.20497   0.64560   0.25898   0.00000  Uiso   1.00
C190   C     0.14181   0.49234   0.35004   0.00000  Uiso   1.00
C191   C     0.20474   0.35488   0.25946   0.00000  Uiso   1.00
C192   C     0.16584   0.37585   0.25267   0.00000  Uiso   1.00
C193   C     0.12641   0.35441   0.24757   0.00000  Uiso   1.00
C194   C     0.12660   0.64519   0.24707   0.00000  Uiso   1.00
C195   C     0.16613   0.62419   0.25210   0.00000  Uiso   1.00
C196   C     0.31714   0.47155   0.21942   0.00000  Uiso   1.00
C197   C     0.03176   0.47063   0.22022   0.00000  Uiso   1.00
C198   C     0.15223   0.46324   0.48435   0.00000  Uiso   1.00
C199   C     0.01582   0.52846   0.28023   0.00000  Uiso   1.00
C200   C     0.30126   0.52821   0.28059   0.00000  Uiso   1.00
C201   C     0.16642   0.42000   0.25071   0.00000  Uiso   1.00
C202   C     0.19245   0.49951   0.14799   0.00000  Uiso   1.00
C203   C     0.26858   0.49011   0.00369   0.00000  Uiso   1.00
C204   C     0.20753   0.49371   0.08974   0.00000  Uiso   1.00
C205   C     0.08326   0.46197   0.43100   0.00000  Uiso   1.00
C206   C     0.07198   0.44704   0.48355   0.00000  Uiso   1.00
C207   C     0.10520   0.45125   0.01163   0.00000  Uiso   1.00
C208   C     0.30144   0.44343   0.18331   0.00000  Uiso   1.00
C209   C     0.16576   0.46605   0.42810   0.00000  Uiso   1.00
C210   C     0.06420   0.43759   0.18898   0.00000  Uiso   1.00
C211   C     0.02667   0.42573   0.00887   0.00000  Uiso   1.00
C212   C     0.18664   0.47250   0.01029   0.00000  Uiso   1.00
C213   C     0.23496   0.47677   0.47934   0.00000  Uiso   1.00
C214   C     0.24879   0.46790   0.42435   0.00000  Uiso   1.00
C215   C     0.21449   0.46158   0.39904   0.00000  Uiso   1.00
C216   C     0.17372   0.48130   0.06533   0.00000  Uiso   1.00
C217   C     0.25495   0.49846   0.05879   0.00000  Uiso   1.00
H218   H     0.28133   0.50882   0.07703   0.00000  Uiso   1.00
H219   H     0.05634   0.46304   0.41086   0.00000  Uiso   1.00
H220   H     0.09489   0.44224   0.05334   0.00000  Uiso   1.00
H221   H     0.22685   0.45291   0.35680   0.00000  Uiso   1.00
H222   H     0.23541   0.62959   0.26389   0.00000  Uiso   1.00
H223   H     0.28756   0.41302   0.19672   0.00000  Uiso   1.00
H224   H     0.10138   0.44296   0.17133   0.00000  Uiso   1.00
H225   H     0.01749   0.41657   0.05053   0.00000  Uiso   1.00
H226   H     0.23490   0.37120   0.26505   0.00000  Uiso   1.00
H227   H     0.09568   0.37030   0.24352   0.00000  Uiso   1.00
H228   H     0.09607   0.62892   0.24227   0.00000  Uiso   1.00
H229   H     0.02734   0.55135   0.30443   0.00000  Uiso   1.00
H230   H     0.27669   0.55087   0.30514   0.00000  Uiso   1.00
H231   H     0.28590   0.46739   0.40060   0.00000  Uiso   1.00
H232   H     0.30523   0.49455   0.47998   0.00000  Uiso   1.00
H233   H     0.13701   0.48000   0.08940   0.00000  Uiso   1.00
N234   N     0.04760   0.50001   0.25002   0.00000  Uiso   1.00
N235   N     0.28573   0.49998   0.25001   0.00000  Uiso   1.00
O236   O     0.12846   0.56108   0.25001   0.00000  Uiso   1.00
O237   O     0.04954   0.40293   0.18284   0.00000  Uiso   1.00
O238   O     0.00023   0.41616   0.48282   0.00000  Uiso   1.00
O239   O     0.20490   0.56107   0.25001   0.00000  Uiso   1.00
O240   O     0.10947   0.50000   0.32681   0.00000  Uiso   1.00
O241   O     0.18591   0.49999   0.32681   0.00000  Uiso   1.00
O242   O     0.12843   0.43893   0.25000   0.00000  Uiso   1.00
O243   O     0.20488   0.43892   0.25000   0.00000  Uiso   1.00
O244   O     0.14742   0.50001   0.17319   0.00000  Uiso   1.00
O245   O     0.22387   0.50000   0.17319   0.00000  Uiso   1.00
O246   O     0.30606   0.45353   0.13726   0.00000  Uiso   1.00
Zn247  Zn    0.11562   0.50001   0.25000   0.00000  Uiso   1.00
Zn248  Zn    0.21771   0.49999   0.25000   0.00000  Uiso   1.00
C249   C     0.49990   0.58000   0.25057   0.00000  Uiso   1.00
C250   C     0.46329   0.47353   0.40363   0.00000  Uiso   1.00
C251   C     0.53830   0.64560   0.25898   0.00000  Uiso   1.00
C252   C     0.47514   0.49234   0.35004   0.00000  Uiso   1.00
C253   C     0.53807   0.35488   0.25946   0.00000  Uiso   1.00
C254   C     0.49917   0.37585   0.25267   0.00000  Uiso   1.00
C255   C     0.45974   0.35441   0.24757   0.00000  Uiso   1.00
C256   C     0.45993   0.64519   0.24707   0.00000  Uiso   1.00
C257   C     0.49946   0.62419   0.25210   0.00000  Uiso   1.00
C258   C     0.65048   0.47155   0.21942   0.00000  Uiso   1.00
C259   C     0.36509   0.47063   0.22022   0.00000  Uiso   1.00
C260   C     0.48556   0.46324   0.48435   0.00000  Uiso   1.00
C261   C     0.34915   0.52846   0.28023   0.00000  Uiso   1.00
C262   C     0.63459   0.52821   0.28059   0.00000  Uiso   1.00
C263   C     0.49975   0.42000   0.25071   0.00000  Uiso   1.00
C264   C     0.52579   0.49951   0.14799   0.00000  Uiso   1.00
C265   C     0.60191   0.49011   0.00369   0.00000  Uiso   1.00
C266   C     0.54086   0.49371   0.08974   0.00000  Uiso   1.00
C267   C     0.41659   0.46197   0.43100   0.00000  Uiso   1.00
C268   C     0.40531   0.44704   0.48355   0.00000  Uiso   1.00
C269   C     0.43854   0.45125   0.01163   0.00000  Uiso   1.00
C270   C     0.63478   0.44343   0.18331   0.00000  Uiso   1.00
C271   C     0.49910   0.46605   0.42810   0.00000  Uiso   1.00
C272   C     0.39754   0.43759   0.18898   0.00000  Uiso   1.00
C273   C     0.36000   0.42573   0.00887   0.00000  Uiso   1.00
C274   C     0.51997   0.47250   0.01029   0.00000  Uiso   1.00
C275   C     0.56829   0.47677   0.47934   0.00000  Uiso   1.00
C276   C     0.58213   0.46790   0.42435   0.00000  Uiso   1.00
C277   C     0.54783   0.46158   0.39904   0.00000  Uiso   1.00
C278   C     0.50706   0.48130   0.06533   0.00000  Uiso   1.00
C279   C     0.58828   0.49846   0.05879   0.00000  Uiso   1.00
H280   H     0.61466   0.50882   0.07703   0.00000  Uiso   1.00
H281   H     0.38967   0.46304   0.41086   0.00000  Uiso   1.00
H282   H     0.42822   0.44224   0.05334   0.00000  Uiso   1.00
H283   H     0.56018   0.45291   0.35680   0.00000  Uiso   1.00
H284   H     0.56874   0.62959   0.26389   0.00000  Uiso   1.00
H285   H     0.62089   0.41302   0.19672   0.00000  Uiso   1.00
H286   H     0.43472   0.44296   0.17133   0.00000  Uiso   1.00
H287   H     0.35083   0.41657   0.05053   0.00000  Uiso   1.00
H288   H     0.56824   0.37120   0.26505   0.00000  Uiso   1.00
H289   H     0.42901   0.37030   0.24352   0.00000  Uiso   1.00
H290   H     0.42940   0.62892   0.24227   0.00000  Uiso   1.00
H291   H     0.36067   0.55135   0.30443   0.00000  Uiso   1.00
H292   H     0.61002   0.55087   0.30514   0.00000  Uiso   1.00
H293   H     0.61923   0.46739   0.40060   0.00000  Uiso   1.00
H294   H     0.63856   0.49455   0.47998   0.00000  Uiso   1.00
H295   H     0.47034   0.48000   0.08940   0.00000  Uiso   1.00
N296   N     0.38093   0.50001   0.25002   0.00000  Uiso   1.00
N297   N     0.61906   0.49998   0.25001   0.00000  Uiso   1.00
O298   O     0.46179   0.56108   0.25001   0.00000  Uiso   1.00
O299   O     0.38288   0.40293   0.18284   0.00000  Uiso   1.00
O300   O     0.33356   0.41616   0.48282   0.00000  Uiso   1.00
O301   O     0.53823   0.56107   0.25001   0.00000  Uiso   1.00
O302   O     0.44280   0.50000   0.32681   0.00000  Uiso   1.00
O303   O     0.51924   0.49999   0.32681   0.00000  Uiso   1.00
O304   O     0.46177   0.43893   0.25000   0.00000  Uiso   1.00
O305   O     0.53821   0.43892   0.25000   0.00000  Uiso   1.00
O306   O     0.48076   0.50001   0.17319   0.00000  Uiso   1.00
O307   O     0.55720   0.50000   0.17319   0.00000  Uiso   1.00
O308   O     0.63939   0.45353   0.13726   0.00000  Uiso   1.00
Zn309  Zn    0.44896   0.50001   0.25000   0.00000  Uiso   1.00
Zn310  Zn    0.55104   0.49999   0.25000   0.00000  Uiso   1.00
C311   C     0.83324   0.58000   0.25057   0.00000  Uiso   1.00
C312   C     0.79662   0.47353   0.40363   0.00000  Uiso   1.00
C313   C     0.87163   0.64560   0.25898   0.00000  Uiso   1.00
C314   C     0.80847   0.49234   0.35004   0.00000  Uiso   1.00
C315   C     0.87141   0.35488   0.25946   0.00000  Uiso   1.00
C316   C     0.83250   0.37585   0.25267   0.00000  Uiso   1.00
C317   C     0.79308   0.35441   0.24757   0.00000  Uiso   1.00
C318   C     0.79326   0.64519   0.24707   0.00000  Uiso   1.00
C319   C     0.83279   0.62419   0.25210   0.00000  Uiso   1.00
C320   C     0.98381   0.47155   0.21942   0.00000  Uiso   1.00
C321   C     0.69843   0.47063   0.22022   0.00000  Uiso   1.00
C322   C     0.81890   0.46324   0.48435   0.00000  Uiso   1.00
C323   C     0.68249   0.52846   0.28023   0.00000  Uiso   1.00
C324   C     0.96793   0.52821   0.28059   0.00000  Uiso   1.00
C325   C     0.83309   0.42000   0.25071   0.00000  Uiso   1.00
C326   C     0.85912   0.49951   0.14799   0.00000  Uiso   1.00
C327   C     0.93524   0.49011   0.00369   0.00000  Uiso   1.00
C328   C     0.87419   0.49371   0.08974   0.00000  Uiso   1.00
C329   C     0.74992   0.46197   0.43100   0.00000  Uiso   1.00
C330   C     0.73864   0.44704   0.48355   0.00000  Uiso   1.00
C331   C     0.77187   0.45125   0.01163   0.00000  Uiso   1.00
C332   C     0.96811   0.44343   0.18331   0.00000  Uiso   1.00
C333   C     0.83243   0.46605   0.42810   0.00000  Uiso   1.00
C334   C     0.73087   0.43759   0.18898   0.00000  Uiso   1.00
C335   C     0.69334   0.42573   0.00887   0.00000  Uiso   1.00
C336   C     0.85330   0.47250   0.01029   0.00000  Uiso   1.00
C337   C     0.90162   0.47677   0.47934   0.00000  Uiso   1.00
C338   C     0.91546   0.46790   0.42435   0.00000  Uiso   1.00
C339   C     0.88116   0.46158   0.39904   0.00000  Uiso   1.00
C340   C     0.84039   0.48130   0.06533   0.00000  Uiso   1.00
C341   C     0.92161   0.49846   0.05879   0.00000  Uiso   1.00
H342   H     0.94799   0.50882   0.07703   0.00000  Uiso   1.00
H343   H     0.72300   0.46304   0.41086   0.00000  Uiso   1.00
H344   H     0.76156   0.44224   0.05334   0.00000  Uiso   1.00
H345   H     0.89351   0.45291   0.35680   0.00000  Uiso   1.00
H346   H     0.90208   0.62959   0.26389   0.00000  Uiso   1.00
H347   H     0.95423   0.41302   0.19672   0.00000  Uiso   1.00
H348   H     0.76805   0.44296   0.17133   0.00000  Uiso   1.00
H349   H     0.68416   0.41657   0.05053   0.00000  Uiso   1.00
H350   H     0.90157   0.37120   0.26505   0.00000  Uiso   1.00
H351   H     0.76234   0.37030   0.24352   0.00000  Uiso   1.00
H352   H     0.76274   0.62892   0.24227   0.00000  Uiso   1.00
H353   H     0.69401   0.55135   0.30443   0.00000  Uiso   1.00
H354   H     0.94335   0.55087   0.30514   0.00000  Uiso   1.00
H355   H     0.95256   0.46739   0.40060   0.00000  Uiso   1.00
H356   H     0.97190   0.49455   0.47998   0.00000  Uiso   1.00
H357   H     0.80367   0.48000   0.08940   0.00000  Uiso   1.00
N358   N     0.71426   0.50001   0.25002   0.00000  Uiso   1.00
N359   N     0.95239   0.49998   0.25001   0.00000  Uiso   1.00
O360   O     0.79512   0.56108   0.25001   0.00000  Uiso   1.00
O361   O     0.71621   0.40293   0.18284   0.00000  Uiso   1.00
O362   O     0.66690   0.41616   0.48282   0.00000  Uiso   1.00
O363   O     0.87157   0.56107   0.25001   0.00000  Uiso   1.00
O364   O     0.77613   0.50000   0.32681   0.00000  Uiso   1.00
O365   O     0.85258   0.49999   0.32681   0.00000  Uiso   1.00
O366   O     0.79510   0.43893   0.25000   0.00000  Uiso   1.00
O367   O     0.87154   0.43892   0.25000   0.00000  Uiso   1.00
O368   O     0.81409   0.50001   0.17319   0.00000  Uiso   1.00
O369   O     0.89053   0.50000   0.17319   0.00000  Uiso   1.00
O370   O     0.97272   0.45353   0.13726   0.00000  Uiso   1.00
Zn371  Zn    0.78229   0.50001   0.25000   0.00000  Uiso   1.00
Zn372  Zn    0.88438   0.49999   0.25000   0.00000  Uiso   1.00
C373   C     0.16657   0.91333   0.25057   0.00000  Uiso   1.00
C374   C     0.12995   0.80687   0.40363   0.00000  Uiso   1.00
C375   C     0.20497   0.97893   0.25898   0.00000  Uiso   1.00
C376   C     0.14181   0.82567   0.35004   0.00000  Uiso   1.00
C377   C     0.20474   0.68821   0.25946   0.00000  Uiso   1.00
C378   C     0.16584   0.70918   0.25267   0.00000  Uiso   1.00
C379   C     0.12641   0.68774   0.24757   0.00000  Uiso   1.00
C380   C     0.12660   0.97853   0.24707   0.00000  Uiso   1.00
C381   C     0.16613   0.95752   0.25210   0.00000  Uiso   1.00
C382   C     0.31714   0.80489   0.21942   0.00000  Uiso   1.00
C383   C     0.03176   0.80396   0.22022   0.00000  Uiso   1.00
C384   C     0.15223   0.79658   0.48435   0.00000  Uiso   1.00
C385   C     0.01582   0.86180   0.28023   0.00000  Uiso   1.00
C386   C     0.30126   0.86154   0.28059   0.00000  Uiso   1.00
C387   C     0.16642   0.75333   0.25071   0.00000  Uiso   1.00
C388   C     0.19245   0.83285   0.14799   0.00000  Uiso   1.00
C389   C     0.26858   0.82345   0.00369   0.00000  Uiso   1.00
C390   C     0.20753   0.82704   0.08974   0.00000  Uiso   1.00
C391   C     0.08326   0.79530   0.43100   0.00000  Uiso   1.00
C392   C     0.07198   0.78037   0.48355   0.00000  Uiso   1.00
C393   C     0.10520   0.78458   0.01163   0.00000  Uiso   1.00
C394   C     0.30144   0.77677   0.18331   0.00000  Uiso   1.00
C395   C     0.16576   0.79938   0.42810   0.00000  Uiso   1.00
C396   C     0.06420   0.77092   0.18898   0.00000  Uiso   1.00
C397   C     0.02667   0.75906   0.00887   0.00000  Uiso   1.00
C398   C     0.18664   0.80583   0.01029   0.00000  Uiso   1.00
C399   C     0.23496   0.81011   0.47934   0.00000  Uiso   1.00
C400   C     0.24879   0.80123   0.42435   0.00000  Uiso   1.00
C401   C     0.21449   0.79492   0.39904   0.00000  Uiso   1.00
C402   C     0.17372   0.81463   0.06533   0.00000  Uiso   1.00
C403   C     0.25495   0.83180   0.05879   0.00000  Uiso   1.00
H404   H     0.28133   0.84216   0.07703   0.00000  Uiso   1.00
H405   H     0.05634   0.79638   0.41086   0.00000  Uiso   1.00
H406   H     0.09489   0.77557   0.05334   0.00000  Uiso   1.00
H407   H     0.22685   0.78625   0.35680   0.00000  Uiso   1.00
H408   H     0.23541   0.96292   0.26389   0.00000  Uiso   1.00
H409   H     0.28756   0.74635   0.19672   0.00000  Uiso   1.00
H410   H     0.10138   0.77629   0.17133   0.00000  Uiso   1.00
H411   H     0.01749   0.74991   0.05053   0.00000  Uiso   1.00
H412   H     0.23490   0.70453   0.26505   0.00000  Uiso   1.00
H413   H     0.09568   0.70363   0.24352   0.00000  Uiso   1.00
H414   H     0.09607   0.96225   0.24227   0.00000  Uiso   1.00
H415   H     0.02734   0.88468   0.30443   0.00000  Uiso   1.00
H416   H     0.27669   0.88420   0.30514   0.00000  Uiso   1.00
H417   H     0.28590   0.80072   0.40060   0.00000  Uiso   1.00
H418   H     0.30523   0.82788   0.47998   0.00000  Uiso   1.00
H419   H     0.13701   0.81333   0.08940   0.00000  Uiso   1.00
N420   N     0.04760   0.83334   0.25002   0.00000  Uiso   1.00
N421   N     0.28573   0.83331   0.25001   0.00000  Uiso   1.00
O422   O     0.12846   0.89442   0.25001   0.00000  Uiso   1.00
O423   O     0.04954   0.73626   0.18284   0.00000  Uiso   1.00
O424   O     0.00023   0.74949   0.48282   0.00000  Uiso   1.00
O425   O     0.20490   0.89441   0.25001   0.00000  Uiso   1.00
O426   O     0.10947   0.83333   0.32681   0.00000  Uiso   1.00
O427   O     0.18591   0.83332   0.32681   0.00000  Uiso   1.00
O428   O     0.12843   0.77226   0.25000   0.00000  Uiso   1.00
O429   O     0.20488   0.77225   0.25000   0.00000  Uiso   1.00
O430   O     0.14742   0.83335   0.17319   0.00000  Uiso   1.00
O431   O     0.22387   0.83334   0.17319   0.00000  Uiso   1.00
O432   O     0.30606   0.78687   0.13726   0.00000  Uiso   1.00
Zn433  Zn    0.11562   0.83334   0.25000   0.00000  Uiso   1.00
Zn434  Zn    0.21771   0.83333   0.25000   0.00000  Uiso   1.00
C435   C     0.49990   0.91333   0.25057   0.00000  Uiso   1.00
C436   C     0.46329   0.80687   0.40363   0.00000  Uiso   1.00
C437   C     0.53830   0.97893   0.25898   0.00000  Uiso   1.00
C438   C     0.47514   0.82567   0.35004   0.00000  Uiso   1.00
C439   C     0.53807   0.68821   0.25946   0.00000  Uiso   1.00
C440   C     0.49917   0.70918   0.25267   0.00000  Uiso   1.00
C441   C     0.45974   0.68774   0.24757   0.00000  Uiso   1.00
C442   C     0.45993   0.97853   0.24707   0.00000  Uiso   1.00
C443   C     0.49946   0.95752   0.25210   0.00000  Uiso   1.00
C444   C     0.65048   0.80489   0.21942   0.00000  Uiso   1.00
C445   C     0.36509   0.80396   0.22022   0.00000  Uiso   1.00
C446   C     0.48556   0.79658   0.48435   0.00000  Uiso   1.00
C447   C     0.34915   0.86180   0.28023   0.00000  Uiso   1.00
C448   C     0.63459   0.86154   0.28059   0.00000  Uiso   1.00
C449   C     0.49975   0.75333   0.25071   0.00000  Uiso   1.00
C450   C     0.52579   0.83285   0.14799   0.00000  Uiso   1.00
C451   C     0.60191   0.82345   0.00369   0.00000  Uiso   1.00
C452   C     0.54086   0.82704   0.08974   0.00000  Uiso   1.00
C453   C     0.41659   0.79530   0.43100   0.00000  Uiso   1.00
C454   C     0.40531   0.78037   0.48355   0.00000  Uiso   1.00
C455   C     0.43854   0.78458   0.01163   0.00000  Uiso   1.00
C456   C     0.63478   0.77677   0.18331   0.00000  Uiso   1.00
C457   C     0.49910   0.79938   0.42810   0.00000  Uiso   1.00
C458   C     0.39754   0.77092   0.18898   0.00000  Uiso   1.00
C459   C     0.36000   0.75906   0.00887   0.00000  Uiso   1.00
C460   C     0.51997   0.80583   0.01029   0.00000  Uiso   1.00
C461   C     0.56829   0.81011   0.47934   0.00000  Uiso   1.00
C462   C     0.58213   0.80123   0.42435   0.00000  Uiso   1.00
C463   C     0.54783   0.79492   0.39904   0.00000  Uiso   1.00
C464   C     0.50706   0.81463   0.06533   0.00000  Uiso   1.00
C465   C     0.58828   0.83180   0.05879   0.00000  Uiso   1.00
H466   H     0.61466   0.84216   0.07703   0.00000  Uiso   1.00
H467   H     0.38967   0.79638   0.41086   0.00000  Uiso   1.00
H468   H     0.42822   0.77557   0.05334   0.00000  Uiso   1.00
H469   H     0.56018   0.78625   0.35680   0.00000  Uiso   1.00
H470   H     0.56874   0.96292   0.26389   0.00000  Uiso   1.00
H471   H     0.62089   0.74635   0.19672   0.00000  Uiso   1.00
H472   H     0.43472   0.77629   0.17133   0.00000  Uiso   1.00
H473   H     0.35083   0.74991   0.05053   0.00000  Uiso   1.00
H474   H     0.56824   0.70453   0.26505   0.00000  Uiso   1.00
H475   H     0.42901   0.70363   0.24352   0.00000  Uiso   1.00
H476   H     0.42940   0.96225   0.24227   0.00000  Uiso   1.00
H477   H     0.36067   0.88468   0.30443   0.00000  Uiso   1.00
H478   H     0.61002   0.88420   0.30514   0.00000  Uiso   1.00
H479   H     0.61923   0.80072   0.40060   0.00000  Uiso   1.00
H480   H     0.63856   0.82788   0.47998   0.00000  Uiso   1.00
H481   H     0.47034   0.81333   0.08940   0.00000  Uiso   1.00
N482   N     0.38093   0.83334   0.25002   0.00000  Uiso   1.00
N483   N     0.61906   0.83331   0.25001   0.00000  Uiso   1.00
O484   O     0.46179   0.89442   0.25001   0.00000  Uiso   1.00
O485   O     0.38288   0.73626   0.18284   0.00000  Uiso   1.00
O486   O     0.33356   0.74949   0.48282   0.00000  Uiso   1.00
O487   O     0.53823   0.89441   0.25001   0.00000  Uiso   1.00
O488   O     0.44280   0.83333   0.32681   0.00000  Uiso   1.00
O489   O     0.51924   0.83332   0.32681   0.00000  Uiso   1.00
O490   O     0.46177   0.77226   0.25000   0.00000  Uiso   1.00
O491   O     0.53821   0.77225   0.25000   0.00000  Uiso   1.00
O492   O     0.48076   0.83335   0.17319   0.00000  Uiso   1.00
O493   O     0.55720   0.83334   0.17319   0.00000  Uiso   1.00
O494   O     0.63939   0.78687   0.13726   0.00000  Uiso   1.00
Zn495  Zn    0.44896   0.83334   0.25000   0.00000  Uiso   1.00
Zn496  Zn    0.55104   0.83333   0.25000   0.00000  Uiso   1.00
C497   C     0.83324   0.91333   0.25057   0.00000  Uiso   1.00
C498   C     0.79662   0.80687   0.40363   0.00000  Uiso   1.00
C499   C     0.87163   0.97893   0.25898   0.00000  Uiso   1.00
C500   C     0.80847   0.82567   0.35004   0.00000  Uiso   1.00
C501   C     0.87141   0.68821   0.25946   0.00000  Uiso   1.00
C502   C     0.83250   0.70918   0.25267   0.00000  Uiso   1.00
C503   C     0.79308   0.68774   0.24757   0.00000  Uiso   1.00
C504   C     0.79326   0.97853   0.24707   0.00000  Uiso   1.00
C505   C     0.83279   0.95752   0.25210   0.00000  Uiso   1.00
C506   C     0.98381   0.80489   0.21942   0.00000  Uiso   1.00
C507   C     0.69843   0.80396   0.22022   0.00000  Uiso   1.00
C508   C     0.81890   0.79658   0.48435   0.00000  Uiso   1.00
C509   C     0.68249   0.86180   0.28023   0.00000  Uiso   1.00
C510   C     0.96793   0.86154   0.28059   0.00000  Uiso   1.00
C511   C     0.83309   0.75333   0.25071   0.00000  Uiso   1.00
C512   C     0.85912   0.83285   0.14799   0.00000  Uiso   1.00
C513   C     0.93524   0.82345   0.00369   0.00000  Uiso   1.00
C514   C     0.87419   0.82704   0.08974   0.00000  Uiso   1.00
C515   C     0.74992   0.79530   0.43100   0.00000  Uiso   1.00
C516   C     0.73864   0.78037   0.48355   0.00000  Uiso   1.00
C517   C     0.77187   0.78458   0.01163   0.00000  Uiso   1.00
C518   C     0.96811   0.77677   0.18331   0.00000  Uiso   1.00
C519   C     0.83243   0.79938   0.42810   0.00000  Uiso   1.00
C520   C     0.73087   0.77092   0.18898   0.00000  Uiso   1.00
C521   C     0.69334   0.75906   0.00887   0.00000  Uiso   1.00
C522   C     0.85330   0.80583   0.01029   0.00000  Uiso   1.00
C523   C     0.90162   0.81011   0.47934   0.00000  Uiso   1.00
C524   C     0.91546   0.80123   0.42435   0.00000  Uiso   1.00
C525   C     0.88116   0.79492   0.39904   0.00000  Uiso   1.00
C526   C     0.84039   0.81463   0.06533   0.00000  Uiso   1.00
C527   C     0.92161   0.83180   0.05879   0.00000  Uiso   1.00
H528   H     0.94799   0.84216   0.07703   0.00000  Uiso   1.00
H529   H     0.72300   0.79638   0.41086   0.00000  Uiso   1.00
H530   H     0.76156   0.77557   0.05334   0.00000  Uiso   1.00
H531   H     0.89351   0.78625   0.35680   0.00000  Uiso   1.00
H532   H     0.90208   0.96292   0.26389   0.00000  Uiso   1.00
H533   H     0.95423   0.74635   0.19672   0.00000  Uiso   1.00
H534   H     0.76805   0.77629   0.17133   0.00000  Uiso   1.00
H535   H     0.68416   0.74991   0.05053   0.00000  Uiso   1.00
H536   H     0.90157   0.70453   0.26505   0.00000  Uiso   1.00
H537   H     0.76234   0.70363   0.24352   0.00000  Uiso   1.00
H538   H     0.76274   0.96225   0.24227   0.00000  Uiso   1.00
H539   H     0.69401   0.88468   0.30443   0.00000  Uiso   1.00
H540   H     0.94335   0.88420   0.30514   0.00000  Uiso   1.00
H541   H     0.95256   0.80072   0.40060   0.00000  Uiso   1.00
H542   H     0.97190   0.82788   0.47998   0.00000  Uiso   1.00
H543   H     0.80367   0.81333   0.08940   0.00000  Uiso   1.00
N544   N     0.71426   0.83334   0.25002   0.00000  Uiso   1.00
N545   N     0.95239   0.83331   0.25001   0.00000  Uiso   1.00
O546   O     0.79512   0.89442   0.25001   0.00000  Uiso   1.00
O547   O     0.71621   0.73626   0.18284   0.00000  Uiso   1.00
O548   O     0.66690   0.74949   0.48282   0.00000  Uiso   1.00
O549   O     0.87157   0.89441   0.25001   0.00000  Uiso   1.00
O550   O     0.77613   0.83333   0.32681   0.00000  Uiso   1.00
O551   O     0.85258   0.83332   0.32681   0.00000  Uiso   1.00
O552   O     0.79510   0.77226   0.25000   0.00000  Uiso   1.00
O553   O     0.87154   0.77225   0.25000   0.00000  Uiso   1.00
O554   O     0.81409   0.83335   0.17319   0.00000  Uiso   1.00
O555   O     0.89053   0.83334   0.17319   0.00000  Uiso   1.00
O556   O     0.97272   0.78687   0.13726   0.00000  Uiso   1.00
Zn557  Zn    0.78229   0.83334   0.25000   0.00000  Uiso   1.00
Zn558  Zn    0.88438   0.83333   0.25000   0.00000  Uiso   1.00
C559   C     0.16657   0.24667   0.75057   0.00000  Uiso   1.00
C560   C     0.12995   0.14020   0.90363   0.00000  Uiso   1.00
C561   C     0.20497   0.31227   0.75898   0.00000  Uiso   1.00
C562   C     0.14181   0.15901   0.85004   0.00000  Uiso   1.00
C563   C     0.20474   0.02154   0.75946   0.00000  Uiso   1.00
C564   C     0.16584   0.04252   0.75267   0.00000  Uiso   1.00
C565   C     0.12641   0.02107   0.74757   0.00000  Uiso   1.00
C566   C     0.12660   0.31186   0.74707   0.00000  Uiso   1.00
C567   C     0.16613   0.29085   0.75210   0.00000  Uiso   1.00
C568   C     0.31714   0.13822   0.71942   0.00000  Uiso   1.00
C569   C     0.03176   0.13730   0.72022   0.00000  Uiso   1.00
C570   C     0.15223   0.12991   0.98435   0.00000  Uiso   1.00
C571   C     0.01582   0.19513   0.78023   0.00000  Uiso   1.00
C572   C     0.30126   0.19487   0.78059   0.00000  Uiso   1.00
C573   C     0.16642   0.08666   0.75071   0.00000  Uiso   1.00
C574   C     0.19245   0.16618   0.64799   0.00000  Uiso   1.00
C575   C     0.26858   0.15678   0.50369   0.00000  Uiso   1.00
C576   C     0.20753   0.16038   0.58974   0.00000  Uiso   1.00
C577   C     0.08326   0.12864   0.93100   0.00000  Uiso   1.00
C578   C     0.07198   0.11371   0.98355   0.00000  Uiso   1.00
C579   C     0.10520   0.11791   0.51163   0.00000  Uiso   1.00
C580   C     0.30144   0.11010   0.68331   0.00000  Uiso   1.00
C581   C     0.16576   0.13271   0.92810   0.00000  Uiso   1.00
C582   C     0.06420   0.10426   0.68898   0.00000  Uiso   1.00
C583   C     0.02667   0.09239   0.50887   0.00000  Uiso   1.00
C584   C     0.18664   0.13916   0.51029   0.00000  Uiso   1.00
C585   C     0.23496   0.14344   0.97934   0.00000  Uiso   1.00
C586   C     0.24879   0.13456   0.92435   0.00000  Uiso   1.00
C587   C     0.21449   0.12825   0.89904   0.00000  Uiso   1.00
C588   C     0.17372   0.14796   0.56533   0.00000  Uiso   1.00
C589   C     0.25495   0.16513   0.55879   0.00000  Uiso   1.00
H590   H     0.28133   0.17549   0.57703   0.00000  Uiso   1.00
H591   H     0.05634   0.12971   0.91086   0.00000  Uiso   1.00
H592   H     0.09489   0.10891   0.55334   0.00000  Uiso   1.00
H593   H     0.22685   0.11958   0.85680   0.00000  Uiso   1.00
H594   H     0.23541   0.29625   0.76389   0.00000  Uiso   1.00
H595   H     0.28756   0.07969   0.69672   0.00000  Uiso   1.00
H596   H     0.10138   0.10963   0.67133   0.00000  Uiso   1.00
H597   H     0.01749   0.08324   0.55053   0.00000  Uiso   1.00
H598   H     0.23490   0.03787   0.76505   0.00000  Uiso   1.00
H599   H     0.09568   0.03697   0.74352   0.00000  Uiso   1.00
H600   H     0.09607   0.29559   0.74227   0.00000  Uiso   1.00
H601   H     0.02734   0.21802   0.80443   0.00000  Uiso   1.00
H602   H     0.27669   0.21753   0.80514   0.00000  Uiso   1.00
H603   H     0.28590   0.13406   0.90060   0.00000  Uiso   1.00
H604   H     0.30523   0.16121   0.97998   0.00000  Uiso   1.00
H605   H     0.13701   0.14667   0.58940   0.00000  Uiso   1.00
N606   N     0.04760   0.16668   0.75002   0.00000  Uiso   1.00
N607   N     0.28573   0.16665   0.75001   0.00000  Uiso   1.00
O608   O     0.12846   0.22775   0.75001   0.00000  Uiso   1.00
O609   O     0.04954   0.06960   0.68284   0.00000  Uiso   1.00
O610   O     0.00023   0.08283   0.98282   0.00000  Uiso   1.00
O611   O     0.20490   0.22774   0.75001   0.00000  Uiso   1.00
O612   O     0.10947   0.16666   0.82681   0.00000  Uiso   1.00
O613   O     0.18591   0.16665   0.82681   0.00000  Uiso   1.00
O614   O     0.12843   0.10559   0.75000   0.00000  Uiso   1.00
O615   O     0.20488   0.10558   0.75000   0.00000  Uiso   1.00
O616   O     0.14742   0.16668   0.67319   0.00000  Uiso   1.00
O617   O     0.22387   0.16667   0.67319   0.00000  Uiso   1.00
O618   O     0.30606   0.12020   0.63726   0.00000  Uiso   1.00
Zn619  Zn    0.11562   0.16667   0.75000   0.00000  Uiso   1.00
Zn620  Zn    0.21771   0.16666   0.75000   0.00000  Uiso   1.00
C621   C     0.49990   0.24667   0.75057   0.00000  Uiso   1.00
C622   C     0.46329   0.14020   0.90363   0.00000  Uiso   1.00
C623   C     0.53830   0.31227   0.75898   0.00000  Uiso   1.00
C624   C     0.47514   0.15901   0.85004   0.00000  Uiso   1.00
C625   C     0.53807   0.02154   0.75946   0.00000  Uiso   1.00
C626   C     0.49917   0.04252   0.75267   0.00000  Uiso   1.00
C627   C     0.45974   0.02107   0.74757   0.00000  Uiso   1.00
C628   C     0.45993   0.31186   0.74707   0.00000  Uiso   1.00
C629   C     0.49946   0.29085   0.75210   0.00000  Uiso   1.00
C630   C     0.65048   0.13822   0.71942   0.00000  Uiso   1.00
C631   C     0.36509   0.13730   0.72022   0.00000  Uiso   1.00
C632   C     0.48556   0.12991   0.98435   0.00000  Uiso   1.00
C633   C     0.34915   0.19513   0.78023   0.00000  Uiso   1.00
C634   C     0.63459   0.19487   0.78059   0.00000  Uiso   1.00
C635   C     0.49975   0.08666   0.75071   0.00000  Uiso   1.00
C636   C     0.52579   0.16618   0.64799   0.00000  Uiso   1.00
C637   C     0.60191   0.15678   0.50369   0.00000  Uiso   1.00
C638   C     0.54086   0.16038   0.58974   0.00000  Uiso   1.00
C639   C     0.41659   0.12864   0.93100   0.00000  Uiso   1.00
C640   C     0.40531   0.11371   0.98355   0.00000  Uiso   1.00
C641   C     0.43854   0.11791   0.51163   0.00000  Uiso   1.00
C642   C     0.63478   0.11010   0.68331   0.00000  Uiso   1.00
C643   C     0.49910   0.13271   0.92810   0.00000  Uiso   1.00
C644   C     0.39754   0.10426   0.68898   0.00000  Uiso   1.00
C645   C     0.36000   0.09239   0.50887   0.00000  Uiso   1.00
C646   C     0.51997   0.13916   0.51029   0.00000  Uiso   1.00
C647   C     0.56829   0.14344   0.97934   0.00000  Uiso   1.00
C648   C     0.58213   0.13456   0.92435   0.00000  Uiso   1.00
C649   C     0.54783   0.12825   0.89904   0.00000  Uiso   1.00
C650   C     0.50706   0.14796   0.56533   0.00000  Uiso   1.00
C651   C     0.58828   0.16513   0.55879   0.00000  Uiso   1.00
H652   H     0.61466   0.17549   0.57703   0.00000  Uiso   1.00
H653   H     0.38967   0.12971   0.91086   0.00000  Uiso   1.00
H654   H     0.42822   0.10891   0.55334   0.00000  Uiso   1.00
H655   H     0.56018   0.11958   0.85680   0.00000  Uiso   1.00
H656   H     0.56874   0.29625   0.76389   0.00000  Uiso   1.00
H657   H     0.62089   0.07969   0.69672   0.00000  Uiso   1.00
H658   H     0.43472   0.10963   0.67133   0.00000  Uiso   1.00
H659   H     0.35083   0.08324   0.55053   0.00000  Uiso   1.00
H660   H     0.56824   0.03787   0.76505   0.00000  Uiso   1.00
H661   H     0.42901   0.03697   0.74352   0.00000  Uiso   1.00
H662   H     0.42940   0.29559   0.74227   0.00000  Uiso   1.00
H663   H     0.36067   0.21802   0.80443   0.00000  Uiso   1.00
H664   H     0.61002   0.21753   0.80514   0.00000  Uiso   1.00
H665   H     0.61923   0.13406   0.90060   0.00000  Uiso   1.00
H666   H     0.63856   0.16121   0.97998   0.00000  Uiso   1.00
H667   H     0.47034   0.14667   0.58940   0.00000  Uiso   1.00
N668   N     0.38093   0.16668   0.75002   0.00000  Uiso   1.00
N669   N     0.61906   0.16665   0.75001   0.00000  Uiso   1.00
O670   O     0.46179   0.22775   0.75001   0.00000  Uiso   1.00
O671   O     0.38288   0.06960   0.68284   0.00000  Uiso   1.00
O672   O     0.33356   0.08283   0.98282   0.00000  Uiso   1.00
O673   O     0.53823   0.22774   0.75001   0.00000  Uiso   1.00
O674   O     0.44280   0.16666   0.82681   0.00000  Uiso   1.00
O675   O     0.51924   0.16665   0.82681   0.00000  Uiso   1.00
O676   O     0.46177   0.10559   0.75000   0.00000  Uiso   1.00
O677   O     0.53821   0.10558   0.75000   0.00000  Uiso   1.00
O678   O     0.48076   0.16668   0.67319   0.00000  Uiso   1.00
O679   O     0.55720   0.16667   0.67319   0.00000  Uiso   1.00
O680   O     0.63939   0.12020   0.63726   0.00000  Uiso   1.00
Zn681  Zn    0.44896   0.16667   0.75000   0.00000  Uiso   1.00
Zn682  Zn    0.55104   0.16666   0.75000   0.00000  Uiso   1.00
C683   C     0.83324   0.24667   0.75057   0.00000  Uiso   1.00
C684   C     0.79662   0.14020   0.90363   0.00000  Uiso   1.00
C685   C     0.87163   0.31227   0.75898   0.00000  Uiso   1.00
C686   C     0.80847   0.15901   0.85004   0.00000  Uiso   1.00
C687   C     0.87141   0.02154   0.75946   0.00000  Uiso   1.00
C688   C     0.83250   0.04252   0.75267   0.00000  Uiso   1.00
C689   C     0.79308   0.02107   0.74757   0.00000  Uiso   1.00
C690   C     0.79326   0.31186   0.74707   0.00000  Uiso   1.00
C691   C     0.83279   0.29085   0.75210   0.00000  Uiso   1.00
C692   C     0.98381   0.13822   0.71942   0.00000  Uiso   1.00
C693   C     0.69843   0.13730   0.72022   0.00000  Uiso   1.00
C694   C     0.81890   0.12991   0.98435   0.00000  Uiso   1.00
C695   C     0.68249   0.19513   0.78023   0.00000  Uiso   1.00
C696   C     0.96793   0.19487   0.78059   0.00000  Uiso   1.00
C697   C     0.83309   0.08666   0.75071   0.00000  Uiso   1.00
C698   C     0.85912   0.16618   0.64799   0.00000  Uiso   1.00
C699   C     0.93524   0.15678   0.50369   0.00000  Uiso   1.00
C700   C     0.87419   0.16038   0.58974   0.00000  Uiso   1.00
C701   C     0.74992   0.12864   0.93100   0.00000  Uiso   1.00
C702   C     0.73864   0.11371   0.98355   0.00000  Uiso   1.00
C703   C     0.77187   0.11791   0.51163   0.00000  Uiso   1.00
C704   C     0.96811   0.11010   0.68331   0.00000  Uiso   1.00
C705   C     0.83243   0.13271   0.92810   0.00000  Uiso   1.00
C706   C     0.73087   0.10426   0.68898   0.00000  Uiso   1.00
C707   C     0.69334   0.09239   0.50887   0.00000  Uiso   1.00
C708   C     0.85330   0.13916   0.51029   0.00000  Uiso   1.00
C709   C     0.90162   0.14344   0.97934   0.00000  Uiso   1.00
C710   C     0.91546   0.13456   0.92435   0.00000  Uiso   1.00
C711   C     0.88116   0.12825   0.89904   0.00000  Uiso   1.00
C712   C     0.84039   0.14796   0.56533   0.00000  Uiso   1.00
C713   C     0.92161   0.16513   0.55879   0.00000  Uiso   1.00
H714   H     0.94799   0.17549   0.57703   0.00000  Uiso   1.00
H715   H     0.72300   0.12971   0.91086   0.00000  Uiso   1.00
H716   H     0.76156   0.10891   0.55334   0.00000  Uiso   1.00
H717   H     0.89351   0.11958   0.85680   0.00000  Uiso   1.00
H718   H     0.90208   0.29625   0.76389   0.00000  Uiso   1.00
H719   H     0.95423   0.07969   0.69672   0.00000  Uiso   1.00
H720   H     0.76805   0.10963   0.67133   0.00000  Uiso   1.00
H721   H     0.68416   0.08324   0.55053   0.00000  Uiso   1.00
H722   H     0.90157   0.03787   0.76505   0.00000  Uiso   1.00
H723   H     0.76234   0.03697   0.74352   0.00000  Uiso   1.00
H724   H     0.76274   0.29559   0.74227   0.00000  Uiso   1.00
H725   H     0.69401   0.21802   0.80443   0.00000  Uiso   1.00
H726   H     0.94335   0.21753   0.80514   0.00000  Uiso   1.00
H727   H     0.95256   0.13406   0.90060   0.00000  Uiso   1.00
H728   H     0.97190   0.16121   0.97998   0.00000  Uiso   1.00
H729   H     0.80367   0.14667   0.58940   0.00000  Uiso   1.00
N730   N     0.71426   0.16668   0.75002   0.00000  Uiso   1.00
N731   N     0.95239   0.16665   0.75001   0.00000  Uiso   1.00
O732   O     0.79512   0.22775   0.75001   0.00000  Uiso   1.00
O733   O     0.71621   0.06960   0.68284   0.00000  Uiso   1.00
O734   O     0.66690   0.08283   0.98282   0.00000  Uiso   1.00
O735   O     0.87157   0.22774   0.75001   0.00000  Uiso   1.00
O736   O     0.77613   0.16666   0.82681   0.00000  Uiso   1.00
O737   O     0.85258   0.16665   0.82681   0.00000  Uiso   1.00
O738   O     0.79510   0.10559   0.75000   0.00000  Uiso   1.00
O739   O     0.87154   0.10558   0.75000   0.00000  Uiso   1.00
O740   O     0.81409   0.16668   0.67319   0.00000  Uiso   1.00
O741   O     0.89053   0.16667   0.67319   0.00000  Uiso   1.00
O742   O     0.97272   0.12020   0.63726   0.00000  Uiso   1.00
Zn743  Zn    0.78229   0.16667   0.75000   0.00000  Uiso   1.00
Zn744  Zn    0.88438   0.16666   0.75000   0.00000  Uiso   1.00
C745   C     0.16657   0.58000   0.75057   0.00000  Uiso   1.00
C746   C     0.12995   0.47353   0.90363   0.00000  Uiso   1.00
C747   C     0.20497   0.64560   0.75898   0.00000  Uiso   1.00
C748   C     0.14181   0.49234   0.85004   0.00000  Uiso   1.00
C749   C     0.20474   0.35488   0.75946   0.00000  Uiso   1.00
C750   C     0.16584   0.37585   0.75267   0.00000  Uiso   1.00
C751   C     0.12641   0.35441   0.74757   0.00000  Uiso   1.00
C752   C     0.12660   0.64519   0.74707   0.00000  Uiso   1.00
C753   C     0.16613   0.62419   0.75210   0.00000  Uiso   1.00
C754   C     0.31714   0.47155   0.71942   0.00000  Uiso   1.00
C755   C     0.03176   0.47063   0.72022   0.00000  Uiso   1.00
C756   C     0.15223   0.46324   0.98435   0.00000  Uiso   1.00
C757   C     0.01582   0.52846   0.78023   0.00000  Uiso   1.00
C758   C     0.30126   0.52821   0.78059   0.00000  Uiso   1.00
C759   C     0.16642   0.42000   0.75071   0.00000  Uiso   1.00
C760   C     0.19245   0.49951   0.64799   0.00000  Uiso   1.00
C761   C     0.26858   0.49011   0.50369   0.00000  Uiso   1.00
C762   C     0.20753   0.49371   0.58974   0.00000  Uiso   1.00
C763   C     0.08326   0.46197   0.93100   0.00000  Uiso   1.00
C764   C     0.07198   0.44704   0.98355   0.00000  Uiso   1.00
C765   C     0.10520   0.45125   0.51163   0.00000  Uiso   1.00
C766   C     0.30144   0.44343   0.68331   0.00000  Uiso   1.00
C767   C     0.16576   0.46605   0.92810   0.00000  Uiso   1.00
C768   C     0.06420   0.43759   0.68898   0.00000  Uiso   1.00
C769   C     0.02667   0.42573   0.50887   0.00000  Uiso   1.00
C770   C     0.18664   0.47250   0.51029   0.00000  Uiso   1.00
C771   C     0.23496   0.47677   0.97934   0.00000  Uiso   1.00
C772   C     0.24879   0.46790   0.92435   0.00000  Uiso   1.00
C773   C     0.21449   0.46158   0.89904   0.00000  Uiso   1.00
C774   C     0.17372   0.48130   0.56533   0.00000  Uiso   1.00
C775   C     0.25495   0.49846   0.55879   0.00000  Uiso   1.00
H776   H     0.28133   0.50882   0.57703   0.00000  Uiso   1.00
H777   H     0.05634   0.46304   0.91086   0.00000  Uiso   1.00
H778   H     0.09489   0.44224   0.55334   0.00000  Uiso   1.00
H779   H     0.22685   0.45291   0.85680   0.00000  Uiso   1.00
H780   H     0.23541   0.62959   0.76389   0.00000  Uiso   1.00
H781   H     0.28756   0.41302   0.69672   0.00000  Uiso   1.00
H782   H     0.10138   0.44296   0.67133   0.00000  Uiso   1.00
H783   H     0.01749   0.41657   0.55053   0.00000  Uiso   1.00
H784   H     0.23490   0.37120   0.76505   0.00000  Uiso   1.00
H785   H     0.09568   0.37030   0.74352   0.00000  Uiso   1.00
H786   H     0.09607   0.62892   0.74227   0.00000  Uiso   1.00
H787   H     0.02734   0.55135   0.80443   0.00000  Uiso   1.00
H788   H     0.27669   0.55087   0.80514   0.00000  Uiso   1.00
H789   H     0.28590   0.46739   0.90060   0.00000  Uiso   1.00
H790   H     0.30523   0.49455   0.97998   0.00000  Uiso   1.00
H791   H     0.13701   0.48000   0.58940   0.00000  Uiso   1.00
N792   N     0.04760   0.50001   0.75002   0.00000  Uiso   1.00
N793   N     0.28573   0.49998   0.75001   0.00000  Uiso   1.00
O794   O     0.12846   0.56108   0.75001   0.00000  Uiso   1.00
O795   O     0.04954   0.40293   0.68284   0.00000  Uiso   1.00
O796   O     0.00023   0.41616   0.98282   0.00000  Uiso   1.00
O797   O     0.20490   0.56107   0.75001   0.00000  Uiso   1.00
O798   O     0.10947   0.50000   0.82681   0.00000  Uiso   1.00
O799   O     0.18591   0.49999   0.82681   0.00000  Uiso   1.00
O800   O     0.12843   0.43893   0.75000   0.00000  Uiso   1.00
O801   O     0.20488   0.43892   0.75000   0.00000  Uiso   1.00
O802   O     0.14742   0.50001   0.67319   0.00000  Uiso   1.00
O803   O     0.22387   0.50000   0.67319   0.00000  Uiso   1.00
O804   O     0.30606   0.45353   0.63726   0.00000  Uiso   1.00
Zn805  Zn    0.11562   0.50001   0.75000   0.00000  Uiso   1.00
Zn806  Zn    0.21771   0.49999   0.75000   0.00000  Uiso   1.00
C807   C     0.49990   0.58000   0.75057   0.00000  Uiso   1.00
C808   C     0.46329   0.47353   0.90363   0.00000  Uiso   1.00
C809   C     0.53830   0.64560   0.75898   0.00000  Uiso   1.00
C810   C     0.47514   0.49234   0.85004   0.00000  Uiso   1.00
C811   C     0.53807   0.35488   0.75946   0.00000  Uiso   1.00
C812   C     0.49917   0.37585   0.75267   0.00000  Uiso   1.00
C813   C     0.45974   0.35441   0.74757   0.00000  Uiso   1.00
C814   C     0.45993   0.64519   0.74707   0.00000  Uiso   1.00
C815   C     0.49946   0.62419   0.75210   0.00000  Uiso   1.00
C816   C     0.65048   0.47155   0.71942   0.00000  Uiso   1.00
C817   C     0.36509   0.47063   0.72022   0.00000  Uiso   1.00
C818   C     0.48556   0.46324   0.98435   0.00000  Uiso   1.00
C819   C     0.34915   0.52846   0.78023   0.00000  Uiso   1.00
C820   C     0.63459   0.52821   0.78059   0.00000  Uiso   1.00
C821   C     0.49975   0.42000   0.75071   0.00000  Uiso   1.00
C822   C     0.52579   0.49951   0.64799   0.00000  Uiso   1.00
C823   C     0.60191   0.49011   0.50369   0.00000  Uiso   1.00
C824   C     0.54086   0.49371   0.58974   0.00000  Uiso   1.00
C825   C     0.41659   0.46197   0.93100   0.00000  Uiso   1.00
C826   C     0.40531   0.44704   0.98355   0.00000  Uiso   1.00
C827   C     0.43854   0.45125   0.51163   0.00000  Uiso   1.00
C828   C     0.63478   0.44343   0.68331   0.00000  Uiso   1.00
C829   C     0.49910   0.46605   0.92810   0.00000  Uiso   1.00
C830   C     0.39754   0.43759   0.68898   0.00000  Uiso   1.00
C831   C     0.36000   0.42573   0.50887   0.00000  Uiso   1.00
C832   C     0.51997   0.47250   0.51029   0.00000  Uiso   1.00
C833   C     0.56829   0.47677   0.97934   0.00000  Uiso   1.00
C834   C     0.58213   0.46790   0.92435   0.00000  Uiso   1.00
C835   C     0.54783   0.46158   0.89904   0.00000  Uiso   1.00
C836   C     0.50706   0.48130   0.56533   0.00000  Uiso   1.00
C837   C     0.58828   0.49846   0.55879   0.00000  Uiso   1.00
H838   H     0.61466   0.50882   0.57703   0.00000  Uiso   1.00
H839   H     0.38967   0.46304   0.91086   0.00000  Uiso   1.00
H840   H     0.42822   0.44224   0.55334   0.00000  Uiso   1.00
H841   H     0.56018   0.45291   0.85680   0.00000  Uiso   1.00
H842   H     0.56874   0.62959   0.76389   0.00000  Uiso   1.00
H843   H     0.62089   0.41302   0.69672   0.00000  Uiso   1.00
H844   H     0.43472   0.44296   0.67133   0.00000  Uiso   1.00
H845   H     0.35083   0.41657   0.55053   0.00000  Uiso   1.00
H846   H     0.56824   0.37120   0.76505   0.00000  Uiso   1.00
H847   H     0.42901   0.37030   0.74352   0.00000  Uiso   1.00
H848   H     0.42940   0.62892   0.74227   0.00000  Uiso   1.00
H849   H     0.36067   0.55135   0.80443   0.00000  Uiso   1.00
H850   H     0.61002   0.55087   0.80514   0.00000  Uiso   1.00
H851   H     0.61923   0.46739   0.90060   0.00000  Uiso   1.00
H852   H     0.63856   0.49455   0.97998   0.00000  Uiso   1.00
H853   H     0.47034   0.48000   0.58940   0.00000  Uiso   1.00
N854   N     0.38093   0.50001   0.75002   0.00000  Uiso   1.00
N855   N     0.61906   0.49998   0.75001   0.00000  Uiso   1.00
O856   O     0.46179   0.56108   0.75001   0.00000  Uiso   1.00
O857   O     0.38288   0.40293   0.68284   0.00000  Uiso   1.00
O858   O     0.33356   0.41616   0.98282   0.00000  Uiso   1.00
O859   O     0.53823   0.56107   0.75001   0.00000  Uiso   1.00
O860   O     0.44280   0.50000   0.82681   0.00000  Uiso   1.00
O861   O     0.51924   0.49999   0.82681   0.00000  Uiso   1.00
O862   O     0.46177   0.43893   0.75000   0.00000  Uiso   1.00
O863   O     0.53821   0.43892   0.75000   0.00000  Uiso   1.00
O864   O     0.48076   0.50001   0.67319   0.00000  Uiso   1.00
O865   O     0.55720   0.50000   0.67319   0.00000  Uiso   1.00
O866   O     0.63939   0.45353   0.63726   0.00000  Uiso   1.00
Zn867  Zn    0.44896   0.50001   0.75000   0.00000  Uiso   1.00
Zn868  Zn    0.55104   0.49999   0.75000   0.00000  Uiso   1.00
C869   C     0.83324   0.58000   0.75057   0.00000  Uiso   1.00
C870   C     0.79662   0.47353   0.90363   0.00000  Uiso   1.00
C871   C     0.87163   0.64560   0.75898   0.00000  Uiso   1.00
C872   C     0.80847   0.49234   0.85004   0.00000  Uiso   1.00
C873   C     0.87141   0.35488   0.75946   0.00000  Uiso   1.00
C874   C     0.83250   0.37585   0.75267   0.00000  Uiso   1.00
C875   C     0.79308   0.35441   0.74757   0.00000  Uiso   1.00
C876   C     0.79326   0.64519   0.74707   0.00000  Uiso   1.00
C877   C     0.83279   0.62419   0.75210   0.00000  Uiso   1.00
C878   C     0.98381   0.47155   0.71942   0.00000  Uiso   1.00
C879   C     0.69843   0.47063   0.72022   0.00000  Uiso   1.00
C880   C     0.81890   0.46324   0.98435   0.00000  Uiso   1.00
C881   C     0.68249   0.52846   0.78023   0.00000  Uiso   1.00
C882   C     0.96793   0.52821   0.78059   0.00000  Uiso   1.00
C883   C     0.83309   0.42000   0.75071   0.00000  Uiso   1.00
C884   C     0.85912   0.49951   0.64799   0.00000  Uiso   1.00
C885   C     0.93524   0.49011   0.50369   0.00000  Uiso   1.00
C886   C     0.87419   0.49371   0.58974   0.00000  Uiso   1.00
C887   C     0.74992   0.46197   0.93100   0.00000  Uiso   1.00
C888   C     0.73864   0.44704   0.98355   0.00000  Uiso   1.00
C889   C     0.77187   0.45125   0.51163   0.00000  Uiso   1.00
C890   C     0.96811   0.44343   0.68331   0.00000  Uiso   1.00
C891   C     0.83243   0.46605   0.92810   0.00000  Uiso   1.00
C892   C     0.73087   0.43759   0.68898   0.00000  Uiso   1.00
C893   C     0.69334   0.42573   0.50887   0.00000  Uiso   1.00
C894   C     0.85330   0.47250   0.51029   0.00000  Uiso   1.00
C895   C     0.90162   0.47677   0.97934   0.00000  Uiso   1.00
C896   C     0.91546   0.46790   0.92435   0.00000  Uiso   1.00
C897   C     0.88116   0.46158   0.89904   0.00000  Uiso   1.00
C898   C     0.84039   0.48130   0.56533   0.00000  Uiso   1.00
C899   C     0.92161   0.49846   0.55879   0.00000  Uiso   1.00
H900   H     0.94799   0.50882   0.57703   0.00000  Uiso   1.00
H901   H     0.72300   0.46304   0.91086   0.00000  Uiso   1.00
H902   H     0.76156   0.44224   0.55334   0.00000  Uiso   1.00
H903   H     0.89351   0.45291   0.85680   0.00000  Uiso   1.00
H904   H     0.90208   0.62959   0.76389   0.00000  Uiso   1.00
H905   H     0.95423   0.41302   0.69672   0.00000  Uiso   1.00
H906   H     0.76805   0.44296   0.67133   0.00000  Uiso   1.00
H907   H     0.68416   0.41657   0.55053   0.00000  Uiso   1.00
H908   H     0.90157   0.37120   0.76505   0.00000  Uiso   1.00
H909   H     0.76234   0.37030   0.74352   0.00000  Uiso   1.00
H910   H     0.76274   0.62892   0.74227   0.00000  Uiso   1.00
H911   H     0.69401   0.55135   0.80443   0.00000  Uiso   1.00
H912   H     0.94335   0.55087   0.80514   0.00000  Uiso   1.00
H913   H     0.95256   0.46739   0.90060   0.00000  Uiso   1.00
H914   H     0.97190   0.49455   0.97998   0.00000  Uiso   1.00
H915   H     0.80367   0.48000   0.58940   0.00000  Uiso   1.00
N916   N     0.71426   0.50001   0.75002   0.00000  Uiso   1.00
N917   N     0.95239   0.49998   0.75001   0.00000  Uiso   1.00
O918   O     0.79512   0.56108   0.75001   0.00000  Uiso   1.00
O919   O     0.71621   0.40293   0.68284   0.00000  Uiso   1.00
O920   O     0.66690   0.41616   0.98282   0.00000  Uiso   1.00
O921   O     0.87157   0.56107   0.75001   0.00000  Uiso   1.00
O922   O     0.77613   0.50000   0.82681   0.00000  Uiso   1.00
O923   O     0.85258   0.49999   0.82681   0.00000  Uiso   1.00
O924   O     0.79510   0.43893   0.75000   0.00000  Uiso   1.00
O925   O     0.87154   0.43892   0.75000   0.00000  Uiso   1.00
O926   O     0.81409   0.50001   0.67319   0.00000  Uiso   1.00
O927   O     0.89053   0.50000   0.67319   0.00000  Uiso   1.00
O928   O     0.97272   0.45353   0.63726   0.00000  Uiso   1.00
Zn929  Zn    0.78229   0.50001   0.75000   0.00000  Uiso   1.00
Zn930  Zn    0.88438   0.49999   0.75000   0.00000  Uiso   1.00
C931   C     0.16657   0.91333   0.75057   0.00000  Uiso   1.00
C932   C     0.12995   0.80687   0.90363   0.00000  Uiso   1.00
C933   C     0.20497   0.97893   0.75898   0.00000  Uiso   1.00
C934   C     0.14181   0.82567   0.85004   0.00000  Uiso   1.00
C935   C     0.20474   0.68821   0.75946   0.00000  Uiso   1.00
C936   C     0.16584   0.70918   0.75267   0.00000  Uiso   1.00
C937   C     0.12641   0.68774   0.74757   0.00000  Uiso   1.00
C938   C     0.12660   0.97853   0.74707   0.00000  Uiso   1.00
C939   C     0.16613   0.95752   0.75210   0.00000  Uiso   1.00
C940   C     0.31714   0.80489   0.71942   0.00000  Uiso   1.00
C941   C     0.03176   0.80396   0.72022   0.00000  Uiso   1.00
C942   C     0.15223   0.79658   0.98435   0.00000  Uiso   1.00
C943   C     0.01582   0.86180   0.78023   0.00000  Uiso   1.00
C944   C     0.30126   0.86154   0.78059   0.00000  Uiso   1.00
C945   C     0.16642   0.75333   0.75071   0.00000  Uiso   1.00
C946   C     0.19245   0.83285   0.64799   0.00000  Uiso   1.00
C947   C     0.26858   0.82345   0.50369   0.00000  Uiso   1.00
C948   C     0.20753   0.82704   0.58974   0.00000  Uiso   1.00
C949   C     0.08326   0.79530   0.93100   0.00000  Uiso   1.00
C950   C     0.07198   0.78037   0.98355   0.00000  Uiso   1.00
C951   C     0.10520   0.78458   0.51163   0.00000  Uiso   1.00
C952   C     0.30144   0.77677   0.68331   0.00000  Uiso   1.00
C953   C     0.16576   0.79938   0.92810   0.00000  Uiso   1.00
C954   C     0.06420   0.77092   0.68898   0.00000  Uiso   1.00
C955   C     0.02667   0.75906   0.50887   0.00000  Uiso   1.00
C956   C     0.18664   0.80583   0.51029   0.00000  Uiso   1.00
C957   C     0.23496   0.81011   0.97934   0.00000  Uiso   1.00
C958   C     0.24879   0.80123   0.92435   0.00000  Uiso   1.00
C959   C     0.21449   0.79492   0.89904   0.00000  Uiso   1.00
C960   C     0.17372   0.81463   0.56533   0.00000  Uiso   1.00
C961   C     0.25495   0.83180   0.55879   0.00000  Uiso   1.00
H962   H     0.28133   0.84216   0.57703   0.00000  Uiso   1.00
H963   H     0.05634   0.79638   0.91086   0.00000  Uiso   1.00
H964   H     0.09489   0.77557   0.55334   0.00000  Uiso   1.00
H965   H     0.22685   0.78625   0.85680   0.00000  Uiso   1.00
H966   H     0.23541   0.96292   0.76389   0.00000  Uiso   1.00
H967   H     0.28756   0.74635   0.69672   0.00000  Uiso   1.00
H968   H     0.10138   0.77629   0.67133   0.00000  Uiso   1.00
H969   H     0.01749   0.74991   0.55053   0.00000  Uiso   1.00
H970   H     0.23490   0.70453   0.76505   0.00000  Uiso   1.00
H971   H     0.09568   0.70363   0.74352   0.00000  Uiso   1.00
H972   H     0.09607   0.96225   0.74227   0.00000  Uiso   1.00
H973   H     0.02734   0.88468   0.80443   0.00000  Uiso   1.00
H974   H     0.27669   0.88420   0.80514   0.00000  Uiso   1.00
H975   H     0.28590   0.80072   0.90060   0.00000  Uiso   1.00
H976   H     0.30523   0.82788   0.97998   0.00000  Uiso   1.00
H977   H     0.13701   0.81333   0.58940   0.00000  Uiso   1.00
N978   N     0.04760   0.83334   0.75002   0.00000  Uiso   1.00
N979   N     0.28573   0.83331   0.75001   0.00000  Uiso   1.00
O980   O     0.12846   0.89442   0.75001   0.00000  Uiso   1.00
O981   O     0.04954   0.73626   0.68284   0.00000  Uiso   1.00
O982   O     0.00023   0.74949   0.98282   0.00000  Uiso   1.00
O983   O     0.20490   0.89441   0.75001   0.00000  Uiso   1.00
O984   O     0.10947   0.83333   0.82681   0.00000  Uiso   1.00
O985   O     0.18591   0.83332   0.82681   0.00000  Uiso   1.00
O986   O     0.12843   0.77226   0.75000   0.00000  Uiso   1.00
O987   O     0.20488   0.77225   0.75000   0.00000  Uiso   1.00
O988   O     0.14742   0.83335   0.67319   0.00000  Uiso   1.00
O989   O     0.22387   0.83334   0.67319   0.00000  Uiso   1.00
O990   O     0.30606   0.78687   0.63726   0.00000  Uiso   1.00
Zn991  Zn    0.11562   0.83334   0.75000   0.00000  Uiso   1.00
Zn992  Zn    0.21771   0.83333   0.75000   0.00000  Uiso   1.00
C993   C     0.49990   0.91333   0.75057   0.00000  Uiso   1.00
C994   C     0.46329   0.80687   0.90363   0.00000  Uiso   1.00
C995   C     0.53830   0.97893   0.75898   0.00000  Uiso   1.00
C996   C     0.47514   0.82567   0.85004   0.00000  Uiso   1.00
C997   C     0.53807   0.68821   0.75946   0.00000  Uiso   1.00
C998   C     0.49917   0.70918   0.75267   0.00000  Uiso   1.00
C999   C     0.45974   0.68774   0.74757   0.00000  Uiso   1.00
C1000  C     0.45993   0.97853   0.74707   0.00000  Uiso   1.00
C1001  C     0.49946   0.95752   0.75210   0.00000  Uiso   1.00
C1002  C     0.65048   0.80489   0.71942   0.00000  Uiso   1.00
C1003  C     0.36509   0.80396   0.72022   0.00000  Uiso   1.00
C1004  C     0.48556   0.79658   0.98435   0.00000  Uiso   1.00
C1005  C     0.34915   0.86180   0.78023   0.00000  Uiso   1.00
C1006  C     0.63459   0.86154   0.78059   0.00000  Uiso   1.00
C1007  C     0.49975   0.75333   0.75071   0.00000  Uiso   1.00
C1008  C     0.52579   0.83285   0.64799   0.00000  Uiso   1.00
C1009  C     0.60191   0.82345   0.50369   0.00000  Uiso   1.00
C1010  C     0.54086   0.82704   0.58974   0.00000  Uiso   1.00
C1011  C     0.41659   0.79530   0.93100   0.00000  Uiso   1.00
C1012  C     0.40531   0.78037   0.98355   0.00000  Uiso   1.00
C1013  C     0.43854   0.78458   0.51163   0.00000  Uiso   1.00
C1014  C     0.63478   0.77677   0.68331   0.00000  Uiso   1.00
C1015  C     0.49910   0.79938   0.92810   0.00000  Uiso   1.00
C1016  C     0.39754   0.77092   0.68898   0.00000  Uiso   1.00
C1017  C     0.36000   0.75906   0.50887   0.00000  Uiso   1.00
C1018  C     0.51997   0.80583   0.51029   0.00000  Uiso   1.00
C1019  C     0.56829   0.81011   0.97934   0.00000  Uiso   1.00
C1020  C     0.58213   0.80123   0.92435   0.00000  Uiso   1.00
C1021  C     0.54783   0.79492   0.89904   0.00000  Uiso   1.00
C1022  C     0.50706   0.81463   0.56533   0.00000  Uiso   1.00
C1023  C     0.58828   0.83180   0.55879   0.00000  Uiso   1.00
H1024  H     0.61466   0.84216   0.57703   0.00000  Uiso   1.00
H1025  H     0.38967   0.79638   0.91086   0.00000  Uiso   1.00
H1026  H     0.42822   0.77557   0.55334   0.00000  Uiso   1.00
H1027  H     0.56018   0.78625   0.85680   0.00000  Uiso   1.00
H1028  H     0.56874   0.96292   0.76389   0.00000  Uiso   1.00
H1029  H     0.62089   0.74635   0.69672   0.00000  Uiso   1.00
H1030  H     0.43472   0.77629   0.67133   0.00000  Uiso   1.00
H1031  H     0.35083   0.74991   0.55053   0.00000  Uiso   1.00
H1032  H     0.56824   0.70453   0.76505   0.00000  Uiso   1.00
H1033  H     0.42901   0.70363   0.74352   0.00000  Uiso   1.00
H1034  H     0.42940   0.96225   0.74227   0.00000  Uiso   1.00
H1035  H     0.36067   0.88468   0.80443   0.00000  Uiso   1.00
H1036  H     0.61002   0.88420   0.80514   0.00000  Uiso   1.00
H1037  H     0.61923   0.80072   0.90060   0.00000  Uiso   1.00
H1038  H     0.63856   0.82788   0.97998   0.00000  Uiso   1.00
H1039  H     0.47034   0.81333   0.58940   0.00000  Uiso   1.00
N1040  N     0.38093   0.83334   0.75002   0.00000  Uiso   1.00
N1041  N     0.61906   0.83331   0.75001   0.00000  Uiso   1.00
O1042  O     0.46179   0.89442   0.75001   0.00000  Uiso   1.00
O1043  O     0.38288   0.73626   0.68284   0.00000  Uiso   1.00
O1044  O     0.33356   0.74949   0.98282   0.00000  Uiso   1.00
O1045  O     0.53823   0.89441   0.75001   0.00000  Uiso   1.00
O1046  O     0.44280   0.83333   0.82681   0.00000  Uiso   1.00
O1047  O     0.51924   0.83332   0.82681   0.00000  Uiso   1.00
O1048  O     0.46177   0.77226   0.75000   0.00000  Uiso   1.00
O1049  O     0.53821   0.77225   0.75000   0.00000  Uiso   1.00
O1050  O     0.48076   0.83335   0.67319   0.00000  Uiso   1.00
O1051  O     0.55720   0.83334   0.67319   0.00000  Uiso   1.00
O1052  O     0.63939   0.78687   0.63726   0.00000  Uiso   1.00
Zn1053 Zn    0.44896   0.83334   0.75000   0.00000  Uiso   1.00
Zn1054 Zn    0.55104   0.83333   0.75000   0.00000  Uiso   1.00
C1055  C     0.83324   0.91333   0.75057   0.00000  Uiso   1.00
C1056  C     0.79662   0.80687   0.90363   0.00000  Uiso   1.00
C1057  C     0.87163   0.97893   0.75898   0.00000  Uiso   1.00
C1058  C     0.80847   0.82567   0.85004   0.00000  Uiso   1.00
C1059  C     0.87141   0.68821   0.75946   0.00000  Uiso   1.00
C1060  C     0.83250   0.70918   0.75267   0.00000  Uiso   1.00
C1061  C     0.79308   0.68774   0.74757   0.00000  Uiso   1.00
C1062  C     0.79326   0.97853   0.74707   0.00000  Uiso   1.00
C1063  C     0.83279   0.95752   0.75210   0.00000  Uiso   1.00
C1064  C     0.98381   0.80489   0.71942   0.00000  Uiso   1.00
C1065  C     0.69843   0.80396   0.72022   0.00000  Uiso   1.00
C1066  C     0.81890   0.79658   0.98435   0.00000  Uiso   1.00
C1067  C     0.68249   0.86180   0.78023   0.00000  Uiso   1.00
C1068  C     0.96793   0.86154   0.78059   0.00000  Uiso   1.00
C1069  C     0.83309   0.75333   0.75071   0.00000  Uiso   1.00
C1070  C     0.85912   0.83285   0.64799   0.00000  Uiso   1.00
C1071  C     0.93524   0.82345   0.50369   0.00000  Uiso   1.00
C1072  C     0.87419   0.82704   0.58974   0.00000  Uiso   1.00
C1073  C     0.74992   0.79530   0.93100   0.00000  Uiso   1.00
C1074  C     0.73864   0.78037   0.98355   0.00000  Uiso   1.00
C1075  C     0.77187   0.78458   0.51163   0.00000  Uiso   1.00
C1076  C     0.96811   0.77677   0.68331   0.00000  Uiso   1.00
C1077  C     0.83243   0.79938   0.92810   0.00000  Uiso   1.00
C1078  C     0.73087   0.77092   0.68898   0.00000  Uiso   1.00
C1079  C     0.69334   0.75906   0.50887   0.00000  Uiso   1.00
C1080  C     0.85330   0.80583   0.51029   0.00000  Uiso   1.00
C1081  C     0.90162   0.81011   0.97934   0.00000  Uiso   1.00
C1082  C     0.91546   0.80123   0.92435   0.00000  Uiso   1.00
C1083  C     0.88116   0.79492   0.89904   0.00000  Uiso   1.00
C1084  C     0.84039   0.81463   0.56533   0.00000  Uiso   1.00
C1085  C     0.92161   0.83180   0.55879   0.00000  Uiso   1.00
H1086  H     0.94799   0.84216   0.57703   0.00000  Uiso   1.00
H1087  H     0.72300   0.79638   0.91086   0.00000  Uiso   1.00
H1088  H     0.76156   0.77557   0.55334   0.00000  Uiso   1.00
H1089  H     0.89351   0.78625   0.85680   0.00000  Uiso   1.00
H1090  H     0.90208   0.96292   0.76389   0.00000  Uiso   1.00
H1091  H     0.95423   0.74635   0.69672   0.00000  Uiso   1.00
H1092  H     0.76805   0.77629   0.67133   0.00000  Uiso   1.00
H1093  H     0.68416   0.74991   0.55053   0.00000  Uiso   1.00
H1094  H     0.90157   0.70453   0.76505   0.00000  Uiso   1.00
H1095  H     0.76234   0.70363   0.74352   0.00000  Uiso   1.00
H1096  H     0.76274   0.96225   0.74227   0.00000  Uiso   1.00
H1097  H     0.69401   0.88468   0.80443   0.00000  Uiso   1.00
H1098  H     0.94335   0.88420   0.80514   0.00000  Uiso   1.00
H1099  H     0.95256   0.80072   0.90060   0.00000  Uiso   1.00
H1100  H     0.97190   0.82788   0.97998   0.00000  Uiso   1.00
H1101  H     0.80367   0.81333   0.58940   0.00000  Uiso   1.00
N1102  N     0.71426   0.83334   0.75002   0.00000  Uiso   1.00
N1103  N     0.95239   0.83331   0.75001   0.00000  Uiso   1.00
O1104  O     0.79512   0.89442   0.75001   0.00000  Uiso   1.00
O1105  O     0.71621   0.73626   0.68284   0.00000  Uiso   1.00
O1106  O     0.66690   0.74949   0.98282   0.00000  Uiso   1.00
O1107  O     0.87157   0.89441   0.75001   0.00000  Uiso   1.00
O1108  O     0.77613   0.83333   0.82681   0.00000  Uiso   1.00
O1109  O     0.85258   0.83332   0.82681   0.00000  Uiso   1.00
O1110  O     0.79510   0.77226   0.75000   0.00000  Uiso   1.00
O1111  O     0.87154   0.77225   0.75000   0.00000  Uiso   1.00
O1112  O     0.81409   0.83335   0.67319   0.00000  Uiso   1.00
O1113  O     0.89053   0.83334   0.67319   0.00000  Uiso   1.00
O1114  O     0.97272   0.78687   0.63726   0.00000  Uiso   1.00
Zn1115 Zn    0.78229   0.83334   0.75000   0.00000  Uiso   1.00
Zn1116 Zn    0.88438   0.83333   0.75000   0.00000  Uiso   1.00
loop_
_geom_bond_atom_site_label_1
_geom_bond_atom_site_label_2
_geom_bond_distance
_geom_bond_site_symmetry_2
_ccdc_geom_bond_type
C1     O50     1.286   .     A
C1     C9      1.421   .     S
C1     O53     1.287   .     A
C2     C4      1.475   .     S
C2     C23     1.421   .     A
C2     C19     1.402   .     A
C3     C9      1.397   .     A
C3     H36     1.084   .     S
C3     C191    1.371   .     S
C4     O54     1.309   .     A
C4     O55     1.287   .     A
C5     C6      1.398   .     A
C5     H40     1.083   .     S
C5     C375    1.371   1_545 S
C6     C7      1.396   .     A
C6     C15     1.422   .     S
C7     H41     1.081   .     S
C7     C380    1.369   1_545 S
C8     H42     1.084   .     S
C8     C9      1.397   .     A
C8     C193    1.369   .     S
C10    N49     1.364   .     A
C10    C22     1.468   .     S
C10    C73     1.429   .     S
C11    N48     1.382   .     A
C11    C24     1.486   .     S
C11    C134    1.429   1_455 S
C12    C23     1.402   .     A
C12    C579    1.414   .     S
C12    C584    1.416   .     S
C13    N48     1.366   .     A
C13    H43     1.082   .     S
C13    C138    1.418   1_455 S
C14    H44     1.082   .     S
C14    N49     1.367   .     A
C14    C75     1.418   .     S
C15    O56     1.288   .     A
C15    O57     1.287   .     A
C16    O58     1.295   .     A
C16    C18     1.455   .     S
C16    O59     1.295   .     A
C17    C31     1.389   .     A
C17    C585    1.400   1_554 S
C17    H604    1.084   1_554 S
C18    C30     1.397   .     A
C18    C31     1.400   .     A
C19    C20     1.402   .     A
C19    H33     1.084   .     S
C20    C579    1.402   .     S
C20    C583    1.476   .     S
C21    H34     1.081   .     S
C21    C570    1.414   1_554 S
C21    C578    1.402   1_554 S
C22    O60     1.218   .     D
C22    H37     1.083   .     S
C23    C29     1.417   .     A
C24    H38     1.071   .     S
C24    O51     1.221   .     D
C25    H39     1.083   .     S
C25    C578    1.476   1_554 S
C25    O610    1.221   1_554 S
C26    C30     1.391   .     A
C26    C570    1.416   1_554 S
C26    C585    1.420   1_554 S
C27    C28     1.390   .     A
C27    C575    1.400   .     S
C27    C584    1.420   .     S
C28    C29     1.385   .     A
C28    H45     1.084   .     S
C29    H35     1.080   .     S
C30    H47     1.078   .     S
C31    H32     1.082   .     S
H46    C575    1.084   .     S
N48    Zn61    2.018   .     S
N49    Zn62    2.018   .     S
O50    Zn61    2.001   .     S
O52    C583    1.221   .     S
O53    Zn62    2.003   .     S
O54    Zn61    1.956   .     S
O55    Zn62    1.935   .     S
O56    Zn61    2.003   .     S
O57    Zn62    2.001   .     S
O58    Zn61    1.935   .     S
O59    Zn62    1.956   .     S
C63    O112    1.286   .     A
C63    C71     1.421   .     S
C63    O115    1.287   .     A
C64    C66     1.475   .     S
C64    C85     1.421   .     A
C64    C81     1.402   .     A
C65    C71     1.397   .     A
C65    H98     1.084   .     S
C65    C253    1.371   .     S
C66    O116    1.309   .     A
C66    O117    1.287   .     A
C67    C68     1.398   .     A
C67    H102    1.083   .     S
C67    C437    1.371   1_545 S
C68    C69     1.396   .     A
C68    C77     1.422   .     S
C69    H103    1.081   .     S
C69    C442    1.369   1_545 S
C70    H104    1.084   .     S
C70    C71     1.397   .     A
C70    C255    1.369   .     S
C72    N111    1.364   .     A
C72    C84     1.468   .     S
C72    C135    1.429   .     S
C73    N110    1.382   .     A
C73    C86     1.486   .     S
C74    C85     1.402   .     A
C74    C641    1.414   .     S
C74    C646    1.416   .     S
C75    N110    1.366   .     A
C75    H105    1.082   .     S
C76    H106    1.082   .     S
C76    N111    1.367   .     A
C76    C137    1.418   .     S
C77    O118    1.288   .     A
C77    O119    1.287   .     A
C78    O120    1.295   .     A
C78    C80     1.455   .     S
C78    O121    1.295   .     A
C79    C93     1.389   .     A
C79    C647    1.400   1_554 S
C79    H666    1.084   1_554 S
C80    C92     1.397   .     A
C80    C93     1.400   .     A
C81    C82     1.402   .     A
C81    H95     1.084   .     S
C82    C641    1.402   .     S
C82    C645    1.476   .     S
C83    H96     1.081   .     S
C83    C632    1.414   1_554 S
C83    C640    1.402   1_554 S
C84    O122    1.218   .     D
C84    H99     1.083   .     S
C85    C91     1.417   .     A
C86    H100    1.071   .     S
C86    O113    1.221   .     D
C87    H101    1.083   .     S
C87    C640    1.476   1_554 S
C87    O672    1.221   1_554 S
C88    C92     1.391   .     A
C88    C632    1.416   1_554 S
C88    C647    1.420   1_554 S
C89    C90     1.390   .     A
C89    C637    1.400   .     S
C89    C646    1.420   .     S
C90    C91     1.385   .     A
C90    H107    1.084   .     S
C91    H97     1.080   .     S
C92    H109    1.078   .     S
C93    H94     1.082   .     S
H108   C637    1.084   .     S
N110   Zn123   2.018   .     S
N111   Zn124   2.018   .     S
O112   Zn123   2.001   .     S
O114   C645    1.221   .     S
O115   Zn124   2.003   .     S
O116   Zn123   1.956   .     S
O117   Zn124   1.935   .     S
O118   Zn123   2.003   .     S
O119   Zn124   2.001   .     S
O120   Zn123   1.935   .     S
O121   Zn124   1.956   .     S
C125   O174    1.286   .     A
C125   C133    1.421   .     S
C125   O177    1.287   .     A
C126   C128    1.475   .     S
C126   C147    1.421   .     A
C126   C143    1.402   .     A
C127   C133    1.397   .     A
C127   H160    1.084   .     S
C127   C315    1.371   .     S
C128   O178    1.309   .     A
C128   O179    1.287   .     A
C129   C130    1.398   .     A
C129   H164    1.083   .     S
C129   C499    1.371   1_545 S
C130   C131    1.396   .     A
C130   C139    1.422   .     S
C131   H165    1.081   .     S
C131   C504    1.369   1_545 S
C132   H166    1.084   .     S
C132   C133    1.397   .     A
C132   C317    1.369   .     S
C134   N173    1.364   .     A
C134   C146    1.468   .     S
C134   C11     1.429   1_655 S
C135   N172    1.382   .     A
C135   C148    1.486   .     S
C136   C147    1.402   .     A
C136   C703    1.414   .     S
C136   C708    1.416   .     S
C137   N172    1.366   .     A
C137   H167    1.082   .     S
C138   H168    1.082   .     S
C138   N173    1.367   .     A
C138   C13     1.418   1_655 S
C139   O180    1.288   .     A
C139   O181    1.287   .     A
C140   O182    1.295   .     A
C140   C142    1.455   .     S
C140   O183    1.295   .     A
C141   C155    1.389   .     A
C141   C709    1.400   1_554 S
C141   H728    1.084   1_554 S
C142   C154    1.397   .     A
C142   C155    1.400   .     A
C143   C144    1.402   .     A
C143   H157    1.084   .     S
C144   C703    1.402   .     S
C144   C707    1.476   .     S
C145   H158    1.081   .     S
C145   C694    1.414   1_554 S
C145   C702    1.402   1_554 S
C146   O184    1.218   .     D
C146   H161    1.083   .     S
C147   C153    1.417   .     A
C148   H162    1.071   .     S
C148   O175    1.221   .     D
C149   H163    1.083   .     S
C149   C702    1.476   1_554 S
C149   O734    1.221   1_554 S
C150   C154    1.391   .     A
C150   C694    1.416   1_554 S
C150   C709    1.420   1_554 S
C151   C152    1.390   .     A
C151   C699    1.400   .     S
C151   C708    1.420   .     S
C152   C153    1.385   .     A
C152   H169    1.084   .     S
C153   H159    1.080   .     S
C154   H171    1.078   .     S
C155   H156    1.082   .     S
H170   C699    1.084   .     S
N172   Zn185   2.018   .     S
N173   Zn186   2.018   .     S
O174   Zn185   2.001   .     S
O176   C707    1.221   .     S
O177   Zn186   2.003   .     S
O178   Zn185   1.956   .     S
O179   Zn186   1.935   .     S
O180   Zn185   2.003   .     S
O181   Zn186   2.001   .     S
O182   Zn185   1.935   .     S
O183   Zn186   1.956   .     S
C187   O236    1.286   .     A
C187   C195    1.421   .     S
C187   O239    1.287   .     A
C188   C190    1.475   .     S
C188   C209    1.421   .     A
C188   C205    1.402   .     A
C189   C195    1.397   .     A
C189   H222    1.084   .     S
C189   C377    1.371   .     S
C190   O240    1.309   .     A
C190   O241    1.287   .     A
C191   C192    1.398   .     A
C191   H226    1.083   .     S
C192   C193    1.396   .     A
C192   C201    1.422   .     S
C193   H227    1.081   .     S
C194   H228    1.084   .     S
C194   C195    1.397   .     A
C194   C379    1.369   .     S
C196   N235    1.364   .     A
C196   C208    1.468   .     S
C196   C259    1.429   .     S
C197   N234    1.382   .     A
C197   C210    1.486   .     S
C197   C320    1.429   1_455 S
C198   C209    1.402   .     A
C198   C765    1.414   .     S
C198   C770    1.416   .     S
C199   N234    1.366   .     A
C199   H229    1.082   .     S
C199   C324    1.418   1_455 S
C200   H230    1.082   .     S
C200   N235    1.367   .     A
C200   C261    1.418   .     S
C201   O242    1.288   .     A
C201   O243    1.287   .     A
C202   O244    1.295   .     A
C202   C204    1.455   .     S
C202   O245    1.295   .     A
C203   C217    1.389   .     A
C203   C771    1.400   1_554 S
C203   H790    1.084   1_554 S
C204   C216    1.397   .     A
C204   C217    1.400   .     A
C205   C206    1.402   .     A
C205   H219    1.084   .     S
C206   C765    1.402   .     S
C206   C769    1.476   .     S
C207   H220    1.081   .     S
C207   C756    1.414   1_554 S
C207   C764    1.402   1_554 S
C208   O246    1.218   .     D
C208   H223    1.083   .     S
C209   C215    1.417   .     A
C210   H224    1.071   .     S
C210   O237    1.221   .     D
C211   H225    1.083   .     S
C211   C764    1.476   1_554 S
C211   O796    1.221   1_554 S
C212   C216    1.391   .     A
C212   C756    1.416   1_554 S
C212   C771    1.420   1_554 S
C213   C214    1.390   .     A
C213   C761    1.400   .     S
C213   C770    1.420   .     S
C214   C215    1.385   .     A
C214   H231    1.084   .     S
C215   H221    1.080   .     S
C216   H233    1.078   .     S
C217   H218    1.082   .     S
H232   C761    1.084   .     S
N234   Zn247   2.018   .     S
N235   Zn248   2.018   .     S
O236   Zn247   2.001   .     S
O238   C769    1.221   .     S
O239   Zn248   2.003   .     S
O240   Zn247   1.956   .     S
O241   Zn248   1.935   .     S
O242   Zn247   2.003   .     S
O243   Zn248   2.001   .     S
O244   Zn247   1.935   .     S
O245   Zn248   1.956   .     S
C249   O298    1.286   .     A
C249   C257    1.421   .     S
C249   O301    1.287   .     A
C250   C252    1.475   .     S
C250   C271    1.421   .     A
C250   C267    1.402   .     A
C251   C257    1.397   .     A
C251   H284    1.084   .     S
C251   C439    1.371   .     S
C252   O302    1.309   .     A
C252   O303    1.287   .     A
C253   C254    1.398   .     A
C253   H288    1.083   .     S
C254   C255    1.396   .     A
C254   C263    1.422   .     S
C255   H289    1.081   .     S
C256   H290    1.084   .     S
C256   C257    1.397   .     A
C256   C441    1.369   .     S
C258   N297    1.364   .     A
C258   C270    1.468   .     S
C258   C321    1.429   .     S
C259   N296    1.382   .     A
C259   C272    1.486   .     S
C260   C271    1.402   .     A
C260   C827    1.414   .     S
C260   C832    1.416   .     S
C261   N296    1.366   .     A
C261   H291    1.082   .     S
C262   H292    1.082   .     S
C262   N297    1.367   .     A
C262   C323    1.418   .     S
C263   O304    1.288   .     A
C263   O305    1.287   .     A
C264   O306    1.295   .     A
C264   C266    1.455   .     S
C264   O307    1.295   .     A
C265   C279    1.389   .     A
C265   C833    1.400   1_554 S
C265   H852    1.084   1_554 S
C266   C278    1.397   .     A
C266   C279    1.400   .     A
C267   C268    1.402   .     A
C267   H281    1.084   .     S
C268   C827    1.402   .     S
C268   C831    1.476   .     S
C269   H282    1.081   .     S
C269   C818    1.414   1_554 S
C269   C826    1.402   1_554 S
C270   O308    1.218   .     D
C270   H285    1.083   .     S
C271   C277    1.417   .     A
C272   H286    1.071   .     S
C272   O299    1.221   .     D
C273   H287    1.083   .     S
C273   C826    1.476   1_554 S
C273   O858    1.221   1_554 S
C274   C278    1.391   .     A
C274   C818    1.416   1_554 S
C274   C833    1.420   1_554 S
C275   C276    1.390   .     A
C275   C823    1.400   .     S
C275   C832    1.420   .     S
C276   C277    1.385   .     A
C276   H293    1.084   .     S
C277   H283    1.080   .     S
C278   H295    1.078   .     S
C279   H280    1.082   .     S
H294   C823    1.084   .     S
N296   Zn309   2.018   .     S
N297   Zn310   2.018   .     S
O298   Zn309   2.001   .     S
O300   C831    1.221   .     S
O301   Zn310   2.003   .     S
O302   Zn309   1.956   .     S
O303   Zn310   1.935   .     S
O304   Zn309   2.003   .     S
O305   Zn310   2.001   .     S
O306   Zn309   1.935   .     S
O307   Zn310   1.956   .     S
C311   O360    1.286   .     A
C311   C319    1.421   .     S
C311   O363    1.287   .     A
C312   C314    1.475   .     S
C312   C333    1.421   .     A
C312   C329    1.402   .     A
C313   C319    1.397   .     A
C313   H346    1.084   .     S
C313   C501    1.371   .     S
C314   O364    1.309   .     A
C314   O365    1.287   .     A
C315   C316    1.398   .     A
C315   H350    1.083   .     S
C316   C317    1.396   .     A
C316   C325    1.422   .     S
C317   H351    1.081   .     S
C318   H352    1.084   .     S
C318   C319    1.397   .     A
C318   C503    1.369   .     S
C320   N359    1.364   .     A
C320   C332    1.468   .     S
C320   C197    1.429   1_655 S
C321   N358    1.382   .     A
C321   C334    1.486   .     S
C322   C333    1.402   .     A
C322   C889    1.414   .     S
C322   C894    1.416   .     S
C323   N358    1.366   .     A
C323   H353    1.082   .     S
C324   H354    1.082   .     S
C324   N359    1.367   .     A
C324   C199    1.418   1_655 S
C325   O366    1.288   .     A
C325   O367    1.287   .     A
C326   O368    1.295   .     A
C326   C328    1.455   .     S
C326   O369    1.295   .     A
C327   C341    1.389   .     A
C327   C895    1.400   1_554 S
C327   H914    1.084   1_554 S
C328   C340    1.397   .     A
C328   C341    1.400   .     A
C329   C330    1.402   .     A
C329   H343    1.084   .     S
C330   C889    1.402   .     S
C330   C893    1.476   .     S
C331   H344    1.081   .     S
C331   C880    1.414   1_554 S
C331   C888    1.402   1_554 S
C332   O370    1.218   .     D
C332   H347    1.083   .     S
C333   C339    1.417   .     A
C334   H348    1.071   .     S
C334   O361    1.221   .     D
C335   H349    1.083   .     S
C335   C888    1.476   1_554 S
C335   O920    1.221   1_554 S
C336   C340    1.391   .     A
C336   C880    1.416   1_554 S
C336   C895    1.420   1_554 S
C337   C338    1.390   .     A
C337   C885    1.400   .     S
C337   C894    1.420   .     S
C338   C339    1.385   .     A
C338   H355    1.084   .     S
C339   H345    1.080   .     S
C340   H357    1.078   .     S
C341   H342    1.082   .     S
H356   C885    1.084   .     S
N358   Zn371   2.018   .     S
N359   Zn372   2.018   .     S
O360   Zn371   2.001   .     S
O362   C893    1.221   .     S
O363   Zn372   2.003   .     S
O364   Zn371   1.956   .     S
O365   Zn372   1.935   .     S
O366   Zn371   2.003   .     S
O367   Zn372   2.001   .     S
O368   Zn371   1.935   .     S
O369   Zn372   1.956   .     S
C373   O422    1.286   .     A
C373   C381    1.421   .     S
C373   O425    1.287   .     A
C374   C376    1.475   .     S
C374   C395    1.421   .     A
C374   C391    1.402   .     A
C375   C381    1.397   .     A
C375   H408    1.084   .     S
C375   C5      1.371   1_565 S
C376   O426    1.309   .     A
C376   O427    1.287   .     A
C377   C378    1.398   .     A
C377   H412    1.083   .     S
C378   C379    1.396   .     A
C378   C387    1.422   .     S
C379   H413    1.081   .     S
C380   H414    1.084   .     S
C380   C381    1.397   .     A
C380   C7      1.369   1_565 S
C382   N421    1.364   .     A
C382   C394    1.468   .     S
C382   C445    1.429   .     S
C383   N420    1.382   .     A
C383   C396    1.486   .     S
C383   C506    1.429   1_455 S
C384   C395    1.402   .     A
C384   C951    1.414   .     S
C384   C956    1.416   .     S
C385   N420    1.366   .     A
C385   H415    1.082   .     S
C385   C510    1.418   1_455 S
C386   H416    1.082   .     S
C386   N421    1.367   .     A
C386   C447    1.418   .     S
C387   O428    1.288   .     A
C387   O429    1.287   .     A
C388   O430    1.295   .     A
C388   C390    1.455   .     S
C388   O431    1.295   .     A
C389   C403    1.389   .     A
C389   C957    1.400   1_554 S
C389   H976    1.084   1_554 S
C390   C402    1.397   .     A
C390   C403    1.400   .     A
C391   C392    1.402   .     A
C391   H405    1.084   .     S
C392   C951    1.402   .     S
C392   C955    1.476   .     S
C393   H406    1.081   .     S
C393   C942    1.414   1_554 S
C393   C950    1.402   1_554 S
C394   O432    1.218   .     D
C394   H409    1.083   .     S
C395   C401    1.417   .     A
C396   H410    1.071   .     S
C396   O423    1.221   .     D
C397   H411    1.083   .     S
C397   C950    1.476   1_554 S
C397   O982    1.221   1_554 S
C398   C402    1.391   .     A
C398   C942    1.416   1_554 S
C398   C957    1.420   1_554 S
C399   C400    1.390   .     A
C399   C947    1.400   .     S
C399   C956    1.420   .     S
C400   C401    1.385   .     A
C400   H417    1.084   .     S
C401   H407    1.080   .     S
C402   H419    1.078   .     S
C403   H404    1.082   .     S
H418   C947    1.084   .     S
N420   Zn433   2.018   .     S
N421   Zn434   2.018   .     S
O422   Zn433   2.001   .     S
O424   C955    1.221   .     S
O425   Zn434   2.003   .     S
O426   Zn433   1.956   .     S
O427   Zn434   1.935   .     S
O428   Zn433   2.003   .     S
O429   Zn434   2.001   .     S
O430   Zn433   1.935   .     S
O431   Zn434   1.956   .     S
C435   O484    1.286   .     A
C435   C443    1.421   .     S
C435   O487    1.287   .     A
C436   C438    1.475   .     S
C436   C457    1.421   .     A
C436   C453    1.402   .     A
C437   C443    1.397   .     A
C437   H470    1.084   .     S
C437   C67     1.371   1_565 S
C438   O488    1.309   .     A
C438   O489    1.287   .     A
C439   C440    1.398   .     A
C439   H474    1.083   .     S
C440   C441    1.396   .     A
C440   C449    1.422   .     S
C441   H475    1.081   .     S
C442   H476    1.084   .     S
C442   C443    1.397   .     A
C442   C69     1.369   1_565 S
C444   N483    1.364   .     A
C444   C456    1.468   .     S
C444   C507    1.429   .     S
C445   N482    1.382   .     A
C445   C458    1.486   .     S
C446   C457    1.402   .     A
C446   C1013   1.414   .     S
C446   C1018   1.416   .     S
C447   N482    1.366   .     A
C447   H477    1.082   .     S
C448   H478    1.082   .     S
C448   N483    1.367   .     A
C448   C509    1.418   .     S
C449   O490    1.288   .     A
C449   O491    1.287   .     A
C450   O492    1.295   .     A
C450   C452    1.455   .     S
C450   O493    1.295   .     A
C451   C465    1.389   .     A
C451   C1019   1.400   1_554 S
C451   H1038   1.084   1_554 S
C452   C464    1.397   .     A
C452   C465    1.400   .     A
C453   C454    1.402   .     A
C453   H467    1.084   .     S
C454   C1013   1.402   .     S
C454   C1017   1.476   .     S
C455   H468    1.081   .     S
C455   C1004   1.414   1_554 S
C455   C1012   1.402   1_554 S
C456   O494    1.218   .     D
C456   H471    1.083   .     S
C457   C463    1.417   .     A
C458   H472    1.071   .     S
C458   O485    1.221   .     D
C459   H473    1.083   .     S
C459   C1012   1.476   1_554 S
C459   O1044   1.221   1_554 S
C460   C464    1.391   .     A
C460   C1004   1.416   1_554 S
C460   C1019   1.420   1_554 S
C461   C462    1.390   .     A
C461   C1009   1.400   .     S
C461   C1018   1.420   .     S
C462   C463    1.385   .     A
C462   H479    1.084   .     S
C463   H469    1.080   .     S
C464   H481    1.078   .     S
C465   H466    1.082   .     S
H480   C1009   1.084   .     S
N482   Zn495   2.018   .     S
N483   Zn496   2.018   .     S
O484   Zn495   2.001   .     S
O486   C1017   1.221   .     S
O487   Zn496   2.003   .     S
O488   Zn495   1.956   .     S
O489   Zn496   1.935   .     S
O490   Zn495   2.003   .     S
O491   Zn496   2.001   .     S
O492   Zn495   1.935   .     S
O493   Zn496   1.956   .     S
C497   O546    1.286   .     A
C497   C505    1.421   .     S
C497   O549    1.287   .     A
C498   C500    1.475   .     S
C498   C519    1.421   .     A
C498   C515    1.402   .     A
C499   C505    1.397   .     A
C499   H532    1.084   .     S
C499   C129    1.371   1_565 S
C500   O550    1.309   .     A
C500   O551    1.287   .     A
C501   C502    1.398   .     A
C501   H536    1.083   .     S
C502   C503    1.396   .     A
C502   C511    1.422   .     S
C503   H537    1.081   .     S
C504   H538    1.084   .     S
C504   C505    1.397   .     A
C504   C131    1.369   1_565 S
C506   N545    1.364   .     A
C506   C518    1.468   .     S
C506   C383    1.429   1_655 S
C507   N544    1.382   .     A
C507   C520    1.486   .     S
C508   C519    1.402   .     A
C508   C1075   1.414   .     S
C508   C1080   1.416   .     S
C509   N544    1.366   .     A
C509   H539    1.082   .     S
C510   H540    1.082   .     S
C510   N545    1.367   .     A
C510   C385    1.418   1_655 S
C511   O552    1.288   .     A
C511   O553    1.287   .     A
C512   O554    1.295   .     A
C512   C514    1.455   .     S
C512   O555    1.295   .     A
C513   C527    1.389   .     A
C513   C1081   1.400   1_554 S
C513   H1100   1.084   1_554 S
C514   C526    1.397   .     A
C514   C527    1.400   .     A
C515   C516    1.402   .     A
C515   H529    1.084   .     S
C516   C1075   1.402   .     S
C516   C1079   1.476   .     S
C517   H530    1.081   .     S
C517   C1066   1.414   1_554 S
C517   C1074   1.402   1_554 S
C518   O556    1.218   .     D
C518   H533    1.083   .     S
C519   C525    1.417   .     A
C520   H534    1.071   .     S
C520   O547    1.221   .     D
C521   H535    1.083   .     S
C521   C1074   1.476   1_554 S
C521   O1106   1.221   1_554 S
C522   C526    1.391   .     A
C522   C1066   1.416   1_554 S
C522   C1081   1.420   1_554 S
C523   C524    1.390   .     A
C523   C1071   1.400   .     S
C523   C1080   1.420   .     S
C524   C525    1.385   .     A
C524   H541    1.084   .     S
C525   H531    1.080   .     S
C526   H543    1.078   .     S
C527   H528    1.082   .     S
H542   C1071   1.084   .     S
N544   Zn557   2.018   .     S
N545   Zn558   2.018   .     S
O546   Zn557   2.001   .     S
O548   C1079   1.221   .     S
O549   Zn558   2.003   .     S
O550   Zn557   1.956   .     S
O551   Zn558   1.935   .     S
O552   Zn557   2.003   .     S
O553   Zn558   2.001   .     S
O554   Zn557   1.935   .     S
O555   Zn558   1.956   .     S
C559   O608    1.286   .     A
C559   C567    1.421   .     S
C559   O611    1.287   .     A
C560   C562    1.475   .     S
C560   C581    1.421   .     A
C560   C577    1.402   .     A
C561   C567    1.397   .     A
C561   H594    1.084   .     S
C561   C749    1.371   .     S
C562   O612    1.309   .     A
C562   O613    1.287   .     A
C563   C564    1.398   .     A
C563   H598    1.083   .     S
C563   C933    1.371   1_545 S
C564   C565    1.396   .     A
C564   C573    1.422   .     S
C565   H599    1.081   .     S
C565   C938    1.369   1_545 S
C566   H600    1.084   .     S
C566   C567    1.397   .     A
C566   C751    1.369   .     S
C568   N607    1.364   .     A
C568   C580    1.468   .     S
C568   C631    1.429   .     S
C569   N606    1.382   .     A
C569   C582    1.486   .     S
C569   C692    1.429   1_455 S
C570   C581    1.402   .     A
C570   C21     1.414   1_556 S
C570   C26     1.416   1_556 S
C571   N606    1.366   .     A
C571   H601    1.082   .     S
C571   C696    1.418   1_455 S
C572   H602    1.082   .     S
C572   N607    1.367   .     A
C572   C633    1.418   .     S
C573   O614    1.288   .     A
C573   O615    1.287   .     A
C574   O616    1.295   .     A
C574   C576    1.455   .     S
C574   O617    1.295   .     A
C575   C589    1.389   .     A
C576   C588    1.397   .     A
C576   C589    1.400   .     A
C577   C578    1.402   .     A
C577   H591    1.084   .     S
C578   C21     1.402   1_556 S
C578   C25     1.476   1_556 S
C579   H592    1.081   .     S
C580   O618    1.218   .     D
C580   H595    1.083   .     S
C581   C587    1.417   .     A
C582   H596    1.071   .     S
C582   O609    1.221   .     D
C583   H597    1.083   .     S
C584   C588    1.391   .     A
C585   C586    1.390   .     A
C585   C17     1.400   1_556 S
C585   C26     1.420   1_556 S
C586   C587    1.385   .     A
C586   H603    1.084   .     S
C587   H593    1.080   .     S
C588   H605    1.078   .     S
C589   H590    1.082   .     S
H604   C17     1.084   1_556 S
N606   Zn619   2.018   .     S
N607   Zn620   2.018   .     S
O608   Zn619   2.001   .     S
O610   C25     1.221   1_556 S
O611   Zn620   2.003   .     S
O612   Zn619   1.956   .     S
O613   Zn620   1.935   .     S
O614   Zn619   2.003   .     S
O615   Zn620   2.001   .     S
O616   Zn619   1.935   .     S
O617   Zn620   1.956   .     S
C621   O670    1.286   .     A
C621   C629    1.421   .     S
C621   O673    1.287   .     A
C622   C624    1.475   .     S
C622   C643    1.421   .     A
C622   C639    1.402   .     A
C623   C629    1.397   .     A
C623   H656    1.084   .     S
C623   C811    1.371   .     S
C624   O674    1.309   .     A
C624   O675    1.287   .     A
C625   C626    1.398   .     A
C625   H660    1.083   .     S
C625   C995    1.371   1_545 S
C626   C627    1.396   .     A
C626   C635    1.422   .     S
C627   H661    1.081   .     S
C627   C1000   1.369   1_545 S
C628   H662    1.084   .     S
C628   C629    1.397   .     A
C628   C813    1.369   .     S
C630   N669    1.364   .     A
C630   C642    1.468   .     S
C630   C693    1.429   .     S
C631   N668    1.382   .     A
C631   C644    1.486   .     S
C632   C643    1.402   .     A
C632   C83     1.414   1_556 S
C632   C88     1.416   1_556 S
C633   N668    1.366   .     A
C633   H663    1.082   .     S
C634   H664    1.082   .     S
C634   N669    1.367   .     A
C634   C695    1.418   .     S
C635   O676    1.288   .     A
C635   O677    1.287   .     A
C636   O678    1.295   .     A
C636   C638    1.455   .     S
C636   O679    1.295   .     A
C637   C651    1.389   .     A
C638   C650    1.397   .     A
C638   C651    1.400   .     A
C639   C640    1.402   .     A
C639   H653    1.084   .     S
C640   C83     1.402   1_556 S
C640   C87     1.476   1_556 S
C641   H654    1.081   .     S
C642   O680    1.218   .     D
C642   H657    1.083   .     S
C643   C649    1.417   .     A
C644   H658    1.071   .     S
C644   O671    1.221   .     D
C645   H659    1.083   .     S
C646   C650    1.391   .     A
C647   C648    1.390   .     A
C647   C79     1.400   1_556 S
C647   C88     1.420   1_556 S
C648   C649    1.385   .     A
C648   H665    1.084   .     S
C649   H655    1.080   .     S
C650   H667    1.078   .     S
C651   H652    1.082   .     S
H666   C79     1.084   1_556 S
N668   Zn681   2.018   .     S
N669   Zn682   2.018   .     S
O670   Zn681   2.001   .     S
O672   C87     1.221   1_556 S
O673   Zn682   2.003   .     S
O674   Zn681   1.956   .     S
O675   Zn682   1.935   .     S
O676   Zn681   2.003   .     S
O677   Zn682   2.001   .     S
O678   Zn681   1.935   .     S
O679   Zn682   1.956   .     S
C683   O732    1.286   .     A
C683   C691    1.421   .     S
C683   O735    1.287   .     A
C684   C686    1.475   .     S
C684   C705    1.421   .     A
C684   C701    1.402   .     A
C685   C691    1.397   .     A
C685   H718    1.084   .     S
C685   C873    1.371   .     S
C686   O736    1.309   .     A
C686   O737    1.287   .     A
C687   C688    1.398   .     A
C687   H722    1.083   .     S
C687   C1057   1.371   1_545 S
C688   C689    1.396   .     A
C688   C697    1.422   .     S
C689   H723    1.081   .     S
C689   C1062   1.369   1_545 S
C690   H724    1.084   .     S
C690   C691    1.397   .     A
C690   C875    1.369   .     S
C692   N731    1.364   .     A
C692   C704    1.468   .     S
C692   C569    1.429   1_655 S
C693   N730    1.382   .     A
C693   C706    1.486   .     S
C694   C705    1.402   .     A
C694   C145    1.414   1_556 S
C694   C150    1.416   1_556 S
C695   N730    1.366   .     A
C695   H725    1.082   .     S
C696   H726    1.082   .     S
C696   N731    1.367   .     A
C696   C571    1.418   1_655 S
C697   O738    1.288   .     A
C697   O739    1.287   .     A
C698   O740    1.295   .     A
C698   C700    1.455   .     S
C698   O741    1.295   .     A
C699   C713    1.389   .     A
C700   C712    1.397   .     A
C700   C713    1.400   .     A
C701   C702    1.402   .     A
C701   H715    1.084   .     S
C702   C145    1.402   1_556 S
C702   C149    1.476   1_556 S
C703   H716    1.081   .     S
C704   O742    1.218   .     D
C704   H719    1.083   .     S
C705   C711    1.417   .     A
C706   H720    1.071   .     S
C706   O733    1.221   .     D
C707   H721    1.083   .     S
C708   C712    1.391   .     A
C709   C710    1.390   .     A
C709   C141    1.400   1_556 S
C709   C150    1.420   1_556 S
C710   C711    1.385   .     A
C710   H727    1.084   .     S
C711   H717    1.080   .     S
C712   H729    1.078   .     S
C713   H714    1.082   .     S
H728   C141    1.084   1_556 S
N730   Zn743   2.018   .     S
N731   Zn744   2.018   .     S
O732   Zn743   2.001   .     S
O734   C149    1.221   1_556 S
O735   Zn744   2.003   .     S
O736   Zn743   1.956   .     S
O737   Zn744   1.935   .     S
O738   Zn743   2.003   .     S
O739   Zn744   2.001   .     S
O740   Zn743   1.935   .     S
O741   Zn744   1.956   .     S
C745   O794    1.286   .     A
C745   C753    1.421   .     S
C745   O797    1.287   .     A
C746   C748    1.475   .     S
C746   C767    1.421   .     A
C746   C763    1.402   .     A
C747   C753    1.397   .     A
C747   H780    1.084   .     S
C747   C935    1.371   .     S
C748   O798    1.309   .     A
C748   O799    1.287   .     A
C749   C750    1.398   .     A
C749   H784    1.083   .     S
C750   C751    1.396   .     A
C750   C759    1.422   .     S
C751   H785    1.081   .     S
C752   H786    1.084   .     S
C752   C753    1.397   .     A
C752   C937    1.369   .     S
C754   N793    1.364   .     A
C754   C766    1.468   .     S
C754   C817    1.429   .     S
C755   N792    1.382   .     A
C755   C768    1.486   .     S
C755   C878    1.429   1_455 S
C756   C767    1.402   .     A
C756   C207    1.414   1_556 S
C756   C212    1.416   1_556 S
C757   N792    1.366   .     A
C757   H787    1.082   .     S
C757   C882    1.418   1_455 S
C758   H788    1.082   .     S
C758   N793    1.367   .     A
C758   C819    1.418   .     S
C759   O800    1.288   .     A
C759   O801    1.287   .     A
C760   O802    1.295   .     A
C760   C762    1.455   .     S
C760   O803    1.295   .     A
C761   C775    1.389   .     A
C762   C774    1.397   .     A
C762   C775    1.400   .     A
C763   C764    1.402   .     A
C763   H777    1.084   .     S
C764   C207    1.402   1_556 S
C764   C211    1.476   1_556 S
C765   H778    1.081   .     S
C766   O804    1.218   .     D
C766   H781    1.083   .     S
C767   C773    1.417   .     A
C768   H782    1.071   .     S
C768   O795    1.221   .     D
C769   H783    1.083   .     S
C770   C774    1.391   .     A
C771   C772    1.390   .     A
C771   C203    1.400   1_556 S
C771   C212    1.420   1_556 S
C772   C773    1.385   .     A
C772   H789    1.084   .     S
C773   H779    1.080   .     S
C774   H791    1.078   .     S
C775   H776    1.082   .     S
H790   C203    1.084   1_556 S
N792   Zn805   2.018   .     S
N793   Zn806   2.018   .     S
O794   Zn805   2.001   .     S
O796   C211    1.221   1_556 S
O797   Zn806   2.003   .     S
O798   Zn805   1.956   .     S
O799   Zn806   1.935   .     S
O800   Zn805   2.003   .     S
O801   Zn806   2.001   .     S
O802   Zn805   1.935   .     S
O803   Zn806   1.956   .     S
C807   O856    1.286   .     A
C807   C815    1.421   .     S
C807   O859    1.287   .     A
C808   C810    1.475   .     S
C808   C829    1.421   .     A
C808   C825    1.402   .     A
C809   C815    1.397   .     A
C809   H842    1.084   .     S
C809   C997    1.371   .     S
C810   O860    1.309   .     A
C810   O861    1.287   .     A
C811   C812    1.398   .     A
C811   H846    1.083   .     S
C812   C813    1.396   .     A
C812   C821    1.422   .     S
C813   H847    1.081   .     S
C814   H848    1.084   .     S
C814   C815    1.397   .     A
C814   C999    1.369   .     S
C816   N855    1.364   .     A
C816   C828    1.468   .     S
C816   C879    1.429   .     S
C817   N854    1.382   .     A
C817   C830    1.486   .     S
C818   C829    1.402   .     A
C818   C269    1.414   1_556 S
C818   C274    1.416   1_556 S
C819   N854    1.366   .     A
C819   H849    1.082   .     S
C820   H850    1.082   .     S
C820   N855    1.367   .     A
C820   C881    1.418   .     S
C821   O862    1.288   .     A
C821   O863    1.287   .     A
C822   O864    1.295   .     A
C822   C824    1.455   .     S
C822   O865    1.295   .     A
C823   C837    1.389   .     A
C824   C836    1.397   .     A
C824   C837    1.400   .     A
C825   C826    1.402   .     A
C825   H839    1.084   .     S
C826   C269    1.402   1_556 S
C826   C273    1.476   1_556 S
C827   H840    1.081   .     S
C828   O866    1.218   .     D
C828   H843    1.083   .     S
C829   C835    1.417   .     A
C830   H844    1.071   .     S
C830   O857    1.221   .     D
C831   H845    1.083   .     S
C832   C836    1.391   .     A
C833   C834    1.390   .     A
C833   C265    1.400   1_556 S
C833   C274    1.420   1_556 S
C834   C835    1.385   .     A
C834   H851    1.084   .     S
C835   H841    1.080   .     S
C836   H853    1.078   .     S
C837   H838    1.082   .     S
H852   C265    1.084   1_556 S
N854   Zn867   2.018   .     S
N855   Zn868   2.018   .     S
O856   Zn867   2.001   .     S
O858   C273    1.221   1_556 S
O859   Zn868   2.003   .     S
O860   Zn867   1.956   .     S
O861   Zn868   1.935   .     S
O862   Zn867   2.003   .     S
O863   Zn868   2.001   .     S
O864   Zn867   1.935   .     S
O865   Zn868   1.956   .     S
C869   O918    1.286   .     A
C869   C877    1.421   .     S
C869   O921    1.287   .     A
C870   C872    1.475   .     S
C870   C891    1.421   .     A
C870   C887    1.402   .     A
C871   C877    1.397   .     A
C871   H904    1.084   .     S
C871   C1059   1.371   .     S
C872   O922    1.309   .     A
C872   O923    1.287   .     A
C873   C874    1.398   .     A
C873   H908    1.083   .     S
C874   C875    1.396   .     A
C874   C883    1.422   .     S
C875   H909    1.081   .     S
C876   H910    1.084   .     S
C876   C877    1.397   .     A
C876   C1061   1.369   .     S
C878   N917    1.364   .     A
C878   C890    1.468   .     S
C878   C755    1.429   1_655 S
C879   N916    1.382   .     A
C879   C892    1.486   .     S
C880   C891    1.402   .     A
C880   C331    1.414   1_556 S
C880   C336    1.416   1_556 S
C881   N916    1.366   .     A
C881   H911    1.082   .     S
C882   H912    1.082   .     S
C882   N917    1.367   .     A
C882   C757    1.418   1_655 S
C883   O924    1.288   .     A
C883   O925    1.287   .     A
C884   O926    1.295   .     A
C884   C886    1.455   .     S
C884   O927    1.295   .     A
C885   C899    1.389   .     A
C886   C898    1.397   .     A
C886   C899    1.400   .     A
C887   C888    1.402   .     A
C887   H901    1.084   .     S
C888   C331    1.402   1_556 S
C888   C335    1.476   1_556 S
C889   H902    1.081   .     S
C890   O928    1.218   .     D
C890   H905    1.083   .     S
C891   C897    1.417   .     A
C892   H906    1.071   .     S
C892   O919    1.221   .     D
C893   H907    1.083   .     S
C894   C898    1.391   .     A
C895   C896    1.390   .     A
C895   C327    1.400   1_556 S
C895   C336    1.420   1_556 S
C896   C897    1.385   .     A
C896   H913    1.084   .     S
C897   H903    1.080   .     S
C898   H915    1.078   .     S
C899   H900    1.082   .     S
H914   C327    1.084   1_556 S
N916   Zn929   2.018   .     S
N917   Zn930   2.018   .     S
O918   Zn929   2.001   .     S
O920   C335    1.221   1_556 S
O921   Zn930   2.003   .     S
O922   Zn929   1.956   .     S
O923   Zn930   1.935   .     S
O924   Zn929   2.003   .     S
O925   Zn930   2.001   .     S
O926   Zn929   1.935   .     S
O927   Zn930   1.956   .     S
C931   O980    1.286   .     A
C931   C939    1.421   .     S
C931   O983    1.287   .     A
C932   C934    1.475   .     S
C932   C953    1.421   .     A
C932   C949    1.402   .     A
C933   C939    1.397   .     A
C933   H966    1.084   .     S
C933   C563    1.371   1_565 S
C934   O984    1.309   .     A
C934   O985    1.287   .     A
C935   C936    1.398   .     A
C935   H970    1.083   .     S
C936   C937    1.396   .     A
C936   C945    1.422   .     S
C937   H971    1.081   .     S
C938   H972    1.084   .     S
C938   C939    1.397   .     A
C938   C565    1.369   1_565 S
C940   N979    1.364   .     A
C940   C952    1.468   .     S
C940   C1003   1.429   .     S
C941   N978    1.382   .     A
C941   C954    1.486   .     S
C941   C1064   1.429   1_455 S
C942   C953    1.402   .     A
C942   C393    1.414   1_556 S
C942   C398    1.416   1_556 S
C943   N978    1.366   .     A
C943   H973    1.082   .     S
C943   C1068   1.418   1_455 S
C944   H974    1.082   .     S
C944   N979    1.367   .     A
C944   C1005   1.418   .     S
C945   O986    1.288   .     A
C945   O987    1.287   .     A
C946   O988    1.295   .     A
C946   C948    1.455   .     S
C946   O989    1.295   .     A
C947   C961    1.389   .     A
C948   C960    1.397   .     A
C948   C961    1.400   .     A
C949   C950    1.402   .     A
C949   H963    1.084   .     S
C950   C393    1.402   1_556 S
C950   C397    1.476   1_556 S
C951   H964    1.081   .     S
C952   O990    1.218   .     D
C952   H967    1.083   .     S
C953   C959    1.417   .     A
C954   H968    1.071   .     S
C954   O981    1.221   .     D
C955   H969    1.083   .     S
C956   C960    1.391   .     A
C957   C958    1.390   .     A
C957   C389    1.400   1_556 S
C957   C398    1.420   1_556 S
C958   C959    1.385   .     A
C958   H975    1.084   .     S
C959   H965    1.080   .     S
C960   H977    1.078   .     S
C961   H962    1.082   .     S
H976   C389    1.084   1_556 S
N978   Zn991   2.018   .     S
N979   Zn992   2.018   .     S
O980   Zn991   2.001   .     S
O982   C397    1.221   1_556 S
O983   Zn992   2.003   .     S
O984   Zn991   1.956   .     S
O985   Zn992   1.935   .     S
O986   Zn991   2.003   .     S
O987   Zn992   2.001   .     S
O988   Zn991   1.935   .     S
O989   Zn992   1.956   .     S
C993   O1042   1.286   .     A
C993   C1001   1.421   .     S
C993   O1045   1.287   .     A
C994   C996    1.475   .     S
C994   C1015   1.421   .     A
C994   C1011   1.402   .     A
C995   C1001   1.397   .     A
C995   H1028   1.084   .     S
C995   C625    1.371   1_565 S
C996   O1046   1.309   .     A
C996   O1047   1.287   .     A
C997   C998    1.398   .     A
C997   H1032   1.083   .     S
C998   C999    1.396   .     A
C998   C1007   1.422   .     S
C999   H1033   1.081   .     S
C1000  H1034   1.084   .     S
C1000  C1001   1.397   .     A
C1000  C627    1.369   1_565 S
C1002  N1041   1.364   .     A
C1002  C1014   1.468   .     S
C1002  C1065   1.429   .     S
C1003  N1040   1.382   .     A
C1003  C1016   1.486   .     S
C1004  C1015   1.402   .     A
C1004  C455    1.414   1_556 S
C1004  C460    1.416   1_556 S
C1005  N1040   1.366   .     A
C1005  H1035   1.082   .     S
C1006  H1036   1.082   .     S
C1006  N1041   1.367   .     A
C1006  C1067   1.418   .     S
C1007  O1048   1.288   .     A
C1007  O1049   1.287   .     A
C1008  O1050   1.295   .     A
C1008  C1010   1.455   .     S
C1008  O1051   1.295   .     A
C1009  C1023   1.389   .     A
C1010  C1022   1.397   .     A
C1010  C1023   1.400   .     A
C1011  C1012   1.402   .     A
C1011  H1025   1.084   .     S
C1012  C455    1.402   1_556 S
C1012  C459    1.476   1_556 S
C1013  H1026   1.081   .     S
C1014  O1052   1.218   .     D
C1014  H1029   1.083   .     S
C1015  C1021   1.417   .     A
C1016  H1030   1.071   .     S
C1016  O1043   1.221   .     D
C1017  H1031   1.083   .     S
C1018  C1022   1.391   .     A
C1019  C1020   1.390   .     A
C1019  C451    1.400   1_556 S
C1019  C460    1.420   1_556 S
C1020  C1021   1.385   .     A
C1020  H1037   1.084   .     S
C1021  H1027   1.080   .     S
C1022  H1039   1.078   .     S
C1023  H1024   1.082   .     S
H1038  C451    1.084   1_556 S
N1040  Zn1053  2.018   .     S
N1041  Zn1054  2.018   .     S
O1042  Zn1053  2.001   .     S
O1044  C459    1.221   1_556 S
O1045  Zn1054  2.003   .     S
O1046  Zn1053  1.956   .     S
O1047  Zn1054  1.935   .     S
O1048  Zn1053  2.003   .     S
O1049  Zn1054  2.001   .     S
O1050  Zn1053  1.935   .     S
O1051  Zn1054  1.956   .     S
C1055  O1104   1.286   .     A
C1055  C1063   1.421   .     S
C1055  O1107   1.287   .     A
C1056  C1058   1.475   .     S
C1056  C1077   1.421   .     A
C1056  C1073   1.402   .     A
C1057  C1063   1.397   .     A
C1057  H1090   1.084   .     S
C1057  C687    1.371   1_565 S
C1058  O1108   1.309   .     A
C1058  O1109   1.287   .     A
C1059  C1060   1.398   .     A
C1059  H1094   1.083   .     S
C1060  C1061   1.396   .     A
C1060  C1069   1.422   .     S
C1061  H1095   1.081   .     S
C1062  H1096   1.084   .     S
C1062  C1063   1.397   .     A
C1062  C689    1.369   1_565 S
C1064  N1103   1.364   .     A
C1064  C1076   1.468   .     S
C1064  C941    1.429   1_655 S
C1065  N1102   1.382   .     A
C1065  C1078   1.486   .     S
C1066  C1077   1.402   .     A
C1066  C517    1.414   1_556 S
C1066  C522    1.416   1_556 S
C1067  N1102   1.366   .     A
C1067  H1097   1.082   .     S
C1068  H1098   1.082   .     S
C1068  N1103   1.367   .     A
C1068  C943    1.418   1_655 S
C1069  O1110   1.288   .     A
C1069  O1111   1.287   .     A
C1070  O1112   1.295   .     A
C1070  C1072   1.455   .     S
C1070  O1113   1.295   .     A
C1071  C1085   1.389   .     A
C1072  C1084   1.397   .     A
C1072  C1085   1.400   .     A
C1073  C1074   1.402   .     A
C1073  H1087   1.084   .     S
C1074  C517    1.402   1_556 S
C1074  C521    1.476   1_556 S
C1075  H1088   1.081   .     S
C1076  O1114   1.218   .     D
C1076  H1091   1.083   .     S
C1077  C1083   1.417   .     A
C1078  H1092   1.071   .     S
C1078  O1105   1.221   .     D
C1079  H1093   1.083   .     S
C1080  C1084   1.391   .     A
C1081  C1082   1.390   .     A
C1081  C513    1.400   1_556 S
C1081  C522    1.420   1_556 S
C1082  C1083   1.385   .     A
C1082  H1099   1.084   .     S
C1083  H1089   1.080   .     S
C1084  H1101   1.078   .     S
C1085  H1086   1.082   .     S
H1100  C513    1.084   1_556 S
N1102  Zn1115  2.018   .     S
N1103  Zn1116  2.018   .     S
O1104  Zn1115  2.001   .     S
O1106  C521    1.221   1_556 S
O1107  Zn1116  2.003   .     S
O1108  Zn1115  1.956   .     S
O1109  Zn1116  1.935   .     S
O1110  Zn1115  2.003   .     S
O1111  Zn1116  2.001   .     S
O1112  Zn1115  1.935   .     S
O1113  Zn1116  1.956   .     S
