data_str_m2_o1_o18_pcu_sym.12
_audit_creation_date              2020-01-03
_audit_creation_method            'Materials Studio'
_symmetry_space_group_name_H-M    'P1'
_symmetry_Int_Tables_number       1
_symmetry_cell_setting            triclinic
loop_
_symmetry_equiv_pos_as_xyz
  x,y,z
_cell_length_a                    28.5431
_cell_length_b                    32.3949
_cell_length_c                    30.7930
_cell_angle_alpha                 89.8431
_cell_angle_beta                  74.9949
_cell_angle_gamma                 90.0966
loop_
_atom_site_label
_atom_site_type_symbol
_atom_site_fract_x
_atom_site_fract_y
_atom_site_fract_z
_atom_site_U_iso_or_equiv
_atom_site_adp_type
_atom_site_occupancy
O1     O     0.03958   0.10655   0.25000   0.00000  Uiso   1.00
O2     O     0.29375   0.22678   0.25000   0.00000  Uiso   1.00
O3     O     0.29372   0.10654   0.25001   0.00000  Uiso   1.00
O4     O     0.03961   0.22679   0.24999   0.00000  Uiso   1.00
C5     C     0.33292   0.08743   0.25127   0.00000  Uiso   1.00
C6     C     0.00042   0.24591   0.24872   0.00000  Uiso   1.00
O7     O     0.01852   0.16668   0.31491   0.00000  Uiso   1.00
O8     O     0.31481   0.16666   0.18509   0.00000  Uiso   1.00
O9     O     0.27267   0.16667   0.31492   0.00000  Uiso   1.00
O10    O     0.06067   0.16667   0.18508   0.00000  Uiso   1.00
C11    C     0.30639   0.16761   0.33630   0.00000  Uiso   1.00
C12    C     0.02692   0.16528   0.16377   0.00000  Uiso   1.00
Cu13   Cu    0.04689   0.16667   0.25000   0.00000  Uiso   1.00
Cu14   Cu    0.28645   0.16666   0.25000   0.00000  Uiso   1.00
C15    C     0.29202   0.16994   0.38590   0.00000  Uiso   1.00
C16    C     0.04126   0.16061   0.11447   0.00000  Uiso   1.00
C17    C     0.30668   0.18621   0.45806   0.00000  Uiso   1.00
C18    C     0.02791   0.13733   0.04389   0.00000  Uiso   1.00
C19    C     0.32404   0.18233   0.41162   0.00000  Uiso   1.00
C20    C     0.01017   0.14401   0.08991   0.00000  Uiso   1.00
C21    C     0.24347   0.16129   0.40777   0.00000  Uiso   1.00
C22    C     0.08936   0.17007   0.09207   0.00000  Uiso   1.00
C23    C     0.22521   0.16562   0.45456   0.00000  Uiso   1.00
C24    C     0.10869   0.16080   0.04634   0.00000  Uiso   1.00
C25    C     0.25785   0.17858   0.47949   0.00000  Uiso   1.00
C26    C     0.07663   0.14516   0.02214   0.00000  Uiso   1.00
C27    C     0.17541   0.15843   0.47707   0.00000  Uiso   1.00
C28    C     0.15884   0.16630   0.02414   0.00000  Uiso   1.00
C29    C     0.19317   0.17837   0.04766   0.00000  Uiso   1.00
C30    C     0.14169   0.14336   0.45428   0.00000  Uiso   1.00
C31    C     0.24155   0.18435   0.02564   0.00000  Uiso   1.00
C32    C     0.09349   0.13668   0.47654   0.00000  Uiso   1.00
H33    H     0.26644   0.19397   0.04499   0.00000  Uiso   1.00
H34    H     0.06915   0.12459   0.45781   0.00000  Uiso   1.00
H35    H     0.11107   0.18464   0.11148   0.00000  Uiso   1.00
H36    H     0.22030   0.15213   0.38704   0.00000  Uiso   1.00
H37    H     0.33135   0.19625   0.47744   0.00000  Uiso   1.00
H38    H     0.00378   0.12470   0.02526   0.00000  Uiso   1.00
H39    H     0.18430   0.18279   0.08347   0.00000  Uiso   1.00
H40    H     0.15121   0.13538   0.41922   0.00000  Uiso   1.00
C41    C     0.30654   0.02230   0.22590   0.00000  Uiso   1.00
C42    C     0.02681   0.31104   0.27406   0.00000  Uiso   1.00
H43    H     0.28714   0.03983   0.20607   0.00000  Uiso   1.00
H44    H     0.04623   0.29352   0.29388   0.00000  Uiso   1.00
C45    C     0.30775   0.31284   0.22270   0.00000  Uiso   1.00
C46    C     0.02560   0.02050   0.27726   0.00000  Uiso   1.00
C47    C     0.00099   0.29054   0.24764   0.00000  Uiso   1.00
C48    C     0.33235   0.04280   0.25233   0.00000  Uiso   1.00
C49    C     0.18301   0.14296   0.27997   0.00000  Uiso   1.00
C50    C     0.15032   0.19036   0.22001   0.00000  Uiso   1.00
H51    H     0.19492   0.12388   0.30394   0.00000  Uiso   1.00
H52    H     0.13842   0.20943   0.19604   0.00000  Uiso   1.00
C53    C     0.13341   0.14300   0.27998   0.00000  Uiso   1.00
C54    C     0.19994   0.19030   0.21999   0.00000  Uiso   1.00
H55    H     0.10794   0.12406   0.30399   0.00000  Uiso   1.00
H56    H     0.22541   0.20921   0.19594   0.00000  Uiso   1.00
N57    N     0.11736   0.16668   0.24999   0.00000  Uiso   1.00
N58    N     0.21597   0.16666   0.25001   0.00000  Uiso   1.00
Br59   Br    0.27772   0.12698   0.11660   0.00000  Uiso   1.00
Br60   Br    0.05752   0.19719   0.38640   0.00000  Uiso   1.00
N61    N     0.28407   0.29288   0.19247   0.00000  Uiso   1.00
O62    O     0.30611   0.26378   0.16587   0.00000  Uiso   1.00
O63    O     0.24384   0.30782   0.18659   0.00000  Uiso   1.00
N64    N     0.04931   0.04047   0.30747   0.00000  Uiso   1.00
O65    O     0.02723   0.06950   0.33414   0.00000  Uiso   1.00
O66    O     0.08963   0.02560   0.31322   0.00000  Uiso   1.00
O67    O     0.37291   0.10655   0.25000   0.00000  Uiso   1.00
O68    O     0.62709   0.22678   0.25000   0.00000  Uiso   1.00
O69    O     0.62706   0.10654   0.25001   0.00000  Uiso   1.00
O70    O     0.37294   0.22679   0.24999   0.00000  Uiso   1.00
C71    C     0.66625   0.08743   0.25127   0.00000  Uiso   1.00
C72    C     0.33375   0.24591   0.24872   0.00000  Uiso   1.00
O73    O     0.35186   0.16668   0.31491   0.00000  Uiso   1.00
O74    O     0.64814   0.16666   0.18509   0.00000  Uiso   1.00
O75    O     0.60600   0.16667   0.31492   0.00000  Uiso   1.00
O76    O     0.39400   0.16667   0.18508   0.00000  Uiso   1.00
C77    C     0.63972   0.16761   0.33630   0.00000  Uiso   1.00
C78    C     0.36026   0.16528   0.16377   0.00000  Uiso   1.00
Cu79   Cu    0.38022   0.16667   0.25000   0.00000  Uiso   1.00
Cu80   Cu    0.61978   0.16666   0.25000   0.00000  Uiso   1.00
C81    C     0.62535   0.16994   0.38590   0.00000  Uiso   1.00
C82    C     0.37460   0.16061   0.11447   0.00000  Uiso   1.00
C83    C     0.64001   0.18621   0.45806   0.00000  Uiso   1.00
C84    C     0.36124   0.13733   0.04389   0.00000  Uiso   1.00
C85    C     0.65737   0.18233   0.41162   0.00000  Uiso   1.00
C86    C     0.34350   0.14401   0.08991   0.00000  Uiso   1.00
C87    C     0.57681   0.16129   0.40777   0.00000  Uiso   1.00
C88    C     0.42270   0.17007   0.09207   0.00000  Uiso   1.00
C89    C     0.55854   0.16562   0.45456   0.00000  Uiso   1.00
C90    C     0.44203   0.16080   0.04634   0.00000  Uiso   1.00
C91    C     0.59118   0.17858   0.47949   0.00000  Uiso   1.00
C92    C     0.40996   0.14516   0.02214   0.00000  Uiso   1.00
C93    C     0.50874   0.15843   0.47707   0.00000  Uiso   1.00
C94    C     0.49217   0.16630   0.02414   0.00000  Uiso   1.00
C95    C     0.52650   0.17837   0.04766   0.00000  Uiso   1.00
C96    C     0.47502   0.14336   0.45428   0.00000  Uiso   1.00
C97    C     0.57489   0.18435   0.02564   0.00000  Uiso   1.00
C98    C     0.42682   0.13668   0.47654   0.00000  Uiso   1.00
H99    H     0.59977   0.19397   0.04499   0.00000  Uiso   1.00
H100   H     0.40249   0.12459   0.45781   0.00000  Uiso   1.00
H101   H     0.44440   0.18464   0.11148   0.00000  Uiso   1.00
H102   H     0.55363   0.15213   0.38704   0.00000  Uiso   1.00
H103   H     0.66468   0.19625   0.47744   0.00000  Uiso   1.00
H104   H     0.33712   0.12470   0.02526   0.00000  Uiso   1.00
H105   H     0.51763   0.18279   0.08347   0.00000  Uiso   1.00
H106   H     0.48455   0.13538   0.41922   0.00000  Uiso   1.00
C107   C     0.63988   0.02230   0.22590   0.00000  Uiso   1.00
C108   C     0.36015   0.31104   0.27406   0.00000  Uiso   1.00
H109   H     0.62047   0.03983   0.20607   0.00000  Uiso   1.00
H110   H     0.37956   0.29352   0.29388   0.00000  Uiso   1.00
C111   C     0.64108   0.31284   0.22270   0.00000  Uiso   1.00
C112   C     0.35894   0.02050   0.27726   0.00000  Uiso   1.00
C113   C     0.33433   0.29054   0.24764   0.00000  Uiso   1.00
C114   C     0.66568   0.04280   0.25233   0.00000  Uiso   1.00
C115   C     0.51635   0.14296   0.27997   0.00000  Uiso   1.00
C116   C     0.48366   0.19036   0.22001   0.00000  Uiso   1.00
H117   H     0.52825   0.12388   0.30394   0.00000  Uiso   1.00
H118   H     0.47175   0.20943   0.19604   0.00000  Uiso   1.00
C119   C     0.46674   0.14300   0.27998   0.00000  Uiso   1.00
C120   C     0.53327   0.19030   0.21999   0.00000  Uiso   1.00
H121   H     0.44128   0.12406   0.30399   0.00000  Uiso   1.00
H122   H     0.55874   0.20921   0.19594   0.00000  Uiso   1.00
N123   N     0.45069   0.16668   0.24999   0.00000  Uiso   1.00
N124   N     0.54931   0.16666   0.25001   0.00000  Uiso   1.00
Br125  Br    0.61105   0.12698   0.11660   0.00000  Uiso   1.00
Br126  Br    0.39085   0.19719   0.38640   0.00000  Uiso   1.00
N127   N     0.61740   0.29288   0.19247   0.00000  Uiso   1.00
O128   O     0.63944   0.26378   0.16587   0.00000  Uiso   1.00
O129   O     0.57718   0.30782   0.18659   0.00000  Uiso   1.00
N130   N     0.38264   0.04047   0.30747   0.00000  Uiso   1.00
O131   O     0.36057   0.06950   0.33414   0.00000  Uiso   1.00
O132   O     0.42296   0.02560   0.31322   0.00000  Uiso   1.00
O133   O     0.70625   0.10655   0.25000   0.00000  Uiso   1.00
O134   O     0.96042   0.22678   0.25000   0.00000  Uiso   1.00
O135   O     0.96039   0.10654   0.25001   0.00000  Uiso   1.00
O136   O     0.70628   0.22679   0.24999   0.00000  Uiso   1.00
C137   C     0.99958   0.08743   0.25127   0.00000  Uiso   1.00
C138   C     0.66709   0.24591   0.24872   0.00000  Uiso   1.00
O139   O     0.68519   0.16668   0.31491   0.00000  Uiso   1.00
O140   O     0.98148   0.16666   0.18509   0.00000  Uiso   1.00
O141   O     0.93933   0.16667   0.31492   0.00000  Uiso   1.00
O142   O     0.72733   0.16667   0.18508   0.00000  Uiso   1.00
C143   C     0.97305   0.16761   0.33630   0.00000  Uiso   1.00
C144   C     0.69359   0.16528   0.16377   0.00000  Uiso   1.00
Cu145  Cu    0.71355   0.16667   0.25000   0.00000  Uiso   1.00
Cu146  Cu    0.95311   0.16666   0.25000   0.00000  Uiso   1.00
C147   C     0.95869   0.16994   0.38590   0.00000  Uiso   1.00
C148   C     0.70793   0.16061   0.11447   0.00000  Uiso   1.00
C149   C     0.97334   0.18621   0.45806   0.00000  Uiso   1.00
C150   C     0.69457   0.13733   0.04389   0.00000  Uiso   1.00
C151   C     0.99070   0.18233   0.41162   0.00000  Uiso   1.00
C152   C     0.67684   0.14401   0.08991   0.00000  Uiso   1.00
C153   C     0.91014   0.16129   0.40777   0.00000  Uiso   1.00
C154   C     0.75603   0.17007   0.09207   0.00000  Uiso   1.00
C155   C     0.89188   0.16562   0.45456   0.00000  Uiso   1.00
C156   C     0.77536   0.16080   0.04634   0.00000  Uiso   1.00
C157   C     0.92451   0.17858   0.47949   0.00000  Uiso   1.00
C158   C     0.74329   0.14516   0.02214   0.00000  Uiso   1.00
C159   C     0.84207   0.15843   0.47707   0.00000  Uiso   1.00
C160   C     0.82551   0.16630   0.02414   0.00000  Uiso   1.00
C161   C     0.85984   0.17837   0.04766   0.00000  Uiso   1.00
C162   C     0.80836   0.14336   0.45428   0.00000  Uiso   1.00
C163   C     0.90822   0.18435   0.02564   0.00000  Uiso   1.00
C164   C     0.76015   0.13668   0.47654   0.00000  Uiso   1.00
H165   H     0.93311   0.19397   0.04499   0.00000  Uiso   1.00
H166   H     0.73582   0.12459   0.45781   0.00000  Uiso   1.00
H167   H     0.77774   0.18464   0.11148   0.00000  Uiso   1.00
H168   H     0.88697   0.15213   0.38704   0.00000  Uiso   1.00
H169   H     0.99802   0.19625   0.47744   0.00000  Uiso   1.00
H170   H     0.67045   0.12470   0.02526   0.00000  Uiso   1.00
H171   H     0.85097   0.18279   0.08347   0.00000  Uiso   1.00
H172   H     0.81788   0.13538   0.41922   0.00000  Uiso   1.00
C173   C     0.97321   0.02230   0.22590   0.00000  Uiso   1.00
C174   C     0.69348   0.31104   0.27406   0.00000  Uiso   1.00
H175   H     0.95381   0.03983   0.20607   0.00000  Uiso   1.00
H176   H     0.71290   0.29352   0.29388   0.00000  Uiso   1.00
C177   C     0.97442   0.31284   0.22270   0.00000  Uiso   1.00
C178   C     0.69227   0.02050   0.27726   0.00000  Uiso   1.00
C179   C     0.66766   0.29054   0.24764   0.00000  Uiso   1.00
C180   C     0.99902   0.04280   0.25233   0.00000  Uiso   1.00
C181   C     0.84968   0.14296   0.27997   0.00000  Uiso   1.00
C182   C     0.81699   0.19036   0.22001   0.00000  Uiso   1.00
H183   H     0.86158   0.12388   0.30394   0.00000  Uiso   1.00
H184   H     0.80509   0.20943   0.19604   0.00000  Uiso   1.00
C185   C     0.80007   0.14300   0.27998   0.00000  Uiso   1.00
C186   C     0.86661   0.19030   0.21999   0.00000  Uiso   1.00
H187   H     0.77461   0.12406   0.30399   0.00000  Uiso   1.00
H188   H     0.89208   0.20921   0.19594   0.00000  Uiso   1.00
N189   N     0.78403   0.16668   0.24999   0.00000  Uiso   1.00
N190   N     0.88264   0.16666   0.25001   0.00000  Uiso   1.00
Br191  Br    0.94439   0.12698   0.11660   0.00000  Uiso   1.00
Br192  Br    0.72419   0.19719   0.38640   0.00000  Uiso   1.00
N193   N     0.95073   0.29288   0.19247   0.00000  Uiso   1.00
O194   O     0.97278   0.26378   0.16587   0.00000  Uiso   1.00
O195   O     0.91051   0.30782   0.18659   0.00000  Uiso   1.00
N196   N     0.71597   0.04047   0.30747   0.00000  Uiso   1.00
O197   O     0.69390   0.06950   0.33414   0.00000  Uiso   1.00
O198   O     0.75630   0.02560   0.31322   0.00000  Uiso   1.00
O199   O     0.03958   0.43989   0.25000   0.00000  Uiso   1.00
O200   O     0.29375   0.56011   0.25000   0.00000  Uiso   1.00
O201   O     0.29372   0.43988   0.25001   0.00000  Uiso   1.00
O202   O     0.03961   0.56012   0.24999   0.00000  Uiso   1.00
C203   C     0.33292   0.42076   0.25127   0.00000  Uiso   1.00
C204   C     0.00042   0.57924   0.24872   0.00000  Uiso   1.00
O205   O     0.01852   0.50001   0.31491   0.00000  Uiso   1.00
O206   O     0.31481   0.49999   0.18509   0.00000  Uiso   1.00
O207   O     0.27267   0.50000   0.31492   0.00000  Uiso   1.00
O208   O     0.06067   0.50000   0.18508   0.00000  Uiso   1.00
C209   C     0.30639   0.50094   0.33630   0.00000  Uiso   1.00
C210   C     0.02692   0.49862   0.16377   0.00000  Uiso   1.00
Cu211  Cu    0.04689   0.50001   0.25000   0.00000  Uiso   1.00
Cu212  Cu    0.28645   0.49999   0.25000   0.00000  Uiso   1.00
C213   C     0.29202   0.50328   0.38590   0.00000  Uiso   1.00
C214   C     0.04126   0.49394   0.11447   0.00000  Uiso   1.00
C215   C     0.30668   0.51954   0.45806   0.00000  Uiso   1.00
C216   C     0.02791   0.47067   0.04389   0.00000  Uiso   1.00
C217   C     0.32404   0.51566   0.41162   0.00000  Uiso   1.00
C218   C     0.01017   0.47734   0.08991   0.00000  Uiso   1.00
C219   C     0.24347   0.49462   0.40777   0.00000  Uiso   1.00
C220   C     0.08936   0.50340   0.09207   0.00000  Uiso   1.00
C221   C     0.22521   0.49895   0.45456   0.00000  Uiso   1.00
C222   C     0.10869   0.49413   0.04634   0.00000  Uiso   1.00
C223   C     0.25785   0.51191   0.47949   0.00000  Uiso   1.00
C224   C     0.07663   0.47849   0.02214   0.00000  Uiso   1.00
C225   C     0.17541   0.49176   0.47707   0.00000  Uiso   1.00
C226   C     0.15884   0.49964   0.02414   0.00000  Uiso   1.00
C227   C     0.19317   0.51170   0.04766   0.00000  Uiso   1.00
C228   C     0.14169   0.47670   0.45428   0.00000  Uiso   1.00
C229   C     0.24155   0.51769   0.02564   0.00000  Uiso   1.00
C230   C     0.09349   0.47002   0.47654   0.00000  Uiso   1.00
H231   H     0.26644   0.52730   0.04499   0.00000  Uiso   1.00
H232   H     0.06915   0.45792   0.45781   0.00000  Uiso   1.00
H233   H     0.11107   0.51797   0.11148   0.00000  Uiso   1.00
H234   H     0.22030   0.48546   0.38704   0.00000  Uiso   1.00
H235   H     0.33135   0.52958   0.47744   0.00000  Uiso   1.00
H236   H     0.00378   0.45803   0.02526   0.00000  Uiso   1.00
H237   H     0.18430   0.51613   0.08347   0.00000  Uiso   1.00
H238   H     0.15121   0.46871   0.41922   0.00000  Uiso   1.00
C239   C     0.30654   0.35563   0.22590   0.00000  Uiso   1.00
C240   C     0.02681   0.64437   0.27406   0.00000  Uiso   1.00
H241   H     0.28714   0.37316   0.20607   0.00000  Uiso   1.00
H242   H     0.04623   0.62685   0.29388   0.00000  Uiso   1.00
C243   C     0.30775   0.64617   0.22270   0.00000  Uiso   1.00
C244   C     0.02560   0.35383   0.27726   0.00000  Uiso   1.00
C245   C     0.00099   0.62387   0.24764   0.00000  Uiso   1.00
C246   C     0.33235   0.37613   0.25233   0.00000  Uiso   1.00
C247   C     0.18301   0.47629   0.27997   0.00000  Uiso   1.00
C248   C     0.15032   0.52369   0.22001   0.00000  Uiso   1.00
H249   H     0.19492   0.45721   0.30394   0.00000  Uiso   1.00
H250   H     0.13842   0.54276   0.19604   0.00000  Uiso   1.00
C251   C     0.13341   0.47633   0.27998   0.00000  Uiso   1.00
C252   C     0.19994   0.52364   0.21999   0.00000  Uiso   1.00
H253   H     0.10794   0.45739   0.30399   0.00000  Uiso   1.00
H254   H     0.22541   0.54254   0.19594   0.00000  Uiso   1.00
N255   N     0.11736   0.50001   0.24999   0.00000  Uiso   1.00
N256   N     0.21597   0.49999   0.25001   0.00000  Uiso   1.00
Br257  Br    0.27772   0.46031   0.11660   0.00000  Uiso   1.00
Br258  Br    0.05752   0.53053   0.38640   0.00000  Uiso   1.00
N259   N     0.28407   0.62621   0.19247   0.00000  Uiso   1.00
O260   O     0.30611   0.59712   0.16587   0.00000  Uiso   1.00
O261   O     0.24384   0.64115   0.18659   0.00000  Uiso   1.00
N262   N     0.04931   0.37380   0.30747   0.00000  Uiso   1.00
O263   O     0.02723   0.40283   0.33414   0.00000  Uiso   1.00
O264   O     0.08963   0.35894   0.31322   0.00000  Uiso   1.00
O265   O     0.37291   0.43989   0.25000   0.00000  Uiso   1.00
O266   O     0.62709   0.56011   0.25000   0.00000  Uiso   1.00
O267   O     0.62706   0.43988   0.25001   0.00000  Uiso   1.00
O268   O     0.37294   0.56012   0.24999   0.00000  Uiso   1.00
C269   C     0.66625   0.42076   0.25127   0.00000  Uiso   1.00
C270   C     0.33375   0.57924   0.24872   0.00000  Uiso   1.00
O271   O     0.35186   0.50001   0.31491   0.00000  Uiso   1.00
O272   O     0.64814   0.49999   0.18509   0.00000  Uiso   1.00
O273   O     0.60600   0.50000   0.31492   0.00000  Uiso   1.00
O274   O     0.39400   0.50000   0.18508   0.00000  Uiso   1.00
C275   C     0.63972   0.50094   0.33630   0.00000  Uiso   1.00
C276   C     0.36026   0.49862   0.16377   0.00000  Uiso   1.00
Cu277  Cu    0.38022   0.50001   0.25000   0.00000  Uiso   1.00
Cu278  Cu    0.61978   0.49999   0.25000   0.00000  Uiso   1.00
C279   C     0.62535   0.50328   0.38590   0.00000  Uiso   1.00
C280   C     0.37460   0.49394   0.11447   0.00000  Uiso   1.00
C281   C     0.64001   0.51954   0.45806   0.00000  Uiso   1.00
C282   C     0.36124   0.47067   0.04389   0.00000  Uiso   1.00
C283   C     0.65737   0.51566   0.41162   0.00000  Uiso   1.00
C284   C     0.34350   0.47734   0.08991   0.00000  Uiso   1.00
C285   C     0.57681   0.49462   0.40777   0.00000  Uiso   1.00
C286   C     0.42270   0.50340   0.09207   0.00000  Uiso   1.00
C287   C     0.55854   0.49895   0.45456   0.00000  Uiso   1.00
C288   C     0.44203   0.49413   0.04634   0.00000  Uiso   1.00
C289   C     0.59118   0.51191   0.47949   0.00000  Uiso   1.00
C290   C     0.40996   0.47849   0.02214   0.00000  Uiso   1.00
C291   C     0.50874   0.49176   0.47707   0.00000  Uiso   1.00
C292   C     0.49217   0.49964   0.02414   0.00000  Uiso   1.00
C293   C     0.52650   0.51170   0.04766   0.00000  Uiso   1.00
C294   C     0.47502   0.47670   0.45428   0.00000  Uiso   1.00
C295   C     0.57489   0.51769   0.02564   0.00000  Uiso   1.00
C296   C     0.42682   0.47002   0.47654   0.00000  Uiso   1.00
H297   H     0.59977   0.52730   0.04499   0.00000  Uiso   1.00
H298   H     0.40249   0.45792   0.45781   0.00000  Uiso   1.00
H299   H     0.44440   0.51797   0.11148   0.00000  Uiso   1.00
H300   H     0.55363   0.48546   0.38704   0.00000  Uiso   1.00
H301   H     0.66468   0.52958   0.47744   0.00000  Uiso   1.00
H302   H     0.33712   0.45803   0.02526   0.00000  Uiso   1.00
H303   H     0.51763   0.51613   0.08347   0.00000  Uiso   1.00
H304   H     0.48455   0.46871   0.41922   0.00000  Uiso   1.00
C305   C     0.63988   0.35563   0.22590   0.00000  Uiso   1.00
C306   C     0.36015   0.64437   0.27406   0.00000  Uiso   1.00
H307   H     0.62047   0.37316   0.20607   0.00000  Uiso   1.00
H308   H     0.37956   0.62685   0.29388   0.00000  Uiso   1.00
C309   C     0.64108   0.64617   0.22270   0.00000  Uiso   1.00
C310   C     0.35894   0.35383   0.27726   0.00000  Uiso   1.00
C311   C     0.33433   0.62387   0.24764   0.00000  Uiso   1.00
C312   C     0.66568   0.37613   0.25233   0.00000  Uiso   1.00
C313   C     0.51635   0.47629   0.27997   0.00000  Uiso   1.00
C314   C     0.48366   0.52369   0.22001   0.00000  Uiso   1.00
H315   H     0.52825   0.45721   0.30394   0.00000  Uiso   1.00
H316   H     0.47175   0.54276   0.19604   0.00000  Uiso   1.00
C317   C     0.46674   0.47633   0.27998   0.00000  Uiso   1.00
C318   C     0.53327   0.52364   0.21999   0.00000  Uiso   1.00
H319   H     0.44128   0.45739   0.30399   0.00000  Uiso   1.00
H320   H     0.55874   0.54254   0.19594   0.00000  Uiso   1.00
N321   N     0.45069   0.50001   0.24999   0.00000  Uiso   1.00
N322   N     0.54931   0.49999   0.25001   0.00000  Uiso   1.00
Br323  Br    0.61105   0.46031   0.11660   0.00000  Uiso   1.00
Br324  Br    0.39085   0.53053   0.38640   0.00000  Uiso   1.00
N325   N     0.61740   0.62621   0.19247   0.00000  Uiso   1.00
O326   O     0.63944   0.59712   0.16587   0.00000  Uiso   1.00
O327   O     0.57718   0.64115   0.18659   0.00000  Uiso   1.00
N328   N     0.38264   0.37380   0.30747   0.00000  Uiso   1.00
O329   O     0.36057   0.40283   0.33414   0.00000  Uiso   1.00
O330   O     0.42296   0.35894   0.31322   0.00000  Uiso   1.00
O331   O     0.70625   0.43989   0.25000   0.00000  Uiso   1.00
O332   O     0.96042   0.56011   0.25000   0.00000  Uiso   1.00
O333   O     0.96039   0.43988   0.25001   0.00000  Uiso   1.00
O334   O     0.70628   0.56012   0.24999   0.00000  Uiso   1.00
C335   C     0.99958   0.42076   0.25127   0.00000  Uiso   1.00
C336   C     0.66709   0.57924   0.24872   0.00000  Uiso   1.00
O337   O     0.68519   0.50001   0.31491   0.00000  Uiso   1.00
O338   O     0.98148   0.49999   0.18509   0.00000  Uiso   1.00
O339   O     0.93933   0.50000   0.31492   0.00000  Uiso   1.00
O340   O     0.72733   0.50000   0.18508   0.00000  Uiso   1.00
C341   C     0.97305   0.50094   0.33630   0.00000  Uiso   1.00
C342   C     0.69359   0.49862   0.16377   0.00000  Uiso   1.00
Cu343  Cu    0.71355   0.50001   0.25000   0.00000  Uiso   1.00
Cu344  Cu    0.95311   0.49999   0.25000   0.00000  Uiso   1.00
C345   C     0.95869   0.50328   0.38590   0.00000  Uiso   1.00
C346   C     0.70793   0.49394   0.11447   0.00000  Uiso   1.00
C347   C     0.97334   0.51954   0.45806   0.00000  Uiso   1.00
C348   C     0.69457   0.47067   0.04389   0.00000  Uiso   1.00
C349   C     0.99070   0.51566   0.41162   0.00000  Uiso   1.00
C350   C     0.67684   0.47734   0.08991   0.00000  Uiso   1.00
C351   C     0.91014   0.49462   0.40777   0.00000  Uiso   1.00
C352   C     0.75603   0.50340   0.09207   0.00000  Uiso   1.00
C353   C     0.89188   0.49895   0.45456   0.00000  Uiso   1.00
C354   C     0.77536   0.49413   0.04634   0.00000  Uiso   1.00
C355   C     0.92451   0.51191   0.47949   0.00000  Uiso   1.00
C356   C     0.74329   0.47849   0.02214   0.00000  Uiso   1.00
C357   C     0.84207   0.49176   0.47707   0.00000  Uiso   1.00
C358   C     0.82551   0.49964   0.02414   0.00000  Uiso   1.00
C359   C     0.85984   0.51170   0.04766   0.00000  Uiso   1.00
C360   C     0.80836   0.47670   0.45428   0.00000  Uiso   1.00
C361   C     0.90822   0.51769   0.02564   0.00000  Uiso   1.00
C362   C     0.76015   0.47002   0.47654   0.00000  Uiso   1.00
H363   H     0.93311   0.52730   0.04499   0.00000  Uiso   1.00
H364   H     0.73582   0.45792   0.45781   0.00000  Uiso   1.00
H365   H     0.77774   0.51797   0.11148   0.00000  Uiso   1.00
H366   H     0.88697   0.48546   0.38704   0.00000  Uiso   1.00
H367   H     0.99802   0.52958   0.47744   0.00000  Uiso   1.00
H368   H     0.67045   0.45803   0.02526   0.00000  Uiso   1.00
H369   H     0.85097   0.51613   0.08347   0.00000  Uiso   1.00
H370   H     0.81788   0.46871   0.41922   0.00000  Uiso   1.00
C371   C     0.97321   0.35563   0.22590   0.00000  Uiso   1.00
C372   C     0.69348   0.64437   0.27406   0.00000  Uiso   1.00
H373   H     0.95381   0.37316   0.20607   0.00000  Uiso   1.00
H374   H     0.71290   0.62685   0.29388   0.00000  Uiso   1.00
C375   C     0.97442   0.64617   0.22270   0.00000  Uiso   1.00
C376   C     0.69227   0.35383   0.27726   0.00000  Uiso   1.00
C377   C     0.66766   0.62387   0.24764   0.00000  Uiso   1.00
C378   C     0.99902   0.37613   0.25233   0.00000  Uiso   1.00
C379   C     0.84968   0.47629   0.27997   0.00000  Uiso   1.00
C380   C     0.81699   0.52369   0.22001   0.00000  Uiso   1.00
H381   H     0.86158   0.45721   0.30394   0.00000  Uiso   1.00
H382   H     0.80509   0.54276   0.19604   0.00000  Uiso   1.00
C383   C     0.80007   0.47633   0.27998   0.00000  Uiso   1.00
C384   C     0.86661   0.52364   0.21999   0.00000  Uiso   1.00
H385   H     0.77461   0.45739   0.30399   0.00000  Uiso   1.00
H386   H     0.89208   0.54254   0.19594   0.00000  Uiso   1.00
N387   N     0.78403   0.50001   0.24999   0.00000  Uiso   1.00
N388   N     0.88264   0.49999   0.25001   0.00000  Uiso   1.00
Br389  Br    0.94439   0.46031   0.11660   0.00000  Uiso   1.00
Br390  Br    0.72419   0.53053   0.38640   0.00000  Uiso   1.00
N391   N     0.95073   0.62621   0.19247   0.00000  Uiso   1.00
O392   O     0.97278   0.59712   0.16587   0.00000  Uiso   1.00
O393   O     0.91051   0.64115   0.18659   0.00000  Uiso   1.00
N394   N     0.71597   0.37380   0.30747   0.00000  Uiso   1.00
O395   O     0.69390   0.40283   0.33414   0.00000  Uiso   1.00
O396   O     0.75630   0.35894   0.31322   0.00000  Uiso   1.00
O397   O     0.03958   0.77322   0.25000   0.00000  Uiso   1.00
O398   O     0.29375   0.89345   0.25000   0.00000  Uiso   1.00
O399   O     0.29372   0.77321   0.25001   0.00000  Uiso   1.00
O400   O     0.03961   0.89346   0.24999   0.00000  Uiso   1.00
C401   C     0.33292   0.75409   0.25127   0.00000  Uiso   1.00
C402   C     0.00042   0.91257   0.24872   0.00000  Uiso   1.00
O403   O     0.01852   0.83334   0.31491   0.00000  Uiso   1.00
O404   O     0.31481   0.83332   0.18509   0.00000  Uiso   1.00
O405   O     0.27267   0.83333   0.31492   0.00000  Uiso   1.00
O406   O     0.06067   0.83333   0.18508   0.00000  Uiso   1.00
C407   C     0.30639   0.83428   0.33630   0.00000  Uiso   1.00
C408   C     0.02692   0.83195   0.16377   0.00000  Uiso   1.00
Cu409  Cu    0.04689   0.83334   0.25000   0.00000  Uiso   1.00
Cu410  Cu    0.28645   0.83333   0.25000   0.00000  Uiso   1.00
C411   C     0.29202   0.83661   0.38590   0.00000  Uiso   1.00
C412   C     0.04126   0.82727   0.11447   0.00000  Uiso   1.00
C413   C     0.30668   0.85288   0.45806   0.00000  Uiso   1.00
C414   C     0.02791   0.80400   0.04389   0.00000  Uiso   1.00
C415   C     0.32404   0.84900   0.41162   0.00000  Uiso   1.00
C416   C     0.01017   0.81068   0.08991   0.00000  Uiso   1.00
C417   C     0.24347   0.82796   0.40777   0.00000  Uiso   1.00
C418   C     0.08936   0.83673   0.09207   0.00000  Uiso   1.00
C419   C     0.22521   0.83229   0.45456   0.00000  Uiso   1.00
C420   C     0.10869   0.82747   0.04634   0.00000  Uiso   1.00
C421   C     0.25785   0.84525   0.47949   0.00000  Uiso   1.00
C422   C     0.07663   0.81182   0.02214   0.00000  Uiso   1.00
C423   C     0.17541   0.82510   0.47707   0.00000  Uiso   1.00
C424   C     0.15884   0.83297   0.02414   0.00000  Uiso   1.00
C425   C     0.19317   0.84503   0.04766   0.00000  Uiso   1.00
C426   C     0.14169   0.81003   0.45428   0.00000  Uiso   1.00
C427   C     0.24155   0.85102   0.02564   0.00000  Uiso   1.00
C428   C     0.09349   0.80335   0.47654   0.00000  Uiso   1.00
H429   H     0.26644   0.86064   0.04499   0.00000  Uiso   1.00
H430   H     0.06915   0.79125   0.45781   0.00000  Uiso   1.00
H431   H     0.11107   0.85131   0.11148   0.00000  Uiso   1.00
H432   H     0.22030   0.81880   0.38704   0.00000  Uiso   1.00
H433   H     0.33135   0.86291   0.47744   0.00000  Uiso   1.00
H434   H     0.00378   0.79137   0.02526   0.00000  Uiso   1.00
H435   H     0.18430   0.84946   0.08347   0.00000  Uiso   1.00
H436   H     0.15121   0.80205   0.41922   0.00000  Uiso   1.00
C437   C     0.30654   0.68897   0.22590   0.00000  Uiso   1.00
C438   C     0.02681   0.97771   0.27406   0.00000  Uiso   1.00
H439   H     0.28714   0.70650   0.20607   0.00000  Uiso   1.00
H440   H     0.04623   0.96019   0.29388   0.00000  Uiso   1.00
C441   C     0.30775   0.97951   0.22270   0.00000  Uiso   1.00
C442   C     0.02560   0.68717   0.27726   0.00000  Uiso   1.00
C443   C     0.00099   0.95721   0.24764   0.00000  Uiso   1.00
C444   C     0.33235   0.70947   0.25233   0.00000  Uiso   1.00
C445   C     0.18301   0.80962   0.27997   0.00000  Uiso   1.00
C446   C     0.15032   0.85703   0.22001   0.00000  Uiso   1.00
H447   H     0.19492   0.79055   0.30394   0.00000  Uiso   1.00
H448   H     0.13842   0.87609   0.19604   0.00000  Uiso   1.00
C449   C     0.13341   0.80966   0.27998   0.00000  Uiso   1.00
C450   C     0.19994   0.85697   0.21999   0.00000  Uiso   1.00
H451   H     0.10794   0.79073   0.30399   0.00000  Uiso   1.00
H452   H     0.22541   0.87587   0.19594   0.00000  Uiso   1.00
N453   N     0.11736   0.83334   0.24999   0.00000  Uiso   1.00
N454   N     0.21597   0.83332   0.25001   0.00000  Uiso   1.00
Br455  Br    0.27772   0.79365   0.11660   0.00000  Uiso   1.00
Br456  Br    0.05752   0.86386   0.38640   0.00000  Uiso   1.00
N457   N     0.28407   0.95954   0.19247   0.00000  Uiso   1.00
O458   O     0.30611   0.93045   0.16587   0.00000  Uiso   1.00
O459   O     0.24384   0.97449   0.18659   0.00000  Uiso   1.00
N460   N     0.04931   0.70713   0.30747   0.00000  Uiso   1.00
O461   O     0.02723   0.73617   0.33414   0.00000  Uiso   1.00
O462   O     0.08963   0.69227   0.31322   0.00000  Uiso   1.00
O463   O     0.37291   0.77322   0.25000   0.00000  Uiso   1.00
O464   O     0.62709   0.89345   0.25000   0.00000  Uiso   1.00
O465   O     0.62706   0.77321   0.25001   0.00000  Uiso   1.00
O466   O     0.37294   0.89346   0.24999   0.00000  Uiso   1.00
C467   C     0.66625   0.75409   0.25127   0.00000  Uiso   1.00
C468   C     0.33375   0.91257   0.24872   0.00000  Uiso   1.00
O469   O     0.35186   0.83334   0.31491   0.00000  Uiso   1.00
O470   O     0.64814   0.83332   0.18509   0.00000  Uiso   1.00
O471   O     0.60600   0.83333   0.31492   0.00000  Uiso   1.00
O472   O     0.39400   0.83333   0.18508   0.00000  Uiso   1.00
C473   C     0.63972   0.83428   0.33630   0.00000  Uiso   1.00
C474   C     0.36026   0.83195   0.16377   0.00000  Uiso   1.00
Cu475  Cu    0.38022   0.83334   0.25000   0.00000  Uiso   1.00
Cu476  Cu    0.61978   0.83333   0.25000   0.00000  Uiso   1.00
C477   C     0.62535   0.83661   0.38590   0.00000  Uiso   1.00
C478   C     0.37460   0.82727   0.11447   0.00000  Uiso   1.00
C479   C     0.64001   0.85288   0.45806   0.00000  Uiso   1.00
C480   C     0.36124   0.80400   0.04389   0.00000  Uiso   1.00
C481   C     0.65737   0.84900   0.41162   0.00000  Uiso   1.00
C482   C     0.34350   0.81068   0.08991   0.00000  Uiso   1.00
C483   C     0.57681   0.82796   0.40777   0.00000  Uiso   1.00
C484   C     0.42270   0.83673   0.09207   0.00000  Uiso   1.00
C485   C     0.55854   0.83229   0.45456   0.00000  Uiso   1.00
C486   C     0.44203   0.82747   0.04634   0.00000  Uiso   1.00
C487   C     0.59118   0.84525   0.47949   0.00000  Uiso   1.00
C488   C     0.40996   0.81182   0.02214   0.00000  Uiso   1.00
C489   C     0.50874   0.82510   0.47707   0.00000  Uiso   1.00
C490   C     0.49217   0.83297   0.02414   0.00000  Uiso   1.00
C491   C     0.52650   0.84503   0.04766   0.00000  Uiso   1.00
C492   C     0.47502   0.81003   0.45428   0.00000  Uiso   1.00
C493   C     0.57489   0.85102   0.02564   0.00000  Uiso   1.00
C494   C     0.42682   0.80335   0.47654   0.00000  Uiso   1.00
H495   H     0.59977   0.86064   0.04499   0.00000  Uiso   1.00
H496   H     0.40249   0.79125   0.45781   0.00000  Uiso   1.00
H497   H     0.44440   0.85131   0.11148   0.00000  Uiso   1.00
H498   H     0.55363   0.81880   0.38704   0.00000  Uiso   1.00
H499   H     0.66468   0.86291   0.47744   0.00000  Uiso   1.00
H500   H     0.33712   0.79137   0.02526   0.00000  Uiso   1.00
H501   H     0.51763   0.84946   0.08347   0.00000  Uiso   1.00
H502   H     0.48455   0.80205   0.41922   0.00000  Uiso   1.00
C503   C     0.63988   0.68897   0.22590   0.00000  Uiso   1.00
C504   C     0.36015   0.97771   0.27406   0.00000  Uiso   1.00
H505   H     0.62047   0.70650   0.20607   0.00000  Uiso   1.00
H506   H     0.37956   0.96019   0.29388   0.00000  Uiso   1.00
C507   C     0.64108   0.97951   0.22270   0.00000  Uiso   1.00
C508   C     0.35894   0.68717   0.27726   0.00000  Uiso   1.00
C509   C     0.33433   0.95721   0.24764   0.00000  Uiso   1.00
C510   C     0.66568   0.70947   0.25233   0.00000  Uiso   1.00
C511   C     0.51635   0.80962   0.27997   0.00000  Uiso   1.00
C512   C     0.48366   0.85703   0.22001   0.00000  Uiso   1.00
H513   H     0.52825   0.79055   0.30394   0.00000  Uiso   1.00
H514   H     0.47175   0.87609   0.19604   0.00000  Uiso   1.00
C515   C     0.46674   0.80966   0.27998   0.00000  Uiso   1.00
C516   C     0.53327   0.85697   0.21999   0.00000  Uiso   1.00
H517   H     0.44128   0.79073   0.30399   0.00000  Uiso   1.00
H518   H     0.55874   0.87587   0.19594   0.00000  Uiso   1.00
N519   N     0.45069   0.83334   0.24999   0.00000  Uiso   1.00
N520   N     0.54931   0.83332   0.25001   0.00000  Uiso   1.00
Br521  Br    0.61105   0.79365   0.11660   0.00000  Uiso   1.00
Br522  Br    0.39085   0.86386   0.38640   0.00000  Uiso   1.00
N523   N     0.61740   0.95954   0.19247   0.00000  Uiso   1.00
O524   O     0.63944   0.93045   0.16587   0.00000  Uiso   1.00
O525   O     0.57718   0.97449   0.18659   0.00000  Uiso   1.00
N526   N     0.38264   0.70713   0.30747   0.00000  Uiso   1.00
O527   O     0.36057   0.73617   0.33414   0.00000  Uiso   1.00
O528   O     0.42296   0.69227   0.31322   0.00000  Uiso   1.00
O529   O     0.70625   0.77322   0.25000   0.00000  Uiso   1.00
O530   O     0.96042   0.89345   0.25000   0.00000  Uiso   1.00
O531   O     0.96039   0.77321   0.25001   0.00000  Uiso   1.00
O532   O     0.70628   0.89346   0.24999   0.00000  Uiso   1.00
C533   C     0.99958   0.75409   0.25127   0.00000  Uiso   1.00
C534   C     0.66709   0.91257   0.24872   0.00000  Uiso   1.00
O535   O     0.68519   0.83334   0.31491   0.00000  Uiso   1.00
O536   O     0.98148   0.83332   0.18509   0.00000  Uiso   1.00
O537   O     0.93933   0.83333   0.31492   0.00000  Uiso   1.00
O538   O     0.72733   0.83333   0.18508   0.00000  Uiso   1.00
C539   C     0.97305   0.83428   0.33630   0.00000  Uiso   1.00
C540   C     0.69359   0.83195   0.16377   0.00000  Uiso   1.00
Cu541  Cu    0.71355   0.83334   0.25000   0.00000  Uiso   1.00
Cu542  Cu    0.95311   0.83333   0.25000   0.00000  Uiso   1.00
C543   C     0.95869   0.83661   0.38590   0.00000  Uiso   1.00
C544   C     0.70793   0.82727   0.11447   0.00000  Uiso   1.00
C545   C     0.97334   0.85288   0.45806   0.00000  Uiso   1.00
C546   C     0.69457   0.80400   0.04389   0.00000  Uiso   1.00
C547   C     0.99070   0.84900   0.41162   0.00000  Uiso   1.00
C548   C     0.67684   0.81068   0.08991   0.00000  Uiso   1.00
C549   C     0.91014   0.82796   0.40777   0.00000  Uiso   1.00
C550   C     0.75603   0.83673   0.09207   0.00000  Uiso   1.00
C551   C     0.89188   0.83229   0.45456   0.00000  Uiso   1.00
C552   C     0.77536   0.82747   0.04634   0.00000  Uiso   1.00
C553   C     0.92451   0.84525   0.47949   0.00000  Uiso   1.00
C554   C     0.74329   0.81182   0.02214   0.00000  Uiso   1.00
C555   C     0.84207   0.82510   0.47707   0.00000  Uiso   1.00
C556   C     0.82551   0.83297   0.02414   0.00000  Uiso   1.00
C557   C     0.85984   0.84503   0.04766   0.00000  Uiso   1.00
C558   C     0.80836   0.81003   0.45428   0.00000  Uiso   1.00
C559   C     0.90822   0.85102   0.02564   0.00000  Uiso   1.00
C560   C     0.76015   0.80335   0.47654   0.00000  Uiso   1.00
H561   H     0.93311   0.86064   0.04499   0.00000  Uiso   1.00
H562   H     0.73582   0.79125   0.45781   0.00000  Uiso   1.00
H563   H     0.77774   0.85131   0.11148   0.00000  Uiso   1.00
H564   H     0.88697   0.81880   0.38704   0.00000  Uiso   1.00
H565   H     0.99802   0.86291   0.47744   0.00000  Uiso   1.00
H566   H     0.67045   0.79137   0.02526   0.00000  Uiso   1.00
H567   H     0.85097   0.84946   0.08347   0.00000  Uiso   1.00
H568   H     0.81788   0.80205   0.41922   0.00000  Uiso   1.00
C569   C     0.97321   0.68897   0.22590   0.00000  Uiso   1.00
C570   C     0.69348   0.97771   0.27406   0.00000  Uiso   1.00
H571   H     0.95381   0.70650   0.20607   0.00000  Uiso   1.00
H572   H     0.71290   0.96019   0.29388   0.00000  Uiso   1.00
C573   C     0.97442   0.97951   0.22270   0.00000  Uiso   1.00
C574   C     0.69227   0.68717   0.27726   0.00000  Uiso   1.00
C575   C     0.66766   0.95721   0.24764   0.00000  Uiso   1.00
C576   C     0.99902   0.70947   0.25233   0.00000  Uiso   1.00
C577   C     0.84968   0.80962   0.27997   0.00000  Uiso   1.00
C578   C     0.81699   0.85703   0.22001   0.00000  Uiso   1.00
H579   H     0.86158   0.79055   0.30394   0.00000  Uiso   1.00
H580   H     0.80509   0.87609   0.19604   0.00000  Uiso   1.00
C581   C     0.80007   0.80966   0.27998   0.00000  Uiso   1.00
C582   C     0.86661   0.85697   0.21999   0.00000  Uiso   1.00
H583   H     0.77461   0.79073   0.30399   0.00000  Uiso   1.00
H584   H     0.89208   0.87587   0.19594   0.00000  Uiso   1.00
N585   N     0.78403   0.83334   0.24999   0.00000  Uiso   1.00
N586   N     0.88264   0.83332   0.25001   0.00000  Uiso   1.00
Br587  Br    0.94439   0.79365   0.11660   0.00000  Uiso   1.00
Br588  Br    0.72419   0.86386   0.38640   0.00000  Uiso   1.00
N589   N     0.95073   0.95954   0.19247   0.00000  Uiso   1.00
O590   O     0.97278   0.93045   0.16587   0.00000  Uiso   1.00
O591   O     0.91051   0.97449   0.18659   0.00000  Uiso   1.00
N592   N     0.71597   0.70713   0.30747   0.00000  Uiso   1.00
O593   O     0.69390   0.73617   0.33414   0.00000  Uiso   1.00
O594   O     0.75630   0.69227   0.31322   0.00000  Uiso   1.00
O595   O     0.03958   0.10655   0.75000   0.00000  Uiso   1.00
O596   O     0.29375   0.22678   0.75000   0.00000  Uiso   1.00
O597   O     0.29372   0.10654   0.75001   0.00000  Uiso   1.00
O598   O     0.03961   0.22679   0.74999   0.00000  Uiso   1.00
C599   C     0.33292   0.08743   0.75127   0.00000  Uiso   1.00
C600   C     0.00042   0.24591   0.74872   0.00000  Uiso   1.00
O601   O     0.01852   0.16668   0.81491   0.00000  Uiso   1.00
O602   O     0.31481   0.16666   0.68509   0.00000  Uiso   1.00
O603   O     0.27267   0.16667   0.81492   0.00000  Uiso   1.00
O604   O     0.06067   0.16667   0.68508   0.00000  Uiso   1.00
C605   C     0.30639   0.16761   0.83630   0.00000  Uiso   1.00
C606   C     0.02692   0.16528   0.66377   0.00000  Uiso   1.00
Cu607  Cu    0.04689   0.16667   0.75000   0.00000  Uiso   1.00
Cu608  Cu    0.28645   0.16666   0.75000   0.00000  Uiso   1.00
C609   C     0.29202   0.16994   0.88590   0.00000  Uiso   1.00
C610   C     0.04126   0.16061   0.61447   0.00000  Uiso   1.00
C611   C     0.30668   0.18621   0.95806   0.00000  Uiso   1.00
C612   C     0.02791   0.13733   0.54389   0.00000  Uiso   1.00
C613   C     0.32404   0.18233   0.91162   0.00000  Uiso   1.00
C614   C     0.01017   0.14401   0.58991   0.00000  Uiso   1.00
C615   C     0.24347   0.16129   0.90777   0.00000  Uiso   1.00
C616   C     0.08936   0.17007   0.59207   0.00000  Uiso   1.00
C617   C     0.22521   0.16562   0.95456   0.00000  Uiso   1.00
C618   C     0.10869   0.16080   0.54634   0.00000  Uiso   1.00
C619   C     0.25785   0.17858   0.97949   0.00000  Uiso   1.00
C620   C     0.07663   0.14516   0.52214   0.00000  Uiso   1.00
C621   C     0.17541   0.15843   0.97707   0.00000  Uiso   1.00
C622   C     0.15884   0.16630   0.52414   0.00000  Uiso   1.00
C623   C     0.19317   0.17837   0.54766   0.00000  Uiso   1.00
C624   C     0.14169   0.14336   0.95428   0.00000  Uiso   1.00
C625   C     0.24155   0.18435   0.52564   0.00000  Uiso   1.00
C626   C     0.09349   0.13668   0.97654   0.00000  Uiso   1.00
H627   H     0.26644   0.19397   0.54499   0.00000  Uiso   1.00
H628   H     0.06915   0.12459   0.95781   0.00000  Uiso   1.00
H629   H     0.11107   0.18464   0.61148   0.00000  Uiso   1.00
H630   H     0.22030   0.15213   0.88704   0.00000  Uiso   1.00
H631   H     0.33135   0.19625   0.97744   0.00000  Uiso   1.00
H632   H     0.00378   0.12470   0.52526   0.00000  Uiso   1.00
H633   H     0.18430   0.18279   0.58347   0.00000  Uiso   1.00
H634   H     0.15121   0.13538   0.91922   0.00000  Uiso   1.00
C635   C     0.30654   0.02230   0.72590   0.00000  Uiso   1.00
C636   C     0.02681   0.31104   0.77406   0.00000  Uiso   1.00
H637   H     0.28714   0.03983   0.70607   0.00000  Uiso   1.00
H638   H     0.04623   0.29352   0.79388   0.00000  Uiso   1.00
C639   C     0.30775   0.31284   0.72270   0.00000  Uiso   1.00
C640   C     0.02560   0.02050   0.77726   0.00000  Uiso   1.00
C641   C     0.00099   0.29054   0.74764   0.00000  Uiso   1.00
C642   C     0.33235   0.04280   0.75233   0.00000  Uiso   1.00
C643   C     0.18301   0.14296   0.77997   0.00000  Uiso   1.00
C644   C     0.15032   0.19036   0.72001   0.00000  Uiso   1.00
H645   H     0.19492   0.12388   0.80394   0.00000  Uiso   1.00
H646   H     0.13842   0.20943   0.69604   0.00000  Uiso   1.00
C647   C     0.13341   0.14300   0.77998   0.00000  Uiso   1.00
C648   C     0.19994   0.19030   0.71999   0.00000  Uiso   1.00
H649   H     0.10794   0.12406   0.80399   0.00000  Uiso   1.00
H650   H     0.22541   0.20921   0.69594   0.00000  Uiso   1.00
N651   N     0.11736   0.16668   0.74999   0.00000  Uiso   1.00
N652   N     0.21597   0.16666   0.75001   0.00000  Uiso   1.00
Br653  Br    0.27772   0.12698   0.61660   0.00000  Uiso   1.00
Br654  Br    0.05752   0.19719   0.88640   0.00000  Uiso   1.00
N655   N     0.28407   0.29288   0.69247   0.00000  Uiso   1.00
O656   O     0.30611   0.26378   0.66587   0.00000  Uiso   1.00
O657   O     0.24384   0.30782   0.68659   0.00000  Uiso   1.00
N658   N     0.04931   0.04047   0.80747   0.00000  Uiso   1.00
O659   O     0.02723   0.06950   0.83414   0.00000  Uiso   1.00
O660   O     0.08963   0.02560   0.81322   0.00000  Uiso   1.00
O661   O     0.37291   0.10655   0.75000   0.00000  Uiso   1.00
O662   O     0.62709   0.22678   0.75000   0.00000  Uiso   1.00
O663   O     0.62706   0.10654   0.75001   0.00000  Uiso   1.00
O664   O     0.37294   0.22679   0.74999   0.00000  Uiso   1.00
C665   C     0.66625   0.08743   0.75127   0.00000  Uiso   1.00
C666   C     0.33375   0.24591   0.74872   0.00000  Uiso   1.00
O667   O     0.35186   0.16668   0.81491   0.00000  Uiso   1.00
O668   O     0.64814   0.16666   0.68509   0.00000  Uiso   1.00
O669   O     0.60600   0.16667   0.81492   0.00000  Uiso   1.00
O670   O     0.39400   0.16667   0.68508   0.00000  Uiso   1.00
C671   C     0.63972   0.16761   0.83630   0.00000  Uiso   1.00
C672   C     0.36026   0.16528   0.66377   0.00000  Uiso   1.00
Cu673  Cu    0.38022   0.16667   0.75000   0.00000  Uiso   1.00
Cu674  Cu    0.61978   0.16666   0.75000   0.00000  Uiso   1.00
C675   C     0.62535   0.16994   0.88590   0.00000  Uiso   1.00
C676   C     0.37460   0.16061   0.61447   0.00000  Uiso   1.00
C677   C     0.64001   0.18621   0.95806   0.00000  Uiso   1.00
C678   C     0.36124   0.13733   0.54389   0.00000  Uiso   1.00
C679   C     0.65737   0.18233   0.91162   0.00000  Uiso   1.00
C680   C     0.34350   0.14401   0.58991   0.00000  Uiso   1.00
C681   C     0.57681   0.16129   0.90777   0.00000  Uiso   1.00
C682   C     0.42270   0.17007   0.59207   0.00000  Uiso   1.00
C683   C     0.55854   0.16562   0.95456   0.00000  Uiso   1.00
C684   C     0.44203   0.16080   0.54634   0.00000  Uiso   1.00
C685   C     0.59118   0.17858   0.97949   0.00000  Uiso   1.00
C686   C     0.40996   0.14516   0.52214   0.00000  Uiso   1.00
C687   C     0.50874   0.15843   0.97707   0.00000  Uiso   1.00
C688   C     0.49217   0.16630   0.52414   0.00000  Uiso   1.00
C689   C     0.52650   0.17837   0.54766   0.00000  Uiso   1.00
C690   C     0.47502   0.14336   0.95428   0.00000  Uiso   1.00
C691   C     0.57489   0.18435   0.52564   0.00000  Uiso   1.00
C692   C     0.42682   0.13668   0.97654   0.00000  Uiso   1.00
H693   H     0.59977   0.19397   0.54499   0.00000  Uiso   1.00
H694   H     0.40249   0.12459   0.95781   0.00000  Uiso   1.00
H695   H     0.44440   0.18464   0.61148   0.00000  Uiso   1.00
H696   H     0.55363   0.15213   0.88704   0.00000  Uiso   1.00
H697   H     0.66468   0.19625   0.97744   0.00000  Uiso   1.00
H698   H     0.33712   0.12470   0.52526   0.00000  Uiso   1.00
H699   H     0.51763   0.18279   0.58347   0.00000  Uiso   1.00
H700   H     0.48455   0.13538   0.91922   0.00000  Uiso   1.00
C701   C     0.63988   0.02230   0.72590   0.00000  Uiso   1.00
C702   C     0.36015   0.31104   0.77406   0.00000  Uiso   1.00
H703   H     0.62047   0.03983   0.70607   0.00000  Uiso   1.00
H704   H     0.37956   0.29352   0.79388   0.00000  Uiso   1.00
C705   C     0.64108   0.31284   0.72270   0.00000  Uiso   1.00
C706   C     0.35894   0.02050   0.77726   0.00000  Uiso   1.00
C707   C     0.33433   0.29054   0.74764   0.00000  Uiso   1.00
C708   C     0.66568   0.04280   0.75233   0.00000  Uiso   1.00
C709   C     0.51635   0.14296   0.77997   0.00000  Uiso   1.00
C710   C     0.48366   0.19036   0.72001   0.00000  Uiso   1.00
H711   H     0.52825   0.12388   0.80394   0.00000  Uiso   1.00
H712   H     0.47175   0.20943   0.69604   0.00000  Uiso   1.00
C713   C     0.46674   0.14300   0.77998   0.00000  Uiso   1.00
C714   C     0.53327   0.19030   0.71999   0.00000  Uiso   1.00
H715   H     0.44128   0.12406   0.80399   0.00000  Uiso   1.00
H716   H     0.55874   0.20921   0.69594   0.00000  Uiso   1.00
N717   N     0.45069   0.16668   0.74999   0.00000  Uiso   1.00
N718   N     0.54931   0.16666   0.75001   0.00000  Uiso   1.00
Br719  Br    0.61105   0.12698   0.61660   0.00000  Uiso   1.00
Br720  Br    0.39085   0.19719   0.88640   0.00000  Uiso   1.00
N721   N     0.61740   0.29288   0.69247   0.00000  Uiso   1.00
O722   O     0.63944   0.26378   0.66587   0.00000  Uiso   1.00
O723   O     0.57718   0.30782   0.68659   0.00000  Uiso   1.00
N724   N     0.38264   0.04047   0.80747   0.00000  Uiso   1.00
O725   O     0.36057   0.06950   0.83414   0.00000  Uiso   1.00
O726   O     0.42296   0.02560   0.81322   0.00000  Uiso   1.00
O727   O     0.70625   0.10655   0.75000   0.00000  Uiso   1.00
O728   O     0.96042   0.22678   0.75000   0.00000  Uiso   1.00
O729   O     0.96039   0.10654   0.75001   0.00000  Uiso   1.00
O730   O     0.70628   0.22679   0.74999   0.00000  Uiso   1.00
C731   C     0.99958   0.08743   0.75127   0.00000  Uiso   1.00
C732   C     0.66709   0.24591   0.74872   0.00000  Uiso   1.00
O733   O     0.68519   0.16668   0.81491   0.00000  Uiso   1.00
O734   O     0.98148   0.16666   0.68509   0.00000  Uiso   1.00
O735   O     0.93933   0.16667   0.81492   0.00000  Uiso   1.00
O736   O     0.72733   0.16667   0.68508   0.00000  Uiso   1.00
C737   C     0.97305   0.16761   0.83630   0.00000  Uiso   1.00
C738   C     0.69359   0.16528   0.66377   0.00000  Uiso   1.00
Cu739  Cu    0.71355   0.16667   0.75000   0.00000  Uiso   1.00
Cu740  Cu    0.95311   0.16666   0.75000   0.00000  Uiso   1.00
C741   C     0.95869   0.16994   0.88590   0.00000  Uiso   1.00
C742   C     0.70793   0.16061   0.61447   0.00000  Uiso   1.00
C743   C     0.97334   0.18621   0.95806   0.00000  Uiso   1.00
C744   C     0.69457   0.13733   0.54389   0.00000  Uiso   1.00
C745   C     0.99070   0.18233   0.91162   0.00000  Uiso   1.00
C746   C     0.67684   0.14401   0.58991   0.00000  Uiso   1.00
C747   C     0.91014   0.16129   0.90777   0.00000  Uiso   1.00
C748   C     0.75603   0.17007   0.59207   0.00000  Uiso   1.00
C749   C     0.89188   0.16562   0.95456   0.00000  Uiso   1.00
C750   C     0.77536   0.16080   0.54634   0.00000  Uiso   1.00
C751   C     0.92451   0.17858   0.97949   0.00000  Uiso   1.00
C752   C     0.74329   0.14516   0.52214   0.00000  Uiso   1.00
C753   C     0.84207   0.15843   0.97707   0.00000  Uiso   1.00
C754   C     0.82551   0.16630   0.52414   0.00000  Uiso   1.00
C755   C     0.85984   0.17837   0.54766   0.00000  Uiso   1.00
C756   C     0.80836   0.14336   0.95428   0.00000  Uiso   1.00
C757   C     0.90822   0.18435   0.52564   0.00000  Uiso   1.00
C758   C     0.76015   0.13668   0.97654   0.00000  Uiso   1.00
H759   H     0.93311   0.19397   0.54499   0.00000  Uiso   1.00
H760   H     0.73582   0.12459   0.95781   0.00000  Uiso   1.00
H761   H     0.77774   0.18464   0.61148   0.00000  Uiso   1.00
H762   H     0.88697   0.15213   0.88704   0.00000  Uiso   1.00
H763   H     0.99802   0.19625   0.97744   0.00000  Uiso   1.00
H764   H     0.67045   0.12470   0.52526   0.00000  Uiso   1.00
H765   H     0.85097   0.18279   0.58347   0.00000  Uiso   1.00
H766   H     0.81788   0.13538   0.91922   0.00000  Uiso   1.00
C767   C     0.97321   0.02230   0.72590   0.00000  Uiso   1.00
C768   C     0.69348   0.31104   0.77406   0.00000  Uiso   1.00
H769   H     0.95381   0.03983   0.70607   0.00000  Uiso   1.00
H770   H     0.71290   0.29352   0.79388   0.00000  Uiso   1.00
C771   C     0.97442   0.31284   0.72270   0.00000  Uiso   1.00
C772   C     0.69227   0.02050   0.77726   0.00000  Uiso   1.00
C773   C     0.66766   0.29054   0.74764   0.00000  Uiso   1.00
C774   C     0.99902   0.04280   0.75233   0.00000  Uiso   1.00
C775   C     0.84968   0.14296   0.77997   0.00000  Uiso   1.00
C776   C     0.81699   0.19036   0.72001   0.00000  Uiso   1.00
H777   H     0.86158   0.12388   0.80394   0.00000  Uiso   1.00
H778   H     0.80509   0.20943   0.69604   0.00000  Uiso   1.00
C779   C     0.80007   0.14300   0.77998   0.00000  Uiso   1.00
C780   C     0.86661   0.19030   0.71999   0.00000  Uiso   1.00
H781   H     0.77461   0.12406   0.80399   0.00000  Uiso   1.00
H782   H     0.89208   0.20921   0.69594   0.00000  Uiso   1.00
N783   N     0.78403   0.16668   0.74999   0.00000  Uiso   1.00
N784   N     0.88264   0.16666   0.75001   0.00000  Uiso   1.00
Br785  Br    0.94439   0.12698   0.61660   0.00000  Uiso   1.00
Br786  Br    0.72419   0.19719   0.88640   0.00000  Uiso   1.00
N787   N     0.95073   0.29288   0.69247   0.00000  Uiso   1.00
O788   O     0.97278   0.26378   0.66587   0.00000  Uiso   1.00
O789   O     0.91051   0.30782   0.68659   0.00000  Uiso   1.00
N790   N     0.71597   0.04047   0.80747   0.00000  Uiso   1.00
O791   O     0.69390   0.06950   0.83414   0.00000  Uiso   1.00
O792   O     0.75630   0.02560   0.81322   0.00000  Uiso   1.00
O793   O     0.03958   0.43989   0.75000   0.00000  Uiso   1.00
O794   O     0.29375   0.56011   0.75000   0.00000  Uiso   1.00
O795   O     0.29372   0.43988   0.75001   0.00000  Uiso   1.00
O796   O     0.03961   0.56012   0.74999   0.00000  Uiso   1.00
C797   C     0.33292   0.42076   0.75127   0.00000  Uiso   1.00
C798   C     0.00042   0.57924   0.74872   0.00000  Uiso   1.00
O799   O     0.01852   0.50001   0.81491   0.00000  Uiso   1.00
O800   O     0.31481   0.49999   0.68509   0.00000  Uiso   1.00
O801   O     0.27267   0.50000   0.81492   0.00000  Uiso   1.00
O802   O     0.06067   0.50000   0.68508   0.00000  Uiso   1.00
C803   C     0.30639   0.50094   0.83630   0.00000  Uiso   1.00
C804   C     0.02692   0.49862   0.66377   0.00000  Uiso   1.00
Cu805  Cu    0.04689   0.50001   0.75000   0.00000  Uiso   1.00
Cu806  Cu    0.28645   0.49999   0.75000   0.00000  Uiso   1.00
C807   C     0.29202   0.50328   0.88590   0.00000  Uiso   1.00
C808   C     0.04126   0.49394   0.61447   0.00000  Uiso   1.00
C809   C     0.30668   0.51954   0.95806   0.00000  Uiso   1.00
C810   C     0.02791   0.47067   0.54389   0.00000  Uiso   1.00
C811   C     0.32404   0.51566   0.91162   0.00000  Uiso   1.00
C812   C     0.01017   0.47734   0.58991   0.00000  Uiso   1.00
C813   C     0.24347   0.49462   0.90777   0.00000  Uiso   1.00
C814   C     0.08936   0.50340   0.59207   0.00000  Uiso   1.00
C815   C     0.22521   0.49895   0.95456   0.00000  Uiso   1.00
C816   C     0.10869   0.49413   0.54634   0.00000  Uiso   1.00
C817   C     0.25785   0.51191   0.97949   0.00000  Uiso   1.00
C818   C     0.07663   0.47849   0.52214   0.00000  Uiso   1.00
C819   C     0.17541   0.49176   0.97707   0.00000  Uiso   1.00
C820   C     0.15884   0.49964   0.52414   0.00000  Uiso   1.00
C821   C     0.19317   0.51170   0.54766   0.00000  Uiso   1.00
C822   C     0.14169   0.47670   0.95428   0.00000  Uiso   1.00
C823   C     0.24155   0.51769   0.52564   0.00000  Uiso   1.00
C824   C     0.09349   0.47002   0.97654   0.00000  Uiso   1.00
H825   H     0.26644   0.52730   0.54499   0.00000  Uiso   1.00
H826   H     0.06915   0.45792   0.95781   0.00000  Uiso   1.00
H827   H     0.11107   0.51797   0.61148   0.00000  Uiso   1.00
H828   H     0.22030   0.48546   0.88704   0.00000  Uiso   1.00
H829   H     0.33135   0.52958   0.97744   0.00000  Uiso   1.00
H830   H     0.00378   0.45803   0.52526   0.00000  Uiso   1.00
H831   H     0.18430   0.51613   0.58347   0.00000  Uiso   1.00
H832   H     0.15121   0.46871   0.91922   0.00000  Uiso   1.00
C833   C     0.30654   0.35563   0.72590   0.00000  Uiso   1.00
C834   C     0.02681   0.64437   0.77406   0.00000  Uiso   1.00
H835   H     0.28714   0.37316   0.70607   0.00000  Uiso   1.00
H836   H     0.04623   0.62685   0.79388   0.00000  Uiso   1.00
C837   C     0.30775   0.64617   0.72270   0.00000  Uiso   1.00
C838   C     0.02560   0.35383   0.77726   0.00000  Uiso   1.00
C839   C     0.00099   0.62387   0.74764   0.00000  Uiso   1.00
C840   C     0.33235   0.37613   0.75233   0.00000  Uiso   1.00
C841   C     0.18301   0.47629   0.77997   0.00000  Uiso   1.00
C842   C     0.15032   0.52369   0.72001   0.00000  Uiso   1.00
H843   H     0.19492   0.45721   0.80394   0.00000  Uiso   1.00
H844   H     0.13842   0.54276   0.69604   0.00000  Uiso   1.00
C845   C     0.13341   0.47633   0.77998   0.00000  Uiso   1.00
C846   C     0.19994   0.52364   0.71999   0.00000  Uiso   1.00
H847   H     0.10794   0.45739   0.80399   0.00000  Uiso   1.00
H848   H     0.22541   0.54254   0.69594   0.00000  Uiso   1.00
N849   N     0.11736   0.50001   0.74999   0.00000  Uiso   1.00
N850   N     0.21597   0.49999   0.75001   0.00000  Uiso   1.00
Br851  Br    0.27772   0.46031   0.61660   0.00000  Uiso   1.00
Br852  Br    0.05752   0.53053   0.88640   0.00000  Uiso   1.00
N853   N     0.28407   0.62621   0.69247   0.00000  Uiso   1.00
O854   O     0.30611   0.59712   0.66587   0.00000  Uiso   1.00
O855   O     0.24384   0.64115   0.68659   0.00000  Uiso   1.00
N856   N     0.04931   0.37380   0.80747   0.00000  Uiso   1.00
O857   O     0.02723   0.40283   0.83414   0.00000  Uiso   1.00
O858   O     0.08963   0.35894   0.81322   0.00000  Uiso   1.00
O859   O     0.37291   0.43989   0.75000   0.00000  Uiso   1.00
O860   O     0.62709   0.56011   0.75000   0.00000  Uiso   1.00
O861   O     0.62706   0.43988   0.75001   0.00000  Uiso   1.00
O862   O     0.37294   0.56012   0.74999   0.00000  Uiso   1.00
C863   C     0.66625   0.42076   0.75127   0.00000  Uiso   1.00
C864   C     0.33375   0.57924   0.74872   0.00000  Uiso   1.00
O865   O     0.35186   0.50001   0.81491   0.00000  Uiso   1.00
O866   O     0.64814   0.49999   0.68509   0.00000  Uiso   1.00
O867   O     0.60600   0.50000   0.81492   0.00000  Uiso   1.00
O868   O     0.39400   0.50000   0.68508   0.00000  Uiso   1.00
C869   C     0.63972   0.50094   0.83630   0.00000  Uiso   1.00
C870   C     0.36026   0.49862   0.66377   0.00000  Uiso   1.00
Cu871  Cu    0.38022   0.50001   0.75000   0.00000  Uiso   1.00
Cu872  Cu    0.61978   0.49999   0.75000   0.00000  Uiso   1.00
C873   C     0.62535   0.50328   0.88590   0.00000  Uiso   1.00
C874   C     0.37460   0.49394   0.61447   0.00000  Uiso   1.00
C875   C     0.64001   0.51954   0.95806   0.00000  Uiso   1.00
C876   C     0.36124   0.47067   0.54389   0.00000  Uiso   1.00
C877   C     0.65737   0.51566   0.91162   0.00000  Uiso   1.00
C878   C     0.34350   0.47734   0.58991   0.00000  Uiso   1.00
C879   C     0.57681   0.49462   0.90777   0.00000  Uiso   1.00
C880   C     0.42270   0.50340   0.59207   0.00000  Uiso   1.00
C881   C     0.55854   0.49895   0.95456   0.00000  Uiso   1.00
C882   C     0.44203   0.49413   0.54634   0.00000  Uiso   1.00
C883   C     0.59118   0.51191   0.97949   0.00000  Uiso   1.00
C884   C     0.40996   0.47849   0.52214   0.00000  Uiso   1.00
C885   C     0.50874   0.49176   0.97707   0.00000  Uiso   1.00
C886   C     0.49217   0.49964   0.52414   0.00000  Uiso   1.00
C887   C     0.52650   0.51170   0.54766   0.00000  Uiso   1.00
C888   C     0.47502   0.47670   0.95428   0.00000  Uiso   1.00
C889   C     0.57489   0.51769   0.52564   0.00000  Uiso   1.00
C890   C     0.42682   0.47002   0.97654   0.00000  Uiso   1.00
H891   H     0.59977   0.52730   0.54499   0.00000  Uiso   1.00
H892   H     0.40249   0.45792   0.95781   0.00000  Uiso   1.00
H893   H     0.44440   0.51797   0.61148   0.00000  Uiso   1.00
H894   H     0.55363   0.48546   0.88704   0.00000  Uiso   1.00
H895   H     0.66468   0.52958   0.97744   0.00000  Uiso   1.00
H896   H     0.33712   0.45803   0.52526   0.00000  Uiso   1.00
H897   H     0.51763   0.51613   0.58347   0.00000  Uiso   1.00
H898   H     0.48455   0.46871   0.91922   0.00000  Uiso   1.00
C899   C     0.63988   0.35563   0.72590   0.00000  Uiso   1.00
C900   C     0.36015   0.64437   0.77406   0.00000  Uiso   1.00
H901   H     0.62047   0.37316   0.70607   0.00000  Uiso   1.00
H902   H     0.37956   0.62685   0.79388   0.00000  Uiso   1.00
C903   C     0.64108   0.64617   0.72270   0.00000  Uiso   1.00
C904   C     0.35894   0.35383   0.77726   0.00000  Uiso   1.00
C905   C     0.33433   0.62387   0.74764   0.00000  Uiso   1.00
C906   C     0.66568   0.37613   0.75233   0.00000  Uiso   1.00
C907   C     0.51635   0.47629   0.77997   0.00000  Uiso   1.00
C908   C     0.48366   0.52369   0.72001   0.00000  Uiso   1.00
H909   H     0.52825   0.45721   0.80394   0.00000  Uiso   1.00
H910   H     0.47175   0.54276   0.69604   0.00000  Uiso   1.00
C911   C     0.46674   0.47633   0.77998   0.00000  Uiso   1.00
C912   C     0.53327   0.52364   0.71999   0.00000  Uiso   1.00
H913   H     0.44128   0.45739   0.80399   0.00000  Uiso   1.00
H914   H     0.55874   0.54254   0.69594   0.00000  Uiso   1.00
N915   N     0.45069   0.50001   0.74999   0.00000  Uiso   1.00
N916   N     0.54931   0.49999   0.75001   0.00000  Uiso   1.00
Br917  Br    0.61105   0.46031   0.61660   0.00000  Uiso   1.00
Br918  Br    0.39085   0.53053   0.88640   0.00000  Uiso   1.00
N919   N     0.61740   0.62621   0.69247   0.00000  Uiso   1.00
O920   O     0.63944   0.59712   0.66587   0.00000  Uiso   1.00
O921   O     0.57718   0.64115   0.68659   0.00000  Uiso   1.00
N922   N     0.38264   0.37380   0.80747   0.00000  Uiso   1.00
O923   O     0.36057   0.40283   0.83414   0.00000  Uiso   1.00
O924   O     0.42296   0.35894   0.81322   0.00000  Uiso   1.00
O925   O     0.70625   0.43989   0.75000   0.00000  Uiso   1.00
O926   O     0.96042   0.56011   0.75000   0.00000  Uiso   1.00
O927   O     0.96039   0.43988   0.75001   0.00000  Uiso   1.00
O928   O     0.70628   0.56012   0.74999   0.00000  Uiso   1.00
C929   C     0.99958   0.42076   0.75127   0.00000  Uiso   1.00
C930   C     0.66709   0.57924   0.74872   0.00000  Uiso   1.00
O931   O     0.68519   0.50001   0.81491   0.00000  Uiso   1.00
O932   O     0.98148   0.49999   0.68509   0.00000  Uiso   1.00
O933   O     0.93933   0.50000   0.81492   0.00000  Uiso   1.00
O934   O     0.72733   0.50000   0.68508   0.00000  Uiso   1.00
C935   C     0.97305   0.50094   0.83630   0.00000  Uiso   1.00
C936   C     0.69359   0.49862   0.66377   0.00000  Uiso   1.00
Cu937  Cu    0.71355   0.50001   0.75000   0.00000  Uiso   1.00
Cu938  Cu    0.95311   0.49999   0.75000   0.00000  Uiso   1.00
C939   C     0.95869   0.50328   0.88590   0.00000  Uiso   1.00
C940   C     0.70793   0.49394   0.61447   0.00000  Uiso   1.00
C941   C     0.97334   0.51954   0.95806   0.00000  Uiso   1.00
C942   C     0.69457   0.47067   0.54389   0.00000  Uiso   1.00
C943   C     0.99070   0.51566   0.91162   0.00000  Uiso   1.00
C944   C     0.67684   0.47734   0.58991   0.00000  Uiso   1.00
C945   C     0.91014   0.49462   0.90777   0.00000  Uiso   1.00
C946   C     0.75603   0.50340   0.59207   0.00000  Uiso   1.00
C947   C     0.89188   0.49895   0.95456   0.00000  Uiso   1.00
C948   C     0.77536   0.49413   0.54634   0.00000  Uiso   1.00
C949   C     0.92451   0.51191   0.97949   0.00000  Uiso   1.00
C950   C     0.74329   0.47849   0.52214   0.00000  Uiso   1.00
C951   C     0.84207   0.49176   0.97707   0.00000  Uiso   1.00
C952   C     0.82551   0.49964   0.52414   0.00000  Uiso   1.00
C953   C     0.85984   0.51170   0.54766   0.00000  Uiso   1.00
C954   C     0.80836   0.47670   0.95428   0.00000  Uiso   1.00
C955   C     0.90822   0.51769   0.52564   0.00000  Uiso   1.00
C956   C     0.76015   0.47002   0.97654   0.00000  Uiso   1.00
H957   H     0.93311   0.52730   0.54499   0.00000  Uiso   1.00
H958   H     0.73582   0.45792   0.95781   0.00000  Uiso   1.00
H959   H     0.77774   0.51797   0.61148   0.00000  Uiso   1.00
H960   H     0.88697   0.48546   0.88704   0.00000  Uiso   1.00
H961   H     0.99802   0.52958   0.97744   0.00000  Uiso   1.00
H962   H     0.67045   0.45803   0.52526   0.00000  Uiso   1.00
H963   H     0.85097   0.51613   0.58347   0.00000  Uiso   1.00
H964   H     0.81788   0.46871   0.91922   0.00000  Uiso   1.00
C965   C     0.97321   0.35563   0.72590   0.00000  Uiso   1.00
C966   C     0.69348   0.64437   0.77406   0.00000  Uiso   1.00
H967   H     0.95381   0.37316   0.70607   0.00000  Uiso   1.00
H968   H     0.71290   0.62685   0.79388   0.00000  Uiso   1.00
C969   C     0.97442   0.64617   0.72270   0.00000  Uiso   1.00
C970   C     0.69227   0.35383   0.77726   0.00000  Uiso   1.00
C971   C     0.66766   0.62387   0.74764   0.00000  Uiso   1.00
C972   C     0.99902   0.37613   0.75233   0.00000  Uiso   1.00
C973   C     0.84968   0.47629   0.77997   0.00000  Uiso   1.00
C974   C     0.81699   0.52369   0.72001   0.00000  Uiso   1.00
H975   H     0.86158   0.45721   0.80394   0.00000  Uiso   1.00
H976   H     0.80509   0.54276   0.69604   0.00000  Uiso   1.00
C977   C     0.80007   0.47633   0.77998   0.00000  Uiso   1.00
C978   C     0.86661   0.52364   0.71999   0.00000  Uiso   1.00
H979   H     0.77461   0.45739   0.80399   0.00000  Uiso   1.00
H980   H     0.89208   0.54254   0.69594   0.00000  Uiso   1.00
N981   N     0.78403   0.50001   0.74999   0.00000  Uiso   1.00
N982   N     0.88264   0.49999   0.75001   0.00000  Uiso   1.00
Br983  Br    0.94439   0.46031   0.61660   0.00000  Uiso   1.00
Br984  Br    0.72419   0.53053   0.88640   0.00000  Uiso   1.00
N985   N     0.95073   0.62621   0.69247   0.00000  Uiso   1.00
O986   O     0.97278   0.59712   0.66587   0.00000  Uiso   1.00
O987   O     0.91051   0.64115   0.68659   0.00000  Uiso   1.00
N988   N     0.71597   0.37380   0.80747   0.00000  Uiso   1.00
O989   O     0.69390   0.40283   0.83414   0.00000  Uiso   1.00
O990   O     0.75630   0.35894   0.81322   0.00000  Uiso   1.00
O991   O     0.03958   0.77322   0.75000   0.00000  Uiso   1.00
O992   O     0.29375   0.89345   0.75000   0.00000  Uiso   1.00
O993   O     0.29372   0.77321   0.75001   0.00000  Uiso   1.00
O994   O     0.03961   0.89346   0.74999   0.00000  Uiso   1.00
C995   C     0.33292   0.75409   0.75127   0.00000  Uiso   1.00
C996   C     0.00042   0.91257   0.74872   0.00000  Uiso   1.00
O997   O     0.01852   0.83334   0.81491   0.00000  Uiso   1.00
O998   O     0.31481   0.83332   0.68509   0.00000  Uiso   1.00
O999   O     0.27267   0.83333   0.81492   0.00000  Uiso   1.00
O1000  O     0.06067   0.83333   0.68508   0.00000  Uiso   1.00
C1001  C     0.30639   0.83428   0.83630   0.00000  Uiso   1.00
C1002  C     0.02692   0.83195   0.66377   0.00000  Uiso   1.00
Cu1003 Cu    0.04689   0.83334   0.75000   0.00000  Uiso   1.00
Cu1004 Cu    0.28645   0.83333   0.75000   0.00000  Uiso   1.00
C1005  C     0.29202   0.83661   0.88590   0.00000  Uiso   1.00
C1006  C     0.04126   0.82727   0.61447   0.00000  Uiso   1.00
C1007  C     0.30668   0.85288   0.95806   0.00000  Uiso   1.00
C1008  C     0.02791   0.80400   0.54389   0.00000  Uiso   1.00
C1009  C     0.32404   0.84900   0.91162   0.00000  Uiso   1.00
C1010  C     0.01017   0.81068   0.58991   0.00000  Uiso   1.00
C1011  C     0.24347   0.82796   0.90777   0.00000  Uiso   1.00
C1012  C     0.08936   0.83673   0.59207   0.00000  Uiso   1.00
C1013  C     0.22521   0.83229   0.95456   0.00000  Uiso   1.00
C1014  C     0.10869   0.82747   0.54634   0.00000  Uiso   1.00
C1015  C     0.25785   0.84525   0.97949   0.00000  Uiso   1.00
C1016  C     0.07663   0.81182   0.52214   0.00000  Uiso   1.00
C1017  C     0.17541   0.82510   0.97707   0.00000  Uiso   1.00
C1018  C     0.15884   0.83297   0.52414   0.00000  Uiso   1.00
C1019  C     0.19317   0.84503   0.54766   0.00000  Uiso   1.00
C1020  C     0.14169   0.81003   0.95428   0.00000  Uiso   1.00
C1021  C     0.24155   0.85102   0.52564   0.00000  Uiso   1.00
C1022  C     0.09349   0.80335   0.97654   0.00000  Uiso   1.00
H1023  H     0.26644   0.86064   0.54499   0.00000  Uiso   1.00
H1024  H     0.06915   0.79125   0.95781   0.00000  Uiso   1.00
H1025  H     0.11107   0.85131   0.61148   0.00000  Uiso   1.00
H1026  H     0.22030   0.81880   0.88704   0.00000  Uiso   1.00
H1027  H     0.33135   0.86291   0.97744   0.00000  Uiso   1.00
H1028  H     0.00378   0.79137   0.52526   0.00000  Uiso   1.00
H1029  H     0.18430   0.84946   0.58347   0.00000  Uiso   1.00
H1030  H     0.15121   0.80205   0.91922   0.00000  Uiso   1.00
C1031  C     0.30654   0.68897   0.72590   0.00000  Uiso   1.00
C1032  C     0.02681   0.97771   0.77406   0.00000  Uiso   1.00
H1033  H     0.28714   0.70650   0.70607   0.00000  Uiso   1.00
H1034  H     0.04623   0.96019   0.79388   0.00000  Uiso   1.00
C1035  C     0.30775   0.97951   0.72270   0.00000  Uiso   1.00
C1036  C     0.02560   0.68717   0.77726   0.00000  Uiso   1.00
C1037  C     0.00099   0.95721   0.74764   0.00000  Uiso   1.00
C1038  C     0.33235   0.70947   0.75233   0.00000  Uiso   1.00
C1039  C     0.18301   0.80962   0.77997   0.00000  Uiso   1.00
C1040  C     0.15032   0.85703   0.72001   0.00000  Uiso   1.00
H1041  H     0.19492   0.79055   0.80394   0.00000  Uiso   1.00
H1042  H     0.13842   0.87609   0.69604   0.00000  Uiso   1.00
C1043  C     0.13341   0.80966   0.77998   0.00000  Uiso   1.00
C1044  C     0.19994   0.85697   0.71999   0.00000  Uiso   1.00
H1045  H     0.10794   0.79073   0.80399   0.00000  Uiso   1.00
H1046  H     0.22541   0.87587   0.69594   0.00000  Uiso   1.00
N1047  N     0.11736   0.83334   0.74999   0.00000  Uiso   1.00
N1048  N     0.21597   0.83332   0.75001   0.00000  Uiso   1.00
Br1049 Br    0.27772   0.79365   0.61660   0.00000  Uiso   1.00
Br1050 Br    0.05752   0.86386   0.88640   0.00000  Uiso   1.00
N1051  N     0.28407   0.95954   0.69247   0.00000  Uiso   1.00
O1052  O     0.30611   0.93045   0.66587   0.00000  Uiso   1.00
O1053  O     0.24384   0.97449   0.68659   0.00000  Uiso   1.00
N1054  N     0.04931   0.70713   0.80747   0.00000  Uiso   1.00
O1055  O     0.02723   0.73617   0.83414   0.00000  Uiso   1.00
O1056  O     0.08963   0.69227   0.81322   0.00000  Uiso   1.00
O1057  O     0.37291   0.77322   0.75000   0.00000  Uiso   1.00
O1058  O     0.62709   0.89345   0.75000   0.00000  Uiso   1.00
O1059  O     0.62706   0.77321   0.75001   0.00000  Uiso   1.00
O1060  O     0.37294   0.89346   0.74999   0.00000  Uiso   1.00
C1061  C     0.66625   0.75409   0.75127   0.00000  Uiso   1.00
C1062  C     0.33375   0.91257   0.74872   0.00000  Uiso   1.00
O1063  O     0.35186   0.83334   0.81491   0.00000  Uiso   1.00
O1064  O     0.64814   0.83332   0.68509   0.00000  Uiso   1.00
O1065  O     0.60600   0.83333   0.81492   0.00000  Uiso   1.00
O1066  O     0.39400   0.83333   0.68508   0.00000  Uiso   1.00
C1067  C     0.63972   0.83428   0.83630   0.00000  Uiso   1.00
C1068  C     0.36026   0.83195   0.66377   0.00000  Uiso   1.00
Cu1069 Cu    0.38022   0.83334   0.75000   0.00000  Uiso   1.00
Cu1070 Cu    0.61978   0.83333   0.75000   0.00000  Uiso   1.00
C1071  C     0.62535   0.83661   0.88590   0.00000  Uiso   1.00
C1072  C     0.37460   0.82727   0.61447   0.00000  Uiso   1.00
C1073  C     0.64001   0.85288   0.95806   0.00000  Uiso   1.00
C1074  C     0.36124   0.80400   0.54389   0.00000  Uiso   1.00
C1075  C     0.65737   0.84900   0.91162   0.00000  Uiso   1.00
C1076  C     0.34350   0.81068   0.58991   0.00000  Uiso   1.00
C1077  C     0.57681   0.82796   0.90777   0.00000  Uiso   1.00
C1078  C     0.42270   0.83673   0.59207   0.00000  Uiso   1.00
C1079  C     0.55854   0.83229   0.95456   0.00000  Uiso   1.00
C1080  C     0.44203   0.82747   0.54634   0.00000  Uiso   1.00
C1081  C     0.59118   0.84525   0.97949   0.00000  Uiso   1.00
C1082  C     0.40996   0.81182   0.52214   0.00000  Uiso   1.00
C1083  C     0.50874   0.82510   0.97707   0.00000  Uiso   1.00
C1084  C     0.49217   0.83297   0.52414   0.00000  Uiso   1.00
C1085  C     0.52650   0.84503   0.54766   0.00000  Uiso   1.00
C1086  C     0.47502   0.81003   0.95428   0.00000  Uiso   1.00
C1087  C     0.57489   0.85102   0.52564   0.00000  Uiso   1.00
C1088  C     0.42682   0.80335   0.97654   0.00000  Uiso   1.00
H1089  H     0.59977   0.86064   0.54499   0.00000  Uiso   1.00
H1090  H     0.40249   0.79125   0.95781   0.00000  Uiso   1.00
H1091  H     0.44440   0.85131   0.61148   0.00000  Uiso   1.00
H1092  H     0.55363   0.81880   0.88704   0.00000  Uiso   1.00
H1093  H     0.66468   0.86291   0.97744   0.00000  Uiso   1.00
H1094  H     0.33712   0.79137   0.52526   0.00000  Uiso   1.00
H1095  H     0.51763   0.84946   0.58347   0.00000  Uiso   1.00
H1096  H     0.48455   0.80205   0.91922   0.00000  Uiso   1.00
C1097  C     0.63988   0.68897   0.72590   0.00000  Uiso   1.00
C1098  C     0.36015   0.97771   0.77406   0.00000  Uiso   1.00
H1099  H     0.62047   0.70650   0.70607   0.00000  Uiso   1.00
H1100  H     0.37956   0.96019   0.79388   0.00000  Uiso   1.00
C1101  C     0.64108   0.97951   0.72270   0.00000  Uiso   1.00
C1102  C     0.35894   0.68717   0.77726   0.00000  Uiso   1.00
C1103  C     0.33433   0.95721   0.74764   0.00000  Uiso   1.00
C1104  C     0.66568   0.70947   0.75233   0.00000  Uiso   1.00
C1105  C     0.51635   0.80962   0.77997   0.00000  Uiso   1.00
C1106  C     0.48366   0.85703   0.72001   0.00000  Uiso   1.00
H1107  H     0.52825   0.79055   0.80394   0.00000  Uiso   1.00
H1108  H     0.47175   0.87609   0.69604   0.00000  Uiso   1.00
C1109  C     0.46674   0.80966   0.77998   0.00000  Uiso   1.00
C1110  C     0.53327   0.85697   0.71999   0.00000  Uiso   1.00
H1111  H     0.44128   0.79073   0.80399   0.00000  Uiso   1.00
H1112  H     0.55874   0.87587   0.69594   0.00000  Uiso   1.00
N1113  N     0.45069   0.83334   0.74999   0.00000  Uiso   1.00
N1114  N     0.54931   0.83332   0.75001   0.00000  Uiso   1.00
Br1115 Br    0.61105   0.79365   0.61660   0.00000  Uiso   1.00
Br1116 Br    0.39085   0.86386   0.88640   0.00000  Uiso   1.00
N1117  N     0.61740   0.95954   0.69247   0.00000  Uiso   1.00
O1118  O     0.63944   0.93045   0.66587   0.00000  Uiso   1.00
O1119  O     0.57718   0.97449   0.68659   0.00000  Uiso   1.00
N1120  N     0.38264   0.70713   0.80747   0.00000  Uiso   1.00
O1121  O     0.36057   0.73617   0.83414   0.00000  Uiso   1.00
O1122  O     0.42296   0.69227   0.81322   0.00000  Uiso   1.00
O1123  O     0.70625   0.77322   0.75000   0.00000  Uiso   1.00
O1124  O     0.96042   0.89345   0.75000   0.00000  Uiso   1.00
O1125  O     0.96039   0.77321   0.75001   0.00000  Uiso   1.00
O1126  O     0.70628   0.89346   0.74999   0.00000  Uiso   1.00
C1127  C     0.99958   0.75409   0.75127   0.00000  Uiso   1.00
C1128  C     0.66709   0.91257   0.74872   0.00000  Uiso   1.00
O1129  O     0.68519   0.83334   0.81491   0.00000  Uiso   1.00
O1130  O     0.98148   0.83332   0.68509   0.00000  Uiso   1.00
O1131  O     0.93933   0.83333   0.81492   0.00000  Uiso   1.00
O1132  O     0.72733   0.83333   0.68508   0.00000  Uiso   1.00
C1133  C     0.97305   0.83428   0.83630   0.00000  Uiso   1.00
C1134  C     0.69359   0.83195   0.66377   0.00000  Uiso   1.00
Cu1135 Cu    0.71355   0.83334   0.75000   0.00000  Uiso   1.00
Cu1136 Cu    0.95311   0.83333   0.75000   0.00000  Uiso   1.00
C1137  C     0.95869   0.83661   0.88590   0.00000  Uiso   1.00
C1138  C     0.70793   0.82727   0.61447   0.00000  Uiso   1.00
C1139  C     0.97334   0.85288   0.95806   0.00000  Uiso   1.00
C1140  C     0.69457   0.80400   0.54389   0.00000  Uiso   1.00
C1141  C     0.99070   0.84900   0.91162   0.00000  Uiso   1.00
C1142  C     0.67684   0.81068   0.58991   0.00000  Uiso   1.00
C1143  C     0.91014   0.82796   0.90777   0.00000  Uiso   1.00
C1144  C     0.75603   0.83673   0.59207   0.00000  Uiso   1.00
C1145  C     0.89188   0.83229   0.95456   0.00000  Uiso   1.00
C1146  C     0.77536   0.82747   0.54634   0.00000  Uiso   1.00
C1147  C     0.92451   0.84525   0.97949   0.00000  Uiso   1.00
C1148  C     0.74329   0.81182   0.52214   0.00000  Uiso   1.00
C1149  C     0.84207   0.82510   0.97707   0.00000  Uiso   1.00
C1150  C     0.82551   0.83297   0.52414   0.00000  Uiso   1.00
C1151  C     0.85984   0.84503   0.54766   0.00000  Uiso   1.00
C1152  C     0.80836   0.81003   0.95428   0.00000  Uiso   1.00
C1153  C     0.90822   0.85102   0.52564   0.00000  Uiso   1.00
C1154  C     0.76015   0.80335   0.97654   0.00000  Uiso   1.00
H1155  H     0.93311   0.86064   0.54499   0.00000  Uiso   1.00
H1156  H     0.73582   0.79125   0.95781   0.00000  Uiso   1.00
H1157  H     0.77774   0.85131   0.61148   0.00000  Uiso   1.00
H1158  H     0.88697   0.81880   0.88704   0.00000  Uiso   1.00
H1159  H     0.99802   0.86291   0.97744   0.00000  Uiso   1.00
H1160  H     0.67045   0.79137   0.52526   0.00000  Uiso   1.00
H1161  H     0.85097   0.84946   0.58347   0.00000  Uiso   1.00
H1162  H     0.81788   0.80205   0.91922   0.00000  Uiso   1.00
C1163  C     0.97321   0.68897   0.72590   0.00000  Uiso   1.00
C1164  C     0.69348   0.97771   0.77406   0.00000  Uiso   1.00
H1165  H     0.95381   0.70650   0.70607   0.00000  Uiso   1.00
H1166  H     0.71290   0.96019   0.79388   0.00000  Uiso   1.00
C1167  C     0.97442   0.97951   0.72270   0.00000  Uiso   1.00
C1168  C     0.69227   0.68717   0.77726   0.00000  Uiso   1.00
C1169  C     0.66766   0.95721   0.74764   0.00000  Uiso   1.00
C1170  C     0.99902   0.70947   0.75233   0.00000  Uiso   1.00
C1171  C     0.84968   0.80962   0.77997   0.00000  Uiso   1.00
C1172  C     0.81699   0.85703   0.72001   0.00000  Uiso   1.00
H1173  H     0.86158   0.79055   0.80394   0.00000  Uiso   1.00
H1174  H     0.80509   0.87609   0.69604   0.00000  Uiso   1.00
C1175  C     0.80007   0.80966   0.77998   0.00000  Uiso   1.00
C1176  C     0.86661   0.85697   0.71999   0.00000  Uiso   1.00
H1177  H     0.77461   0.79073   0.80399   0.00000  Uiso   1.00
H1178  H     0.89208   0.87587   0.69594   0.00000  Uiso   1.00
N1179  N     0.78403   0.83334   0.74999   0.00000  Uiso   1.00
N1180  N     0.88264   0.83332   0.75001   0.00000  Uiso   1.00
Br1181 Br    0.94439   0.79365   0.61660   0.00000  Uiso   1.00
Br1182 Br    0.72419   0.86386   0.88640   0.00000  Uiso   1.00
N1183  N     0.95073   0.95954   0.69247   0.00000  Uiso   1.00
O1184  O     0.97278   0.93045   0.66587   0.00000  Uiso   1.00
O1185  O     0.91051   0.97449   0.68659   0.00000  Uiso   1.00
N1186  N     0.71597   0.70713   0.80747   0.00000  Uiso   1.00
O1187  O     0.69390   0.73617   0.83414   0.00000  Uiso   1.00
O1188  O     0.75630   0.69227   0.81322   0.00000  Uiso   1.00
loop_
_geom_bond_atom_site_label_1
_geom_bond_atom_site_label_2
_geom_bond_distance
_geom_bond_site_symmetry_2
_ccdc_geom_bond_type
O1     Cu13    1.958   .     S
O1     C137    1.290   1_455 S
O2     Cu14    1.958   .     S
O2     C72     1.290   .     S
O3     Cu14    1.959   .     S
O3     C5      1.289   .     A
O4     C6      1.289   .     A
O4     Cu13    1.959   .     S
C5     C48     1.446   .     S
C5     O67     1.290   .     S
C6     C47     1.446   .     S
C6     O134    1.290   1_455 S
O7     Cu13    1.953   .     S
O7     C143    1.295   1_455 S
O8     Cu14    1.953   .     S
O8     C78     1.294   .     S
O9     Cu14    1.935   .     S
O9     C11     1.300   .     A
O10    C12     1.299   .     A
O10    Cu13    1.935   .     S
C11    C15     1.478   .     S
C11    O73     1.295   .     S
C12    C16     1.475   .     S
C12    O140    1.294   1_455 S
Cu13   N57     2.011   .     S
Cu13   Cu146   2.677   1_455 S
Cu14   N58     2.011   .     S
Cu14   Cu79    2.677   .     S
C15    C21     1.402   .     A
C15    C19     1.414   .     A
C16    C20     1.413   .     A
C16    C22     1.401   .     A
C17    C25     1.400   .     A
C17    C19     1.393   .     A
C17    H37     1.084   .     S
C18    C26     1.401   .     A
C18    H38     1.084   .     S
C18    C20     1.393   .     A
C19    Br126   1.924   .     S
C20    Br191   1.924   1_455 S
C21    C23     1.407   .     A
C21    H36     1.073   .     S
C22    H35     1.075   .     S
C22    C24     1.407   .     A
C23    C27     1.429   .     A
C23    C25     1.416   .     A
C24    C26     1.415   .     A
C24    C28     1.428   .     A
C25    C625    1.389   .     S
C26    C626    1.390   1_554 S
C27    C30     1.417   .     A
C27    C622    1.427   .     S
C28    C29     1.416   .     A
C28    C621    1.427   1_554 S
C29    H39     1.076   .     S
C29    C31     1.385   .     A
C30    H40     1.075   .     S
C30    C32     1.386   .     A
C31    H33     1.084   .     S
C31    C619    1.389   1_554 S
C32    H34     1.085   .     S
C32    C620    1.390   .     S
C41    H43     1.084   .     S
C41    C48     1.399   .     A
C41    C441    1.390   1_545 S
C42    H44     1.084   .     S
C42    C47     1.399   .     A
C42    C244    1.390   .     S
C45    N61     1.438   .     S
C45    C239    1.390   .     S
C45    C113    1.410   .     S
C46    N64     1.438   .     S
C46    C438    1.390   1_545 S
C46    C180    1.410   1_455 S
C47    C177    1.410   1_455 S
C48    C112    1.410   .     S
C49    H51     1.082   .     S
C49    C53     1.416   .     A
C49    N58     1.367   .     A
C50    H52     1.082   .     S
C50    C54     1.416   .     A
C50    N57     1.367   .     A
C53    H55     1.081   .     S
C53    N57     1.366   .     A
C54    H56     1.081   .     S
C54    N58     1.366   .     A
Br59   C86     1.924   .     S
Br60   C151    1.924   1_455 S
N61    O62     1.302   .     A
N61    O63     1.302   .     A
N64    O65     1.302   .     A
N64    O66     1.302   .     A
O67    Cu79    1.958   .     S
O68    Cu80    1.958   .     S
O68    C138    1.290   .     S
O69    Cu80    1.959   .     S
O69    C71     1.289   .     A
O70    C72     1.289   .     A
O70    Cu79    1.959   .     S
C71    C114    1.446   .     S
C71    O133    1.290   .     S
C72    C113    1.446   .     S
O73    Cu79    1.953   .     S
O74    Cu80    1.953   .     S
O74    C144    1.294   .     S
O75    Cu80    1.935   .     S
O75    C77     1.300   .     A
O76    C78     1.299   .     A
O76    Cu79    1.935   .     S
C77    C81     1.478   .     S
C77    O139    1.295   .     S
C78    C82     1.475   .     S
Cu79   N123    2.011   .     S
Cu80   N124    2.011   .     S
Cu80   Cu145   2.677   .     S
C81    C87     1.402   .     A
C81    C85     1.414   .     A
C82    C86     1.413   .     A
C82    C88     1.401   .     A
C83    C91     1.400   .     A
C83    C85     1.393   .     A
C83    H103    1.084   .     S
C84    C92     1.401   .     A
C84    H104    1.084   .     S
C84    C86     1.393   .     A
C85    Br192   1.924   .     S
C87    C89     1.407   .     A
C87    H102    1.073   .     S
C88    H101    1.075   .     S
C88    C90     1.407   .     A
C89    C93     1.429   .     A
C89    C91     1.416   .     A
C90    C92     1.415   .     A
C90    C94     1.428   .     A
C91    C691    1.389   .     S
C92    C692    1.390   1_554 S
C93    C96     1.417   .     A
C93    C688    1.427   .     S
C94    C95     1.416   .     A
C94    C687    1.427   1_554 S
C95    H105    1.076   .     S
C95    C97     1.385   .     A
C96    H106    1.075   .     S
C96    C98     1.386   .     A
C97    H99     1.084   .     S
C97    C685    1.389   1_554 S
C98    H100    1.085   .     S
C98    C686    1.390   .     S
C107   H109    1.084   .     S
C107   C114    1.399   .     A
C107   C507    1.390   1_545 S
C108   H110    1.084   .     S
C108   C113    1.399   .     A
C108   C310    1.390   .     S
C111   N127    1.438   .     S
C111   C305    1.390   .     S
C111   C179    1.410   .     S
C112   N130    1.438   .     S
C112   C504    1.390   1_545 S
C114   C178    1.410   .     S
C115   H117    1.082   .     S
C115   C119    1.416   .     A
C115   N124    1.367   .     A
C116   H118    1.082   .     S
C116   C120    1.416   .     A
C116   N123    1.367   .     A
C119   H121    1.081   .     S
C119   N123    1.366   .     A
C120   H122    1.081   .     S
C120   N124    1.366   .     A
Br125  C152    1.924   .     S
N127   O128    1.302   .     A
N127   O129    1.302   .     A
N130   O131    1.302   .     A
N130   O132    1.302   .     A
O133   Cu145   1.958   .     S
O134   Cu146   1.958   .     S
O134   C6      1.290   1_655 S
O135   Cu146   1.959   .     S
O135   C137    1.289   .     A
O136   C138    1.289   .     A
O136   Cu145   1.959   .     S
C137   C180    1.446   .     S
C137   O1      1.290   1_655 S
C138   C179    1.446   .     S
O139   Cu145   1.953   .     S
O140   Cu146   1.953   .     S
O140   C12     1.294   1_655 S
O141   Cu146   1.935   .     S
O141   C143    1.300   .     A
O142   C144    1.299   .     A
O142   Cu145   1.935   .     S
C143   C147    1.478   .     S
C143   O7      1.295   1_655 S
C144   C148    1.475   .     S
Cu145  N189    2.011   .     S
Cu146  N190    2.011   .     S
Cu146  Cu13    2.677   1_655 S
C147   C153    1.402   .     A
C147   C151    1.414   .     A
C148   C152    1.413   .     A
C148   C154    1.401   .     A
C149   C157    1.400   .     A
C149   C151    1.393   .     A
C149   H169    1.084   .     S
C150   C158    1.401   .     A
C150   H170    1.084   .     S
C150   C152    1.393   .     A
C151   Br60    1.924   1_655 S
C153   C155    1.407   .     A
C153   H168    1.073   .     S
C154   H167    1.075   .     S
C154   C156    1.407   .     A
C155   C159    1.429   .     A
C155   C157    1.416   .     A
C156   C158    1.415   .     A
C156   C160    1.428   .     A
C157   C757    1.389   .     S
C158   C758    1.390   1_554 S
C159   C162    1.417   .     A
C159   C754    1.427   .     S
C160   C161    1.416   .     A
C160   C753    1.427   1_554 S
C161   H171    1.076   .     S
C161   C163    1.385   .     A
C162   H172    1.075   .     S
C162   C164    1.386   .     A
C163   H165    1.084   .     S
C163   C751    1.389   1_554 S
C164   H166    1.085   .     S
C164   C752    1.390   .     S
C173   H175    1.084   .     S
C173   C180    1.399   .     A
C173   C573    1.390   1_545 S
C174   H176    1.084   .     S
C174   C179    1.399   .     A
C174   C376    1.390   .     S
C177   N193    1.438   .     S
C177   C371    1.390   .     S
C177   C47     1.410   1_655 S
C178   N196    1.438   .     S
C178   C570    1.390   1_545 S
C180   C46     1.410   1_655 S
C181   H183    1.082   .     S
C181   C185    1.416   .     A
C181   N190    1.367   .     A
C182   H184    1.082   .     S
C182   C186    1.416   .     A
C182   N189    1.367   .     A
C185   H187    1.081   .     S
C185   N189    1.366   .     A
C186   H188    1.081   .     S
C186   N190    1.366   .     A
Br191  C20     1.924   1_655 S
N193   O194    1.302   .     A
N193   O195    1.302   .     A
N196   O197    1.302   .     A
N196   O198    1.302   .     A
O199   Cu211   1.958   .     S
O199   C335    1.290   1_455 S
O200   Cu212   1.958   .     S
O200   C270    1.290   .     S
O201   Cu212   1.959   .     S
O201   C203    1.289   .     A
O202   C204    1.289   .     A
O202   Cu211   1.959   .     S
C203   C246    1.446   .     S
C203   O265    1.290   .     S
C204   C245    1.446   .     S
C204   O332    1.290   1_455 S
O205   Cu211   1.953   .     S
O205   C341    1.295   1_455 S
O206   Cu212   1.953   .     S
O206   C276    1.294   .     S
O207   Cu212   1.935   .     S
O207   C209    1.300   .     A
O208   C210    1.299   .     A
O208   Cu211   1.935   .     S
C209   C213    1.478   .     S
C209   O271    1.295   .     S
C210   C214    1.475   .     S
C210   O338    1.294   1_455 S
Cu211  N255    2.011   .     S
Cu211  Cu344   2.677   1_455 S
Cu212  N256    2.011   .     S
Cu212  Cu277   2.677   .     S
C213   C219    1.402   .     A
C213   C217    1.414   .     A
C214   C218    1.413   .     A
C214   C220    1.401   .     A
C215   C223    1.400   .     A
C215   C217    1.393   .     A
C215   H235    1.084   .     S
C216   C224    1.401   .     A
C216   H236    1.084   .     S
C216   C218    1.393   .     A
C217   Br324   1.924   .     S
C218   Br389   1.924   1_455 S
C219   C221    1.407   .     A
C219   H234    1.073   .     S
C220   H233    1.075   .     S
C220   C222    1.407   .     A
C221   C225    1.429   .     A
C221   C223    1.416   .     A
C222   C224    1.415   .     A
C222   C226    1.428   .     A
C223   C823    1.389   .     S
C224   C824    1.390   1_554 S
C225   C228    1.417   .     A
C225   C820    1.427   .     S
C226   C227    1.416   .     A
C226   C819    1.427   1_554 S
C227   H237    1.076   .     S
C227   C229    1.385   .     A
C228   H238    1.075   .     S
C228   C230    1.386   .     A
C229   H231    1.084   .     S
C229   C817    1.389   1_554 S
C230   H232    1.085   .     S
C230   C818    1.390   .     S
C239   H241    1.084   .     S
C239   C246    1.399   .     A
C240   H242    1.084   .     S
C240   C245    1.399   .     A
C240   C442    1.390   .     S
C243   N259    1.438   .     S
C243   C437    1.390   .     S
C243   C311    1.410   .     S
C244   N262    1.438   .     S
C244   C378    1.410   1_455 S
C245   C375    1.410   1_455 S
C246   C310    1.410   .     S
C247   H249    1.082   .     S
C247   C251    1.416   .     A
C247   N256    1.367   .     A
C248   H250    1.082   .     S
C248   C252    1.416   .     A
C248   N255    1.367   .     A
C251   H253    1.081   .     S
C251   N255    1.366   .     A
C252   H254    1.081   .     S
C252   N256    1.366   .     A
Br257  C284    1.924   .     S
Br258  C349    1.924   1_455 S
N259   O260    1.302   .     A
N259   O261    1.302   .     A
N262   O263    1.302   .     A
N262   O264    1.302   .     A
O265   Cu277   1.958   .     S
O266   Cu278   1.958   .     S
O266   C336    1.290   .     S
O267   Cu278   1.959   .     S
O267   C269    1.289   .     A
O268   C270    1.289   .     A
O268   Cu277   1.959   .     S
C269   C312    1.446   .     S
C269   O331    1.290   .     S
C270   C311    1.446   .     S
O271   Cu277   1.953   .     S
O272   Cu278   1.953   .     S
O272   C342    1.294   .     S
O273   Cu278   1.935   .     S
O273   C275    1.300   .     A
O274   C276    1.299   .     A
O274   Cu277   1.935   .     S
C275   C279    1.478   .     S
C275   O337    1.295   .     S
C276   C280    1.475   .     S
Cu277  N321    2.011   .     S
Cu278  N322    2.011   .     S
Cu278  Cu343   2.677   .     S
C279   C285    1.402   .     A
C279   C283    1.414   .     A
C280   C284    1.413   .     A
C280   C286    1.401   .     A
C281   C289    1.400   .     A
C281   C283    1.393   .     A
C281   H301    1.084   .     S
C282   C290    1.401   .     A
C282   H302    1.084   .     S
C282   C284    1.393   .     A
C283   Br390   1.924   .     S
C285   C287    1.407   .     A
C285   H300    1.073   .     S
C286   H299    1.075   .     S
C286   C288    1.407   .     A
C287   C291    1.429   .     A
C287   C289    1.416   .     A
C288   C290    1.415   .     A
C288   C292    1.428   .     A
C289   C889    1.389   .     S
C290   C890    1.390   1_554 S
C291   C294    1.417   .     A
C291   C886    1.427   .     S
C292   C293    1.416   .     A
C292   C885    1.427   1_554 S
C293   H303    1.076   .     S
C293   C295    1.385   .     A
C294   H304    1.075   .     S
C294   C296    1.386   .     A
C295   H297    1.084   .     S
C295   C883    1.389   1_554 S
C296   H298    1.085   .     S
C296   C884    1.390   .     S
C305   H307    1.084   .     S
C305   C312    1.399   .     A
C306   H308    1.084   .     S
C306   C311    1.399   .     A
C306   C508    1.390   .     S
C309   N325    1.438   .     S
C309   C503    1.390   .     S
C309   C377    1.410   .     S
C310   N328    1.438   .     S
C312   C376    1.410   .     S
C313   H315    1.082   .     S
C313   C317    1.416   .     A
C313   N322    1.367   .     A
C314   H316    1.082   .     S
C314   C318    1.416   .     A
C314   N321    1.367   .     A
C317   H319    1.081   .     S
C317   N321    1.366   .     A
C318   H320    1.081   .     S
C318   N322    1.366   .     A
Br323  C350    1.924   .     S
N325   O326    1.302   .     A
N325   O327    1.302   .     A
N328   O329    1.302   .     A
N328   O330    1.302   .     A
O331   Cu343   1.958   .     S
O332   Cu344   1.958   .     S
O332   C204    1.290   1_655 S
O333   Cu344   1.959   .     S
O333   C335    1.289   .     A
O334   C336    1.289   .     A
O334   Cu343   1.959   .     S
C335   C378    1.446   .     S
C335   O199    1.290   1_655 S
C336   C377    1.446   .     S
O337   Cu343   1.953   .     S
O338   Cu344   1.953   .     S
O338   C210    1.294   1_655 S
O339   Cu344   1.935   .     S
O339   C341    1.300   .     A
O340   C342    1.299   .     A
O340   Cu343   1.935   .     S
C341   C345    1.478   .     S
C341   O205    1.295   1_655 S
C342   C346    1.475   .     S
Cu343  N387    2.011   .     S
Cu344  N388    2.011   .     S
Cu344  Cu211   2.677   1_655 S
C345   C351    1.402   .     A
C345   C349    1.414   .     A
C346   C350    1.413   .     A
C346   C352    1.401   .     A
C347   C355    1.400   .     A
C347   C349    1.393   .     A
C347   H367    1.084   .     S
C348   C356    1.401   .     A
C348   H368    1.084   .     S
C348   C350    1.393   .     A
C349   Br258   1.924   1_655 S
C351   C353    1.407   .     A
C351   H366    1.073   .     S
C352   H365    1.075   .     S
C352   C354    1.407   .     A
C353   C357    1.429   .     A
C353   C355    1.416   .     A
C354   C356    1.415   .     A
C354   C358    1.428   .     A
C355   C955    1.389   .     S
C356   C956    1.390   1_554 S
C357   C360    1.417   .     A
C357   C952    1.427   .     S
C358   C359    1.416   .     A
C358   C951    1.427   1_554 S
C359   H369    1.076   .     S
C359   C361    1.385   .     A
C360   H370    1.075   .     S
C360   C362    1.386   .     A
C361   H363    1.084   .     S
C361   C949    1.389   1_554 S
C362   H364    1.085   .     S
C362   C950    1.390   .     S
C371   H373    1.084   .     S
C371   C378    1.399   .     A
C372   H374    1.084   .     S
C372   C377    1.399   .     A
C372   C574    1.390   .     S
C375   N391    1.438   .     S
C375   C569    1.390   .     S
C375   C245    1.410   1_655 S
C376   N394    1.438   .     S
C378   C244    1.410   1_655 S
C379   H381    1.082   .     S
C379   C383    1.416   .     A
C379   N388    1.367   .     A
C380   H382    1.082   .     S
C380   C384    1.416   .     A
C380   N387    1.367   .     A
C383   H385    1.081   .     S
C383   N387    1.366   .     A
C384   H386    1.081   .     S
C384   N388    1.366   .     A
Br389  C218    1.924   1_655 S
N391   O392    1.302   .     A
N391   O393    1.302   .     A
N394   O395    1.302   .     A
N394   O396    1.302   .     A
O397   Cu409   1.958   .     S
O397   C533    1.290   1_455 S
O398   Cu410   1.958   .     S
O398   C468    1.290   .     S
O399   Cu410   1.959   .     S
O399   C401    1.289   .     A
O400   C402    1.289   .     A
O400   Cu409   1.959   .     S
C401   C444    1.446   .     S
C401   O463    1.290   .     S
C402   C443    1.446   .     S
C402   O530    1.290   1_455 S
O403   Cu409   1.953   .     S
O403   C539    1.295   1_455 S
O404   Cu410   1.953   .     S
O404   C474    1.294   .     S
O405   Cu410   1.935   .     S
O405   C407    1.300   .     A
O406   C408    1.299   .     A
O406   Cu409   1.935   .     S
C407   C411    1.478   .     S
C407   O469    1.295   .     S
C408   C412    1.475   .     S
C408   O536    1.294   1_455 S
Cu409  N453    2.011   .     S
Cu409  Cu542   2.677   1_455 S
Cu410  N454    2.011   .     S
Cu410  Cu475   2.677   .     S
C411   C417    1.402   .     A
C411   C415    1.414   .     A
C412   C416    1.413   .     A
C412   C418    1.401   .     A
C413   C421    1.400   .     A
C413   C415    1.393   .     A
C413   H433    1.084   .     S
C414   C422    1.401   .     A
C414   H434    1.084   .     S
C414   C416    1.393   .     A
C415   Br522   1.924   .     S
C416   Br587   1.924   1_455 S
C417   C419    1.407   .     A
C417   H432    1.073   .     S
C418   H431    1.075   .     S
C418   C420    1.407   .     A
C419   C423    1.429   .     A
C419   C421    1.416   .     A
C420   C422    1.415   .     A
C420   C424    1.428   .     A
C421   C1021   1.389   .     S
C422   C1022   1.390   1_554 S
C423   C426    1.417   .     A
C423   C1018   1.427   .     S
C424   C425    1.416   .     A
C424   C1017   1.427   1_554 S
C425   H435    1.076   .     S
C425   C427    1.385   .     A
C426   H436    1.075   .     S
C426   C428    1.386   .     A
C427   H429    1.084   .     S
C427   C1015   1.389   1_554 S
C428   H430    1.085   .     S
C428   C1016   1.390   .     S
C437   H439    1.084   .     S
C437   C444    1.399   .     A
C438   H440    1.084   .     S
C438   C443    1.399   .     A
C438   C46     1.390   1_565 S
C441   N457    1.438   .     S
C441   C41     1.390   1_565 S
C441   C509    1.410   .     S
C442   N460    1.438   .     S
C442   C576    1.410   1_455 S
C443   C573    1.410   1_455 S
C444   C508    1.410   .     S
C445   H447    1.082   .     S
C445   C449    1.416   .     A
C445   N454    1.367   .     A
C446   H448    1.082   .     S
C446   C450    1.416   .     A
C446   N453    1.367   .     A
C449   H451    1.081   .     S
C449   N453    1.366   .     A
C450   H452    1.081   .     S
C450   N454    1.366   .     A
Br455  C482    1.924   .     S
Br456  C547    1.924   1_455 S
N457   O458    1.302   .     A
N457   O459    1.302   .     A
N460   O461    1.302   .     A
N460   O462    1.302   .     A
O463   Cu475   1.958   .     S
O464   Cu476   1.958   .     S
O464   C534    1.290   .     S
O465   Cu476   1.959   .     S
O465   C467    1.289   .     A
O466   C468    1.289   .     A
O466   Cu475   1.959   .     S
C467   C510    1.446   .     S
C467   O529    1.290   .     S
C468   C509    1.446   .     S
O469   Cu475   1.953   .     S
O470   Cu476   1.953   .     S
O470   C540    1.294   .     S
O471   Cu476   1.935   .     S
O471   C473    1.300   .     A
O472   C474    1.299   .     A
O472   Cu475   1.935   .     S
C473   C477    1.478   .     S
C473   O535    1.295   .     S
C474   C478    1.475   .     S
Cu475  N519    2.011   .     S
Cu476  N520    2.011   .     S
Cu476  Cu541   2.677   .     S
C477   C483    1.402   .     A
C477   C481    1.414   .     A
C478   C482    1.413   .     A
C478   C484    1.401   .     A
C479   C487    1.400   .     A
C479   C481    1.393   .     A
C479   H499    1.084   .     S
C480   C488    1.401   .     A
C480   H500    1.084   .     S
C480   C482    1.393   .     A
C481   Br588   1.924   .     S
C483   C485    1.407   .     A
C483   H498    1.073   .     S
C484   H497    1.075   .     S
C484   C486    1.407   .     A
C485   C489    1.429   .     A
C485   C487    1.416   .     A
C486   C488    1.415   .     A
C486   C490    1.428   .     A
C487   C1087   1.389   .     S
C488   C1088   1.390   1_554 S
C489   C492    1.417   .     A
C489   C1084   1.427   .     S
C490   C491    1.416   .     A
C490   C1083   1.427   1_554 S
C491   H501    1.076   .     S
C491   C493    1.385   .     A
C492   H502    1.075   .     S
C492   C494    1.386   .     A
C493   H495    1.084   .     S
C493   C1081   1.389   1_554 S
C494   H496    1.085   .     S
C494   C1082   1.390   .     S
C503   H505    1.084   .     S
C503   C510    1.399   .     A
C504   H506    1.084   .     S
C504   C509    1.399   .     A
C504   C112    1.390   1_565 S
C507   N523    1.438   .     S
C507   C107    1.390   1_565 S
C507   C575    1.410   .     S
C508   N526    1.438   .     S
C510   C574    1.410   .     S
C511   H513    1.082   .     S
C511   C515    1.416   .     A
C511   N520    1.367   .     A
C512   H514    1.082   .     S
C512   C516    1.416   .     A
C512   N519    1.367   .     A
C515   H517    1.081   .     S
C515   N519    1.366   .     A
C516   H518    1.081   .     S
C516   N520    1.366   .     A
Br521  C548    1.924   .     S
N523   O524    1.302   .     A
N523   O525    1.302   .     A
N526   O527    1.302   .     A
N526   O528    1.302   .     A
O529   Cu541   1.958   .     S
O530   Cu542   1.958   .     S
O530   C402    1.290   1_655 S
O531   Cu542   1.959   .     S
O531   C533    1.289   .     A
O532   C534    1.289   .     A
O532   Cu541   1.959   .     S
C533   C576    1.446   .     S
C533   O397    1.290   1_655 S
C534   C575    1.446   .     S
O535   Cu541   1.953   .     S
O536   Cu542   1.953   .     S
O536   C408    1.294   1_655 S
O537   Cu542   1.935   .     S
O537   C539    1.300   .     A
O538   C540    1.299   .     A
O538   Cu541   1.935   .     S
C539   C543    1.478   .     S
C539   O403    1.295   1_655 S
C540   C544    1.475   .     S
Cu541  N585    2.011   .     S
Cu542  N586    2.011   .     S
Cu542  Cu409   2.677   1_655 S
C543   C549    1.402   .     A
C543   C547    1.414   .     A
C544   C548    1.413   .     A
C544   C550    1.401   .     A
C545   C553    1.400   .     A
C545   C547    1.393   .     A
C545   H565    1.084   .     S
C546   C554    1.401   .     A
C546   H566    1.084   .     S
C546   C548    1.393   .     A
C547   Br456   1.924   1_655 S
C549   C551    1.407   .     A
C549   H564    1.073   .     S
C550   H563    1.075   .     S
C550   C552    1.407   .     A
C551   C555    1.429   .     A
C551   C553    1.416   .     A
C552   C554    1.415   .     A
C552   C556    1.428   .     A
C553   C1153   1.389   .     S
C554   C1154   1.390   1_554 S
C555   C558    1.417   .     A
C555   C1150   1.427   .     S
C556   C557    1.416   .     A
C556   C1149   1.427   1_554 S
C557   H567    1.076   .     S
C557   C559    1.385   .     A
C558   H568    1.075   .     S
C558   C560    1.386   .     A
C559   H561    1.084   .     S
C559   C1147   1.389   1_554 S
C560   H562    1.085   .     S
C560   C1148   1.390   .     S
C569   H571    1.084   .     S
C569   C576    1.399   .     A
C570   H572    1.084   .     S
C570   C575    1.399   .     A
C570   C178    1.390   1_565 S
C573   N589    1.438   .     S
C573   C173    1.390   1_565 S
C573   C443    1.410   1_655 S
C574   N592    1.438   .     S
C576   C442    1.410   1_655 S
C577   H579    1.082   .     S
C577   C581    1.416   .     A
C577   N586    1.367   .     A
C578   H580    1.082   .     S
C578   C582    1.416   .     A
C578   N585    1.367   .     A
C581   H583    1.081   .     S
C581   N585    1.366   .     A
C582   H584    1.081   .     S
C582   N586    1.366   .     A
Br587  C416    1.924   1_655 S
N589   O590    1.302   .     A
N589   O591    1.302   .     A
N592   O593    1.302   .     A
N592   O594    1.302   .     A
O595   Cu607   1.958   .     S
O595   C731    1.290   1_455 S
O596   Cu608   1.958   .     S
O596   C666    1.290   .     S
O597   Cu608   1.959   .     S
O597   C599    1.289   .     A
O598   C600    1.289   .     A
O598   Cu607   1.959   .     S
C599   C642    1.446   .     S
C599   O661    1.290   .     S
C600   C641    1.446   .     S
C600   O728    1.290   1_455 S
O601   Cu607   1.953   .     S
O601   C737    1.295   1_455 S
O602   Cu608   1.953   .     S
O602   C672    1.294   .     S
O603   Cu608   1.935   .     S
O603   C605    1.300   .     A
O604   C606    1.299   .     A
O604   Cu607   1.935   .     S
C605   C609    1.478   .     S
C605   O667    1.295   .     S
C606   C610    1.475   .     S
C606   O734    1.294   1_455 S
Cu607  N651    2.011   .     S
Cu607  Cu740   2.677   1_455 S
Cu608  N652    2.011   .     S
Cu608  Cu673   2.677   .     S
C609   C615    1.402   .     A
C609   C613    1.414   .     A
C610   C614    1.413   .     A
C610   C616    1.401   .     A
C611   C619    1.400   .     A
C611   C613    1.393   .     A
C611   H631    1.084   .     S
C612   C620    1.401   .     A
C612   H632    1.084   .     S
C612   C614    1.393   .     A
C613   Br720   1.924   .     S
C614   Br785   1.924   1_455 S
C615   C617    1.407   .     A
C615   H630    1.073   .     S
C616   H629    1.075   .     S
C616   C618    1.407   .     A
C617   C621    1.429   .     A
C617   C619    1.416   .     A
C618   C620    1.415   .     A
C618   C622    1.428   .     A
C619   C31     1.389   1_556 S
C621   C624    1.417   .     A
C621   C28     1.427   1_556 S
C622   C623    1.416   .     A
C623   H633    1.076   .     S
C623   C625    1.385   .     A
C624   H634    1.075   .     S
C624   C626    1.386   .     A
C625   H627    1.084   .     S
C626   H628    1.085   .     S
C626   C26     1.390   1_556 S
C635   H637    1.084   .     S
C635   C642    1.399   .     A
C635   C1035   1.390   1_545 S
C636   H638    1.084   .     S
C636   C641    1.399   .     A
C636   C838    1.390   .     S
C639   N655    1.438   .     S
C639   C833    1.390   .     S
C639   C707    1.410   .     S
C640   N658    1.438   .     S
C640   C1032   1.390   1_545 S
C640   C774    1.410   1_455 S
C641   C771    1.410   1_455 S
C642   C706    1.410   .     S
C643   H645    1.082   .     S
C643   C647    1.416   .     A
C643   N652    1.367   .     A
C644   H646    1.082   .     S
C644   C648    1.416   .     A
C644   N651    1.367   .     A
C647   H649    1.081   .     S
C647   N651    1.366   .     A
C648   H650    1.081   .     S
C648   N652    1.366   .     A
Br653  C680    1.924   .     S
Br654  C745    1.924   1_455 S
N655   O656    1.302   .     A
N655   O657    1.302   .     A
N658   O659    1.302   .     A
N658   O660    1.302   .     A
O661   Cu673   1.958   .     S
O662   Cu674   1.958   .     S
O662   C732    1.290   .     S
O663   Cu674   1.959   .     S
O663   C665    1.289   .     A
O664   C666    1.289   .     A
O664   Cu673   1.959   .     S
C665   C708    1.446   .     S
C665   O727    1.290   .     S
C666   C707    1.446   .     S
O667   Cu673   1.953   .     S
O668   Cu674   1.953   .     S
O668   C738    1.294   .     S
O669   Cu674   1.935   .     S
O669   C671    1.300   .     A
O670   C672    1.299   .     A
O670   Cu673   1.935   .     S
C671   C675    1.478   .     S
C671   O733    1.295   .     S
C672   C676    1.475   .     S
Cu673  N717    2.011   .     S
Cu674  N718    2.011   .     S
Cu674  Cu739   2.677   .     S
C675   C681    1.402   .     A
C675   C679    1.414   .     A
C676   C680    1.413   .     A
C676   C682    1.401   .     A
C677   C685    1.400   .     A
C677   C679    1.393   .     A
C677   H697    1.084   .     S
C678   C686    1.401   .     A
C678   H698    1.084   .     S
C678   C680    1.393   .     A
C679   Br786   1.924   .     S
C681   C683    1.407   .     A
C681   H696    1.073   .     S
C682   H695    1.075   .     S
C682   C684    1.407   .     A
C683   C687    1.429   .     A
C683   C685    1.416   .     A
C684   C686    1.415   .     A
C684   C688    1.428   .     A
C685   C97     1.389   1_556 S
C687   C690    1.417   .     A
C687   C94     1.427   1_556 S
C688   C689    1.416   .     A
C689   H699    1.076   .     S
C689   C691    1.385   .     A
C690   H700    1.075   .     S
C690   C692    1.386   .     A
C691   H693    1.084   .     S
C692   H694    1.085   .     S
C692   C92     1.390   1_556 S
C701   H703    1.084   .     S
C701   C708    1.399   .     A
C701   C1101   1.390   1_545 S
C702   H704    1.084   .     S
C702   C707    1.399   .     A
C702   C904    1.390   .     S
C705   N721    1.438   .     S
C705   C899    1.390   .     S
C705   C773    1.410   .     S
C706   N724    1.438   .     S
C706   C1098   1.390   1_545 S
C708   C772    1.410   .     S
C709   H711    1.082   .     S
C709   C713    1.416   .     A
C709   N718    1.367   .     A
C710   H712    1.082   .     S
C710   C714    1.416   .     A
C710   N717    1.367   .     A
C713   H715    1.081   .     S
C713   N717    1.366   .     A
C714   H716    1.081   .     S
C714   N718    1.366   .     A
Br719  C746    1.924   .     S
N721   O722    1.302   .     A
N721   O723    1.302   .     A
N724   O725    1.302   .     A
N724   O726    1.302   .     A
O727   Cu739   1.958   .     S
O728   Cu740   1.958   .     S
O728   C600    1.290   1_655 S
O729   Cu740   1.959   .     S
O729   C731    1.289   .     A
O730   C732    1.289   .     A
O730   Cu739   1.959   .     S
C731   C774    1.446   .     S
C731   O595    1.290   1_655 S
C732   C773    1.446   .     S
O733   Cu739   1.953   .     S
O734   Cu740   1.953   .     S
O734   C606    1.294   1_655 S
O735   Cu740   1.935   .     S
O735   C737    1.300   .     A
O736   C738    1.299   .     A
O736   Cu739   1.935   .     S
C737   C741    1.478   .     S
C737   O601    1.295   1_655 S
C738   C742    1.475   .     S
Cu739  N783    2.011   .     S
Cu740  N784    2.011   .     S
Cu740  Cu607   2.677   1_655 S
C741   C747    1.402   .     A
C741   C745    1.414   .     A
C742   C746    1.413   .     A
C742   C748    1.401   .     A
C743   C751    1.400   .     A
C743   C745    1.393   .     A
C743   H763    1.084   .     S
C744   C752    1.401   .     A
C744   H764    1.084   .     S
C744   C746    1.393   .     A
C745   Br654   1.924   1_655 S
C747   C749    1.407   .     A
C747   H762    1.073   .     S
C748   H761    1.075   .     S
C748   C750    1.407   .     A
C749   C753    1.429   .     A
C749   C751    1.416   .     A
C750   C752    1.415   .     A
C750   C754    1.428   .     A
C751   C163    1.389   1_556 S
C753   C756    1.417   .     A
C753   C160    1.427   1_556 S
C754   C755    1.416   .     A
C755   H765    1.076   .     S
C755   C757    1.385   .     A
C756   H766    1.075   .     S
C756   C758    1.386   .     A
C757   H759    1.084   .     S
C758   H760    1.085   .     S
C758   C158    1.390   1_556 S
C767   H769    1.084   .     S
C767   C774    1.399   .     A
C767   C1167   1.390   1_545 S
C768   H770    1.084   .     S
C768   C773    1.399   .     A
C768   C970    1.390   .     S
C771   N787    1.438   .     S
C771   C965    1.390   .     S
C771   C641    1.410   1_655 S
C772   N790    1.438   .     S
C772   C1164   1.390   1_545 S
C774   C640    1.410   1_655 S
C775   H777    1.082   .     S
C775   C779    1.416   .     A
C775   N784    1.367   .     A
C776   H778    1.082   .     S
C776   C780    1.416   .     A
C776   N783    1.367   .     A
C779   H781    1.081   .     S
C779   N783    1.366   .     A
C780   H782    1.081   .     S
C780   N784    1.366   .     A
Br785  C614    1.924   1_655 S
N787   O788    1.302   .     A
N787   O789    1.302   .     A
N790   O791    1.302   .     A
N790   O792    1.302   .     A
O793   Cu805   1.958   .     S
O793   C929    1.290   1_455 S
O794   Cu806   1.958   .     S
O794   C864    1.290   .     S
O795   Cu806   1.959   .     S
O795   C797    1.289   .     A
O796   C798    1.289   .     A
O796   Cu805   1.959   .     S
C797   C840    1.446   .     S
C797   O859    1.290   .     S
C798   C839    1.446   .     S
C798   O926    1.290   1_455 S
O799   Cu805   1.953   .     S
O799   C935    1.295   1_455 S
O800   Cu806   1.953   .     S
O800   C870    1.294   .     S
O801   Cu806   1.935   .     S
O801   C803    1.300   .     A
O802   C804    1.299   .     A
O802   Cu805   1.935   .     S
C803   C807    1.478   .     S
C803   O865    1.295   .     S
C804   C808    1.475   .     S
C804   O932    1.294   1_455 S
Cu805  N849    2.011   .     S
Cu805  Cu938   2.677   1_455 S
Cu806  N850    2.011   .     S
Cu806  Cu871   2.677   .     S
C807   C813    1.402   .     A
C807   C811    1.414   .     A
C808   C812    1.413   .     A
C808   C814    1.401   .     A
C809   C817    1.400   .     A
C809   C811    1.393   .     A
C809   H829    1.084   .     S
C810   C818    1.401   .     A
C810   H830    1.084   .     S
C810   C812    1.393   .     A
C811   Br918   1.924   .     S
C812   Br983   1.924   1_455 S
C813   C815    1.407   .     A
C813   H828    1.073   .     S
C814   H827    1.075   .     S
C814   C816    1.407   .     A
C815   C819    1.429   .     A
C815   C817    1.416   .     A
C816   C818    1.415   .     A
C816   C820    1.428   .     A
C817   C229    1.389   1_556 S
C819   C822    1.417   .     A
C819   C226    1.427   1_556 S
C820   C821    1.416   .     A
C821   H831    1.076   .     S
C821   C823    1.385   .     A
C822   H832    1.075   .     S
C822   C824    1.386   .     A
C823   H825    1.084   .     S
C824   H826    1.085   .     S
C824   C224    1.390   1_556 S
C833   H835    1.084   .     S
C833   C840    1.399   .     A
C834   H836    1.084   .     S
C834   C839    1.399   .     A
C834   C1036   1.390   .     S
C837   N853    1.438   .     S
C837   C1031   1.390   .     S
C837   C905    1.410   .     S
C838   N856    1.438   .     S
C838   C972    1.410   1_455 S
C839   C969    1.410   1_455 S
C840   C904    1.410   .     S
C841   H843    1.082   .     S
C841   C845    1.416   .     A
C841   N850    1.367   .     A
C842   H844    1.082   .     S
C842   C846    1.416   .     A
C842   N849    1.367   .     A
C845   H847    1.081   .     S
C845   N849    1.366   .     A
C846   H848    1.081   .     S
C846   N850    1.366   .     A
Br851  C878    1.924   .     S
Br852  C943    1.924   1_455 S
N853   O854    1.302   .     A
N853   O855    1.302   .     A
N856   O857    1.302   .     A
N856   O858    1.302   .     A
O859   Cu871   1.958   .     S
O860   Cu872   1.958   .     S
O860   C930    1.290   .     S
O861   Cu872   1.959   .     S
O861   C863    1.289   .     A
O862   C864    1.289   .     A
O862   Cu871   1.959   .     S
C863   C906    1.446   .     S
C863   O925    1.290   .     S
C864   C905    1.446   .     S
O865   Cu871   1.953   .     S
O866   Cu872   1.953   .     S
O866   C936    1.294   .     S
O867   Cu872   1.935   .     S
O867   C869    1.300   .     A
O868   C870    1.299   .     A
O868   Cu871   1.935   .     S
C869   C873    1.478   .     S
C869   O931    1.295   .     S
C870   C874    1.475   .     S
Cu871  N915    2.011   .     S
Cu872  N916    2.011   .     S
Cu872  Cu937   2.677   .     S
C873   C879    1.402   .     A
C873   C877    1.414   .     A
C874   C878    1.413   .     A
C874   C880    1.401   .     A
C875   C883    1.400   .     A
C875   C877    1.393   .     A
C875   H895    1.084   .     S
C876   C884    1.401   .     A
C876   H896    1.084   .     S
C876   C878    1.393   .     A
C877   Br984   1.924   .     S
C879   C881    1.407   .     A
C879   H894    1.073   .     S
C880   H893    1.075   .     S
C880   C882    1.407   .     A
C881   C885    1.429   .     A
C881   C883    1.416   .     A
C882   C884    1.415   .     A
C882   C886    1.428   .     A
C883   C295    1.389   1_556 S
C885   C888    1.417   .     A
C885   C292    1.427   1_556 S
C886   C887    1.416   .     A
C887   H897    1.076   .     S
C887   C889    1.385   .     A
C888   H898    1.075   .     S
C888   C890    1.386   .     A
C889   H891    1.084   .     S
C890   H892    1.085   .     S
C890   C290    1.390   1_556 S
C899   H901    1.084   .     S
C899   C906    1.399   .     A
C900   H902    1.084   .     S
C900   C905    1.399   .     A
C900   C1102   1.390   .     S
C903   N919    1.438   .     S
C903   C1097   1.390   .     S
C903   C971    1.410   .     S
C904   N922    1.438   .     S
C906   C970    1.410   .     S
C907   H909    1.082   .     S
C907   C911    1.416   .     A
C907   N916    1.367   .     A
C908   H910    1.082   .     S
C908   C912    1.416   .     A
C908   N915    1.367   .     A
C911   H913    1.081   .     S
C911   N915    1.366   .     A
C912   H914    1.081   .     S
C912   N916    1.366   .     A
Br917  C944    1.924   .     S
N919   O920    1.302   .     A
N919   O921    1.302   .     A
N922   O923    1.302   .     A
N922   O924    1.302   .     A
O925   Cu937   1.958   .     S
O926   Cu938   1.958   .     S
O926   C798    1.290   1_655 S
O927   Cu938   1.959   .     S
O927   C929    1.289   .     A
O928   C930    1.289   .     A
O928   Cu937   1.959   .     S
C929   C972    1.446   .     S
C929   O793    1.290   1_655 S
C930   C971    1.446   .     S
O931   Cu937   1.953   .     S
O932   Cu938   1.953   .     S
O932   C804    1.294   1_655 S
O933   Cu938   1.935   .     S
O933   C935    1.300   .     A
O934   C936    1.299   .     A
O934   Cu937   1.935   .     S
C935   C939    1.478   .     S
C935   O799    1.295   1_655 S
C936   C940    1.475   .     S
Cu937  N981    2.011   .     S
Cu938  N982    2.011   .     S
Cu938  Cu805   2.677   1_655 S
C939   C945    1.402   .     A
C939   C943    1.414   .     A
C940   C944    1.413   .     A
C940   C946    1.401   .     A
C941   C949    1.400   .     A
C941   C943    1.393   .     A
C941   H961    1.084   .     S
C942   C950    1.401   .     A
C942   H962    1.084   .     S
C942   C944    1.393   .     A
C943   Br852   1.924   1_655 S
C945   C947    1.407   .     A
C945   H960    1.073   .     S
C946   H959    1.075   .     S
C946   C948    1.407   .     A
C947   C951    1.429   .     A
C947   C949    1.416   .     A
C948   C950    1.415   .     A
C948   C952    1.428   .     A
C949   C361    1.389   1_556 S
C951   C954    1.417   .     A
C951   C358    1.427   1_556 S
C952   C953    1.416   .     A
C953   H963    1.076   .     S
C953   C955    1.385   .     A
C954   H964    1.075   .     S
C954   C956    1.386   .     A
C955   H957    1.084   .     S
C956   H958    1.085   .     S
C956   C356    1.390   1_556 S
C965   H967    1.084   .     S
C965   C972    1.399   .     A
C966   H968    1.084   .     S
C966   C971    1.399   .     A
C966   C1168   1.390   .     S
C969   N985    1.438   .     S
C969   C1163   1.390   .     S
C969   C839    1.410   1_655 S
C970   N988    1.438   .     S
C972   C838    1.410   1_655 S
C973   H975    1.082   .     S
C973   C977    1.416   .     A
C973   N982    1.367   .     A
C974   H976    1.082   .     S
C974   C978    1.416   .     A
C974   N981    1.367   .     A
C977   H979    1.081   .     S
C977   N981    1.366   .     A
C978   H980    1.081   .     S
C978   N982    1.366   .     A
Br983  C812    1.924   1_655 S
N985   O986    1.302   .     A
N985   O987    1.302   .     A
N988   O989    1.302   .     A
N988   O990    1.302   .     A
O991   Cu1003  1.958   .     S
O991   C1127   1.290   1_455 S
O992   Cu1004  1.958   .     S
O992   C1062   1.290   .     S
O993   Cu1004  1.959   .     S
O993   C995    1.289   .     A
O994   C996    1.289   .     A
O994   Cu1003  1.959   .     S
C995   C1038   1.446   .     S
C995   O1057   1.290   .     S
C996   C1037   1.446   .     S
C996   O1124   1.290   1_455 S
O997   Cu1003  1.953   .     S
O997   C1133   1.295   1_455 S
O998   Cu1004  1.953   .     S
O998   C1068   1.294   .     S
O999   Cu1004  1.935   .     S
O999   C1001   1.300   .     A
O1000  C1002   1.299   .     A
O1000  Cu1003  1.935   .     S
C1001  C1005   1.478   .     S
C1001  O1063   1.295   .     S
C1002  C1006   1.475   .     S
C1002  O1130   1.294   1_455 S
Cu1003 N1047   2.011   .     S
Cu1003 Cu1136  2.677   1_455 S
Cu1004 N1048   2.011   .     S
Cu1004 Cu1069  2.677   .     S
C1005  C1011   1.402   .     A
C1005  C1009   1.414   .     A
C1006  C1010   1.413   .     A
C1006  C1012   1.401   .     A
C1007  C1015   1.400   .     A
C1007  C1009   1.393   .     A
C1007  H1027   1.084   .     S
C1008  C1016   1.401   .     A
C1008  H1028   1.084   .     S
C1008  C1010   1.393   .     A
C1009  Br1116  1.924   .     S
C1010  Br1181  1.924   1_455 S
C1011  C1013   1.407   .     A
C1011  H1026   1.073   .     S
C1012  H1025   1.075   .     S
C1012  C1014   1.407   .     A
C1013  C1017   1.429   .     A
C1013  C1015   1.416   .     A
C1014  C1016   1.415   .     A
C1014  C1018   1.428   .     A
C1015  C427    1.389   1_556 S
C1017  C1020   1.417   .     A
C1017  C424    1.427   1_556 S
C1018  C1019   1.416   .     A
C1019  H1029   1.076   .     S
C1019  C1021   1.385   .     A
C1020  H1030   1.075   .     S
C1020  C1022   1.386   .     A
C1021  H1023   1.084   .     S
C1022  H1024   1.085   .     S
C1022  C422    1.390   1_556 S
C1031  H1033   1.084   .     S
C1031  C1038   1.399   .     A
C1032  H1034   1.084   .     S
C1032  C1037   1.399   .     A
C1032  C640    1.390   1_565 S
C1035  N1051   1.438   .     S
C1035  C635    1.390   1_565 S
C1035  C1103   1.410   .     S
C1036  N1054   1.438   .     S
C1036  C1170   1.410   1_455 S
C1037  C1167   1.410   1_455 S
C1038  C1102   1.410   .     S
C1039  H1041   1.082   .     S
C1039  C1043   1.416   .     A
C1039  N1048   1.367   .     A
C1040  H1042   1.082   .     S
C1040  C1044   1.416   .     A
C1040  N1047   1.367   .     A
C1043  H1045   1.081   .     S
C1043  N1047   1.366   .     A
C1044  H1046   1.081   .     S
C1044  N1048   1.366   .     A
Br1049 C1076   1.924   .     S
Br1050 C1141   1.924   1_455 S
N1051  O1052   1.302   .     A
N1051  O1053   1.302   .     A
N1054  O1055   1.302   .     A
N1054  O1056   1.302   .     A
O1057  Cu1069  1.958   .     S
O1058  Cu1070  1.958   .     S
O1058  C1128   1.290   .     S
O1059  Cu1070  1.959   .     S
O1059  C1061   1.289   .     A
O1060  C1062   1.289   .     A
O1060  Cu1069  1.959   .     S
C1061  C1104   1.446   .     S
C1061  O1123   1.290   .     S
C1062  C1103   1.446   .     S
O1063  Cu1069  1.953   .     S
O1064  Cu1070  1.953   .     S
O1064  C1134   1.294   .     S
O1065  Cu1070  1.935   .     S
O1065  C1067   1.300   .     A
O1066  C1068   1.299   .     A
O1066  Cu1069  1.935   .     S
C1067  C1071   1.478   .     S
C1067  O1129   1.295   .     S
C1068  C1072   1.475   .     S
Cu1069 N1113   2.011   .     S
Cu1070 N1114   2.011   .     S
Cu1070 Cu1135  2.677   .     S
C1071  C1077   1.402   .     A
C1071  C1075   1.414   .     A
C1072  C1076   1.413   .     A
C1072  C1078   1.401   .     A
C1073  C1081   1.400   .     A
C1073  C1075   1.393   .     A
C1073  H1093   1.084   .     S
C1074  C1082   1.401   .     A
C1074  H1094   1.084   .     S
C1074  C1076   1.393   .     A
C1075  Br1182  1.924   .     S
C1077  C1079   1.407   .     A
C1077  H1092   1.073   .     S
C1078  H1091   1.075   .     S
C1078  C1080   1.407   .     A
C1079  C1083   1.429   .     A
C1079  C1081   1.416   .     A
C1080  C1082   1.415   .     A
C1080  C1084   1.428   .     A
C1081  C493    1.389   1_556 S
C1083  C1086   1.417   .     A
C1083  C490    1.427   1_556 S
C1084  C1085   1.416   .     A
C1085  H1095   1.076   .     S
C1085  C1087   1.385   .     A
C1086  H1096   1.075   .     S
C1086  C1088   1.386   .     A
C1087  H1089   1.084   .     S
C1088  H1090   1.085   .     S
C1088  C488    1.390   1_556 S
C1097  H1099   1.084   .     S
C1097  C1104   1.399   .     A
C1098  H1100   1.084   .     S
C1098  C1103   1.399   .     A
C1098  C706    1.390   1_565 S
C1101  N1117   1.438   .     S
C1101  C701    1.390   1_565 S
C1101  C1169   1.410   .     S
C1102  N1120   1.438   .     S
C1104  C1168   1.410   .     S
C1105  H1107   1.082   .     S
C1105  C1109   1.416   .     A
C1105  N1114   1.367   .     A
C1106  H1108   1.082   .     S
C1106  C1110   1.416   .     A
C1106  N1113   1.367   .     A
C1109  H1111   1.081   .     S
C1109  N1113   1.366   .     A
C1110  H1112   1.081   .     S
C1110  N1114   1.366   .     A
Br1115 C1142   1.924   .     S
N1117  O1118   1.302   .     A
N1117  O1119   1.302   .     A
N1120  O1121   1.302   .     A
N1120  O1122   1.302   .     A
O1123  Cu1135  1.958   .     S
O1124  Cu1136  1.958   .     S
O1124  C996    1.290   1_655 S
O1125  Cu1136  1.959   .     S
O1125  C1127   1.289   .     A
O1126  C1128   1.289   .     A
O1126  Cu1135  1.959   .     S
C1127  C1170   1.446   .     S
C1127  O991    1.290   1_655 S
C1128  C1169   1.446   .     S
O1129  Cu1135  1.953   .     S
O1130  Cu1136  1.953   .     S
O1130  C1002   1.294   1_655 S
O1131  Cu1136  1.935   .     S
O1131  C1133   1.300   .     A
O1132  C1134   1.299   .     A
O1132  Cu1135  1.935   .     S
C1133  C1137   1.478   .     S
C1133  O997    1.295   1_655 S
C1134  C1138   1.475   .     S
Cu1135 N1179   2.011   .     S
Cu1136 N1180   2.011   .     S
Cu1136 Cu1003  2.677   1_655 S
C1137  C1143   1.402   .     A
C1137  C1141   1.414   .     A
C1138  C1142   1.413   .     A
C1138  C1144   1.401   .     A
C1139  C1147   1.400   .     A
C1139  C1141   1.393   .     A
C1139  H1159   1.084   .     S
C1140  C1148   1.401   .     A
C1140  H1160   1.084   .     S
C1140  C1142   1.393   .     A
C1141  Br1050  1.924   1_655 S
C1143  C1145   1.407   .     A
C1143  H1158   1.073   .     S
C1144  H1157   1.075   .     S
C1144  C1146   1.407   .     A
C1145  C1149   1.429   .     A
C1145  C1147   1.416   .     A
C1146  C1148   1.415   .     A
C1146  C1150   1.428   .     A
C1147  C559    1.389   1_556 S
C1149  C1152   1.417   .     A
C1149  C556    1.427   1_556 S
C1150  C1151   1.416   .     A
C1151  H1161   1.076   .     S
C1151  C1153   1.385   .     A
C1152  H1162   1.075   .     S
C1152  C1154   1.386   .     A
C1153  H1155   1.084   .     S
C1154  H1156   1.085   .     S
C1154  C554    1.390   1_556 S
C1163  H1165   1.084   .     S
C1163  C1170   1.399   .     A
C1164  H1166   1.084   .     S
C1164  C1169   1.399   .     A
C1164  C772    1.390   1_565 S
C1167  N1183   1.438   .     S
C1167  C767    1.390   1_565 S
C1167  C1037   1.410   1_655 S
C1168  N1186   1.438   .     S
C1170  C1036   1.410   1_655 S
C1171  H1173   1.082   .     S
C1171  C1175   1.416   .     A
C1171  N1180   1.367   .     A
C1172  H1174   1.082   .     S
C1172  C1176   1.416   .     A
C1172  N1179   1.367   .     A
C1175  H1177   1.081   .     S
C1175  N1179   1.366   .     A
C1176  H1178   1.081   .     S
C1176  N1180   1.366   .     A
Br1181 C1010   1.924   1_655 S
N1183  O1184   1.302   .     A
N1183  O1185   1.302   .     A
N1186  O1187   1.302   .     A
N1186  O1188   1.302   .     A
