data_str_m2_o10_o17_pcu_sym.185
_audit_creation_date              2020-01-03
_audit_creation_method            'Materials Studio'
_symmetry_space_group_name_H-M    'P1'
_symmetry_Int_Tables_number       1
_symmetry_cell_setting            triclinic
loop_
_symmetry_equiv_pos_as_xyz
  x,y,z
_cell_length_a                    30.1482
_cell_length_b                    26.0792
_cell_length_c                    22.8356
_cell_angle_alpha                 102.3783
_cell_angle_beta                  96.6442
_cell_angle_gamma                 95.4025
loop_
_atom_site_label
_atom_site_type_symbol
_atom_site_fract_x
_atom_site_fract_y
_atom_site_fract_z
_atom_site_U_iso_or_equiv
_atom_site_adp_type
_atom_site_occupancy
C1     C     0.24820   0.06676   0.15125   0.00000  Uiso   1.00
C2     C     0.25180   0.26657   0.18208   0.00000  Uiso   1.00
C3     C     0.01045   0.13164   0.05737   0.00000  Uiso   1.00
C4     C     0.48955   0.20171   0.27596   0.00000  Uiso   1.00
C5     C     0.24609   0.01061   0.14288   0.00000  Uiso   1.00
C6     C     0.25391   0.32272   0.19046   0.00000  Uiso   1.00
C7     C     0.16445   0.16648   0.16628   0.00000  Uiso   1.00
C8     C     0.33555   0.16685   0.16705   0.00000  Uiso   1.00
C9     C     0.41363   0.18373   0.22162   0.00000  Uiso   1.00
C10    C     0.08637   0.14961   0.11171   0.00000  Uiso   1.00
C11    C     0.38409   0.16660   0.16726   0.00000  Uiso   1.00
C12    C     0.11591   0.16673   0.16607   0.00000  Uiso   1.00
C13    C     0.40104   0.14950   0.11254   0.00000  Uiso   1.00
C14    C     0.09896   0.18384   0.22079   0.00000  Uiso   1.00
C15    C     0.44718   0.14921   0.11195   0.00000  Uiso   1.00
C16    C     0.05282   0.18413   0.22138   0.00000  Uiso   1.00
C17    C     0.47675   0.16665   0.16677   0.00000  Uiso   1.00
C18    C     0.02325   0.16670   0.16656   0.00000  Uiso   1.00
C19    C     0.45989   0.18409   0.22178   0.00000  Uiso   1.00
C20    C     0.04011   0.14926   0.11155   0.00000  Uiso   1.00
C21    C     0.46422   0.13173   0.05753   0.00000  Uiso   1.00
C22    C     0.03578   0.20162   0.27580   0.00000  Uiso   1.00
Cu23   Cu    0.25501   0.17246   0.22813   0.00000  Uiso   1.00
Cu24   Cu    0.24500   0.16087   0.10521   0.00000  Uiso   1.00
H25    H     0.40086   0.19738   0.26374   0.00000  Uiso   1.00
H26    H     0.09914   0.13595   0.06959   0.00000  Uiso   1.00
H27    H     0.37835   0.13602   0.07036   0.00000  Uiso   1.00
H28    H     0.12165   0.19731   0.26298   0.00000  Uiso   1.00
H29    H     0.44182   0.11823   0.01514   0.00000  Uiso   1.00
H30    H     0.05818   0.21512   0.31819   0.00000  Uiso   1.00
H31    H     0.02301   0.11790   0.01489   0.00000  Uiso   1.00
H32    H     0.47699   0.21546   0.31843   0.00000  Uiso   1.00
H33    H     0.23754   0.31993   0.09711   0.00000  Uiso   1.00
H34    H     0.26246   0.01340   0.23622   0.00000  Uiso   1.00
N35    N     0.23745   0.15214   0.01284   0.00000  Uiso   1.00
N36    N     0.26256   0.18119   0.32049   0.00000  Uiso   1.00
O37    O     0.25326   0.09538   0.20659   0.00000  Uiso   1.00
O38    O     0.24675   0.23796   0.12674   0.00000  Uiso   1.00
O39    O     0.24480   0.08559   0.10279   0.00000  Uiso   1.00
O40    O     0.25520   0.24774   0.23055   0.00000  Uiso   1.00
O41    O     0.18936   0.17155   0.21857   0.00000  Uiso   1.00
O42    O     0.31065   0.16179   0.11476   0.00000  Uiso   1.00
O43    O     0.18090   0.16176   0.11477   0.00000  Uiso   1.00
O44    O     0.31910   0.17157   0.21857   0.00000  Uiso   1.00
C45    C     0.21198   0.10306   0.31008   0.00000  Uiso   1.00
C46    C     0.16736   0.09012   0.33193   0.00000  Uiso   1.00
H47    H     0.17188   0.07750   0.04188   0.00000  Uiso   1.00
H48    H     0.14826   0.12471   0.00196   0.00000  Uiso   1.00
H49    H     0.14702   0.05650   0.29830   0.00000  Uiso   1.00
H50    H     0.20075   0.10563   0.26425   0.00000  Uiso   1.00
H51    H     0.23247   0.06998   0.31050   0.00000  Uiso   1.00
C52    C     0.28803   0.23027   0.02326   0.00000  Uiso   1.00
C53    C     0.33265   0.24320   0.00140   0.00000  Uiso   1.00
H54    H     0.35174   0.20860   0.33136   0.00000  Uiso   1.00
H55    H     0.32813   0.25584   0.29147   0.00000  Uiso   1.00
H56    H     0.35300   0.27680   0.03505   0.00000  Uiso   1.00
H57    H     0.26754   0.26335   0.02283   0.00000  Uiso   1.00
H58    H     0.29925   0.22770   0.06909   0.00000  Uiso   1.00
C59    C     0.74820   0.06676   0.15125   0.00000  Uiso   1.00
C60    C     0.75180   0.26657   0.18208   0.00000  Uiso   1.00
C61    C     0.51045   0.13164   0.05737   0.00000  Uiso   1.00
C62    C     0.98955   0.20171   0.27596   0.00000  Uiso   1.00
C63    C     0.74609   0.01061   0.14288   0.00000  Uiso   1.00
C64    C     0.75391   0.32272   0.19046   0.00000  Uiso   1.00
C65    C     0.66445   0.16648   0.16628   0.00000  Uiso   1.00
C66    C     0.83555   0.16685   0.16705   0.00000  Uiso   1.00
C67    C     0.91363   0.18373   0.22162   0.00000  Uiso   1.00
C68    C     0.58637   0.14961   0.11171   0.00000  Uiso   1.00
C69    C     0.88409   0.16660   0.16726   0.00000  Uiso   1.00
C70    C     0.61591   0.16673   0.16607   0.00000  Uiso   1.00
C71    C     0.90104   0.14950   0.11254   0.00000  Uiso   1.00
C72    C     0.59896   0.18384   0.22079   0.00000  Uiso   1.00
C73    C     0.94718   0.14921   0.11195   0.00000  Uiso   1.00
C74    C     0.55282   0.18413   0.22138   0.00000  Uiso   1.00
C75    C     0.97675   0.16665   0.16677   0.00000  Uiso   1.00
C76    C     0.52325   0.16670   0.16656   0.00000  Uiso   1.00
C77    C     0.95989   0.18409   0.22178   0.00000  Uiso   1.00
C78    C     0.54011   0.14926   0.11155   0.00000  Uiso   1.00
C79    C     0.96422   0.13173   0.05753   0.00000  Uiso   1.00
C80    C     0.53578   0.20162   0.27580   0.00000  Uiso   1.00
Cu81   Cu    0.75501   0.17246   0.22813   0.00000  Uiso   1.00
Cu82   Cu    0.74500   0.16087   0.10521   0.00000  Uiso   1.00
H83    H     0.90086   0.19738   0.26374   0.00000  Uiso   1.00
H84    H     0.59914   0.13595   0.06959   0.00000  Uiso   1.00
H85    H     0.87835   0.13602   0.07036   0.00000  Uiso   1.00
H86    H     0.62165   0.19731   0.26298   0.00000  Uiso   1.00
H87    H     0.94182   0.11823   0.01514   0.00000  Uiso   1.00
H88    H     0.55818   0.21512   0.31819   0.00000  Uiso   1.00
H89    H     0.52301   0.11790   0.01489   0.00000  Uiso   1.00
H90    H     0.97699   0.21546   0.31843   0.00000  Uiso   1.00
H91    H     0.73754   0.31993   0.09711   0.00000  Uiso   1.00
H92    H     0.76246   0.01340   0.23622   0.00000  Uiso   1.00
N93    N     0.73745   0.15214   0.01284   0.00000  Uiso   1.00
N94    N     0.76256   0.18119   0.32049   0.00000  Uiso   1.00
O95    O     0.75326   0.09538   0.20659   0.00000  Uiso   1.00
O96    O     0.74675   0.23796   0.12674   0.00000  Uiso   1.00
O97    O     0.74480   0.08559   0.10279   0.00000  Uiso   1.00
O98    O     0.75520   0.24774   0.23055   0.00000  Uiso   1.00
O99    O     0.68936   0.17155   0.21857   0.00000  Uiso   1.00
O100   O     0.81065   0.16179   0.11476   0.00000  Uiso   1.00
O101   O     0.68090   0.16176   0.11477   0.00000  Uiso   1.00
O102   O     0.81910   0.17157   0.21857   0.00000  Uiso   1.00
C103   C     0.71198   0.10306   0.31008   0.00000  Uiso   1.00
C104   C     0.66736   0.09012   0.33193   0.00000  Uiso   1.00
H105   H     0.67188   0.07750   0.04188   0.00000  Uiso   1.00
H106   H     0.64826   0.12471   0.00196   0.00000  Uiso   1.00
H107   H     0.64702   0.05650   0.29830   0.00000  Uiso   1.00
H108   H     0.70075   0.10563   0.26425   0.00000  Uiso   1.00
H109   H     0.73247   0.06998   0.31050   0.00000  Uiso   1.00
C110   C     0.78803   0.23027   0.02326   0.00000  Uiso   1.00
C111   C     0.83265   0.24320   0.00140   0.00000  Uiso   1.00
H112   H     0.85174   0.20860   0.33136   0.00000  Uiso   1.00
H113   H     0.82813   0.25584   0.29147   0.00000  Uiso   1.00
H114   H     0.85300   0.27680   0.03505   0.00000  Uiso   1.00
H115   H     0.76754   0.26335   0.02283   0.00000  Uiso   1.00
H116   H     0.79925   0.22770   0.06909   0.00000  Uiso   1.00
C117   C     0.24820   0.40010   0.15125   0.00000  Uiso   1.00
C118   C     0.25180   0.59990   0.18208   0.00000  Uiso   1.00
C119   C     0.01045   0.46497   0.05737   0.00000  Uiso   1.00
C120   C     0.48955   0.53505   0.27596   0.00000  Uiso   1.00
C121   C     0.24609   0.34394   0.14288   0.00000  Uiso   1.00
C122   C     0.25391   0.65606   0.19046   0.00000  Uiso   1.00
C123   C     0.16445   0.49981   0.16628   0.00000  Uiso   1.00
C124   C     0.33555   0.50019   0.16705   0.00000  Uiso   1.00
C125   C     0.41363   0.51707   0.22162   0.00000  Uiso   1.00
C126   C     0.08637   0.48294   0.11171   0.00000  Uiso   1.00
C127   C     0.38409   0.49994   0.16726   0.00000  Uiso   1.00
C128   C     0.11591   0.50007   0.16607   0.00000  Uiso   1.00
C129   C     0.40104   0.48284   0.11254   0.00000  Uiso   1.00
C130   C     0.09896   0.51717   0.22079   0.00000  Uiso   1.00
C131   C     0.44718   0.48255   0.11195   0.00000  Uiso   1.00
C132   C     0.05282   0.51747   0.22138   0.00000  Uiso   1.00
C133   C     0.47675   0.49998   0.16677   0.00000  Uiso   1.00
C134   C     0.02325   0.50004   0.16656   0.00000  Uiso   1.00
C135   C     0.45989   0.51742   0.22178   0.00000  Uiso   1.00
C136   C     0.04011   0.48259   0.11155   0.00000  Uiso   1.00
C137   C     0.46422   0.46507   0.05753   0.00000  Uiso   1.00
C138   C     0.03578   0.53495   0.27580   0.00000  Uiso   1.00
Cu139  Cu    0.25501   0.50579   0.22813   0.00000  Uiso   1.00
Cu140  Cu    0.24500   0.49421   0.10521   0.00000  Uiso   1.00
H141   H     0.40086   0.53072   0.26374   0.00000  Uiso   1.00
H142   H     0.09914   0.46928   0.06959   0.00000  Uiso   1.00
H143   H     0.37835   0.46936   0.07036   0.00000  Uiso   1.00
H144   H     0.12165   0.53065   0.26298   0.00000  Uiso   1.00
H145   H     0.44182   0.45156   0.01514   0.00000  Uiso   1.00
H146   H     0.05818   0.54845   0.31819   0.00000  Uiso   1.00
H147   H     0.02301   0.45123   0.01489   0.00000  Uiso   1.00
H148   H     0.47699   0.54879   0.31843   0.00000  Uiso   1.00
H149   H     0.23754   0.65326   0.09711   0.00000  Uiso   1.00
H150   H     0.26246   0.34674   0.23622   0.00000  Uiso   1.00
N151   N     0.23745   0.48547   0.01284   0.00000  Uiso   1.00
N152   N     0.26256   0.51453   0.32049   0.00000  Uiso   1.00
O153   O     0.25326   0.42871   0.20659   0.00000  Uiso   1.00
O154   O     0.24675   0.57129   0.12674   0.00000  Uiso   1.00
O155   O     0.24480   0.41892   0.10279   0.00000  Uiso   1.00
O156   O     0.25520   0.58108   0.23055   0.00000  Uiso   1.00
O157   O     0.18936   0.50488   0.21857   0.00000  Uiso   1.00
O158   O     0.31065   0.49512   0.11476   0.00000  Uiso   1.00
O159   O     0.18090   0.49510   0.11477   0.00000  Uiso   1.00
O160   O     0.31910   0.50490   0.21857   0.00000  Uiso   1.00
C161   C     0.21198   0.43640   0.31008   0.00000  Uiso   1.00
C162   C     0.16736   0.42345   0.33193   0.00000  Uiso   1.00
H163   H     0.17188   0.41083   0.04188   0.00000  Uiso   1.00
H164   H     0.14826   0.45804   0.00196   0.00000  Uiso   1.00
H165   H     0.14702   0.38984   0.29830   0.00000  Uiso   1.00
H166   H     0.20075   0.43897   0.26425   0.00000  Uiso   1.00
H167   H     0.23247   0.40331   0.31050   0.00000  Uiso   1.00
C168   C     0.28803   0.56360   0.02326   0.00000  Uiso   1.00
C169   C     0.33265   0.57654   0.00140   0.00000  Uiso   1.00
H170   H     0.35174   0.54194   0.33136   0.00000  Uiso   1.00
H171   H     0.32813   0.58917   0.29147   0.00000  Uiso   1.00
H172   H     0.35300   0.61013   0.03505   0.00000  Uiso   1.00
H173   H     0.26754   0.59669   0.02283   0.00000  Uiso   1.00
H174   H     0.29925   0.56103   0.06909   0.00000  Uiso   1.00
C175   C     0.74820   0.40010   0.15125   0.00000  Uiso   1.00
C176   C     0.75180   0.59990   0.18208   0.00000  Uiso   1.00
C177   C     0.51045   0.46497   0.05737   0.00000  Uiso   1.00
C178   C     0.98955   0.53505   0.27596   0.00000  Uiso   1.00
C179   C     0.74609   0.34394   0.14288   0.00000  Uiso   1.00
C180   C     0.75391   0.65606   0.19046   0.00000  Uiso   1.00
C181   C     0.66445   0.49981   0.16628   0.00000  Uiso   1.00
C182   C     0.83555   0.50019   0.16705   0.00000  Uiso   1.00
C183   C     0.91363   0.51707   0.22162   0.00000  Uiso   1.00
C184   C     0.58637   0.48294   0.11171   0.00000  Uiso   1.00
C185   C     0.88409   0.49994   0.16726   0.00000  Uiso   1.00
C186   C     0.61591   0.50007   0.16607   0.00000  Uiso   1.00
C187   C     0.90104   0.48284   0.11254   0.00000  Uiso   1.00
C188   C     0.59896   0.51717   0.22079   0.00000  Uiso   1.00
C189   C     0.94718   0.48255   0.11195   0.00000  Uiso   1.00
C190   C     0.55282   0.51747   0.22138   0.00000  Uiso   1.00
C191   C     0.97675   0.49998   0.16677   0.00000  Uiso   1.00
C192   C     0.52325   0.50004   0.16656   0.00000  Uiso   1.00
C193   C     0.95989   0.51742   0.22178   0.00000  Uiso   1.00
C194   C     0.54011   0.48259   0.11155   0.00000  Uiso   1.00
C195   C     0.96422   0.46507   0.05753   0.00000  Uiso   1.00
C196   C     0.53578   0.53495   0.27580   0.00000  Uiso   1.00
Cu197  Cu    0.75501   0.50579   0.22813   0.00000  Uiso   1.00
Cu198  Cu    0.74500   0.49421   0.10521   0.00000  Uiso   1.00
H199   H     0.90086   0.53072   0.26374   0.00000  Uiso   1.00
H200   H     0.59914   0.46928   0.06959   0.00000  Uiso   1.00
H201   H     0.87835   0.46936   0.07036   0.00000  Uiso   1.00
H202   H     0.62165   0.53065   0.26298   0.00000  Uiso   1.00
H203   H     0.94182   0.45156   0.01514   0.00000  Uiso   1.00
H204   H     0.55818   0.54845   0.31819   0.00000  Uiso   1.00
H205   H     0.52301   0.45123   0.01489   0.00000  Uiso   1.00
H206   H     0.97699   0.54879   0.31843   0.00000  Uiso   1.00
H207   H     0.73754   0.65326   0.09711   0.00000  Uiso   1.00
H208   H     0.76246   0.34674   0.23622   0.00000  Uiso   1.00
N209   N     0.73745   0.48547   0.01284   0.00000  Uiso   1.00
N210   N     0.76256   0.51453   0.32049   0.00000  Uiso   1.00
O211   O     0.75326   0.42871   0.20659   0.00000  Uiso   1.00
O212   O     0.74675   0.57129   0.12674   0.00000  Uiso   1.00
O213   O     0.74480   0.41892   0.10279   0.00000  Uiso   1.00
O214   O     0.75520   0.58108   0.23055   0.00000  Uiso   1.00
O215   O     0.68936   0.50488   0.21857   0.00000  Uiso   1.00
O216   O     0.81065   0.49512   0.11476   0.00000  Uiso   1.00
O217   O     0.68090   0.49510   0.11477   0.00000  Uiso   1.00
O218   O     0.81910   0.50490   0.21857   0.00000  Uiso   1.00
C219   C     0.71198   0.43640   0.31008   0.00000  Uiso   1.00
C220   C     0.66736   0.42345   0.33193   0.00000  Uiso   1.00
H221   H     0.67188   0.41083   0.04188   0.00000  Uiso   1.00
H222   H     0.64826   0.45804   0.00196   0.00000  Uiso   1.00
H223   H     0.64702   0.38984   0.29830   0.00000  Uiso   1.00
H224   H     0.70075   0.43897   0.26425   0.00000  Uiso   1.00
H225   H     0.73247   0.40331   0.31050   0.00000  Uiso   1.00
C226   C     0.78803   0.56360   0.02326   0.00000  Uiso   1.00
C227   C     0.83265   0.57654   0.00140   0.00000  Uiso   1.00
H228   H     0.85174   0.54194   0.33136   0.00000  Uiso   1.00
H229   H     0.82813   0.58917   0.29147   0.00000  Uiso   1.00
H230   H     0.85300   0.61013   0.03505   0.00000  Uiso   1.00
H231   H     0.76754   0.59669   0.02283   0.00000  Uiso   1.00
H232   H     0.79925   0.56103   0.06909   0.00000  Uiso   1.00
C233   C     0.24820   0.73343   0.15125   0.00000  Uiso   1.00
C234   C     0.25180   0.93324   0.18208   0.00000  Uiso   1.00
C235   C     0.01045   0.79830   0.05737   0.00000  Uiso   1.00
C236   C     0.48955   0.86838   0.27596   0.00000  Uiso   1.00
C237   C     0.24609   0.67728   0.14288   0.00000  Uiso   1.00
C238   C     0.25391   0.98939   0.19046   0.00000  Uiso   1.00
C239   C     0.16445   0.83315   0.16628   0.00000  Uiso   1.00
C240   C     0.33555   0.83352   0.16705   0.00000  Uiso   1.00
C241   C     0.41363   0.85040   0.22162   0.00000  Uiso   1.00
C242   C     0.08637   0.81627   0.11171   0.00000  Uiso   1.00
C243   C     0.38409   0.83327   0.16726   0.00000  Uiso   1.00
C244   C     0.11591   0.83340   0.16607   0.00000  Uiso   1.00
C245   C     0.40104   0.81617   0.11254   0.00000  Uiso   1.00
C246   C     0.09896   0.85050   0.22079   0.00000  Uiso   1.00
C247   C     0.44718   0.81588   0.11195   0.00000  Uiso   1.00
C248   C     0.05282   0.85080   0.22138   0.00000  Uiso   1.00
C249   C     0.47675   0.83331   0.16677   0.00000  Uiso   1.00
C250   C     0.02325   0.83337   0.16656   0.00000  Uiso   1.00
C251   C     0.45989   0.85075   0.22178   0.00000  Uiso   1.00
C252   C     0.04011   0.81593   0.11155   0.00000  Uiso   1.00
C253   C     0.46422   0.79840   0.05753   0.00000  Uiso   1.00
C254   C     0.03578   0.86828   0.27580   0.00000  Uiso   1.00
Cu255  Cu    0.25501   0.83913   0.22813   0.00000  Uiso   1.00
Cu256  Cu    0.24500   0.82754   0.10521   0.00000  Uiso   1.00
H257   H     0.40086   0.86405   0.26374   0.00000  Uiso   1.00
H258   H     0.09914   0.80262   0.06959   0.00000  Uiso   1.00
H259   H     0.37835   0.80269   0.07036   0.00000  Uiso   1.00
H260   H     0.12165   0.86398   0.26298   0.00000  Uiso   1.00
H261   H     0.44182   0.78490   0.01514   0.00000  Uiso   1.00
H262   H     0.05818   0.88179   0.31819   0.00000  Uiso   1.00
H263   H     0.02301   0.78456   0.01489   0.00000  Uiso   1.00
H264   H     0.47699   0.88212   0.31843   0.00000  Uiso   1.00
H265   H     0.23754   0.98660   0.09711   0.00000  Uiso   1.00
H266   H     0.26246   0.68007   0.23622   0.00000  Uiso   1.00
N267   N     0.23745   0.81881   0.01284   0.00000  Uiso   1.00
N268   N     0.26256   0.84786   0.32049   0.00000  Uiso   1.00
O269   O     0.25326   0.76204   0.20659   0.00000  Uiso   1.00
O270   O     0.24675   0.90462   0.12674   0.00000  Uiso   1.00
O271   O     0.24480   0.75226   0.10279   0.00000  Uiso   1.00
O272   O     0.25520   0.91441   0.23055   0.00000  Uiso   1.00
O273   O     0.18936   0.83821   0.21857   0.00000  Uiso   1.00
O274   O     0.31065   0.82845   0.11476   0.00000  Uiso   1.00
O275   O     0.18090   0.82843   0.11477   0.00000  Uiso   1.00
O276   O     0.31910   0.83824   0.21857   0.00000  Uiso   1.00
C277   C     0.21198   0.76973   0.31008   0.00000  Uiso   1.00
C278   C     0.16736   0.75678   0.33193   0.00000  Uiso   1.00
H279   H     0.17188   0.74417   0.04188   0.00000  Uiso   1.00
H280   H     0.14826   0.79138   0.00196   0.00000  Uiso   1.00
H281   H     0.14702   0.72317   0.29830   0.00000  Uiso   1.00
H282   H     0.20075   0.77230   0.26425   0.00000  Uiso   1.00
H283   H     0.23247   0.73665   0.31050   0.00000  Uiso   1.00
C284   C     0.28803   0.89693   0.02326   0.00000  Uiso   1.00
C285   C     0.33265   0.90987   0.00140   0.00000  Uiso   1.00
H286   H     0.35174   0.87527   0.33136   0.00000  Uiso   1.00
H287   H     0.32813   0.92250   0.29147   0.00000  Uiso   1.00
H288   H     0.35300   0.94347   0.03505   0.00000  Uiso   1.00
H289   H     0.26754   0.93002   0.02283   0.00000  Uiso   1.00
H290   H     0.29925   0.89436   0.06909   0.00000  Uiso   1.00
C291   C     0.74820   0.73343   0.15125   0.00000  Uiso   1.00
C292   C     0.75180   0.93324   0.18208   0.00000  Uiso   1.00
C293   C     0.51045   0.79830   0.05737   0.00000  Uiso   1.00
C294   C     0.98955   0.86838   0.27596   0.00000  Uiso   1.00
C295   C     0.74609   0.67728   0.14288   0.00000  Uiso   1.00
C296   C     0.75391   0.98939   0.19046   0.00000  Uiso   1.00
C297   C     0.66445   0.83315   0.16628   0.00000  Uiso   1.00
C298   C     0.83555   0.83352   0.16705   0.00000  Uiso   1.00
C299   C     0.91363   0.85040   0.22162   0.00000  Uiso   1.00
C300   C     0.58637   0.81627   0.11171   0.00000  Uiso   1.00
C301   C     0.88409   0.83327   0.16726   0.00000  Uiso   1.00
C302   C     0.61591   0.83340   0.16607   0.00000  Uiso   1.00
C303   C     0.90104   0.81617   0.11254   0.00000  Uiso   1.00
C304   C     0.59896   0.85050   0.22079   0.00000  Uiso   1.00
C305   C     0.94718   0.81588   0.11195   0.00000  Uiso   1.00
C306   C     0.55282   0.85080   0.22138   0.00000  Uiso   1.00
C307   C     0.97675   0.83331   0.16677   0.00000  Uiso   1.00
C308   C     0.52325   0.83337   0.16656   0.00000  Uiso   1.00
C309   C     0.95989   0.85075   0.22178   0.00000  Uiso   1.00
C310   C     0.54011   0.81593   0.11155   0.00000  Uiso   1.00
C311   C     0.96422   0.79840   0.05753   0.00000  Uiso   1.00
C312   C     0.53578   0.86828   0.27580   0.00000  Uiso   1.00
Cu313  Cu    0.75501   0.83913   0.22813   0.00000  Uiso   1.00
Cu314  Cu    0.74500   0.82754   0.10521   0.00000  Uiso   1.00
H315   H     0.90086   0.86405   0.26374   0.00000  Uiso   1.00
H316   H     0.59914   0.80262   0.06959   0.00000  Uiso   1.00
H317   H     0.87835   0.80269   0.07036   0.00000  Uiso   1.00
H318   H     0.62165   0.86398   0.26298   0.00000  Uiso   1.00
H319   H     0.94182   0.78490   0.01514   0.00000  Uiso   1.00
H320   H     0.55818   0.88179   0.31819   0.00000  Uiso   1.00
H321   H     0.52301   0.78456   0.01489   0.00000  Uiso   1.00
H322   H     0.97699   0.88212   0.31843   0.00000  Uiso   1.00
H323   H     0.73754   0.98660   0.09711   0.00000  Uiso   1.00
H324   H     0.76246   0.68007   0.23622   0.00000  Uiso   1.00
N325   N     0.73745   0.81881   0.01284   0.00000  Uiso   1.00
N326   N     0.76256   0.84786   0.32049   0.00000  Uiso   1.00
O327   O     0.75326   0.76204   0.20659   0.00000  Uiso   1.00
O328   O     0.74675   0.90462   0.12674   0.00000  Uiso   1.00
O329   O     0.74480   0.75226   0.10279   0.00000  Uiso   1.00
O330   O     0.75520   0.91441   0.23055   0.00000  Uiso   1.00
O331   O     0.68936   0.83821   0.21857   0.00000  Uiso   1.00
O332   O     0.81065   0.82845   0.11476   0.00000  Uiso   1.00
O333   O     0.68090   0.82843   0.11477   0.00000  Uiso   1.00
O334   O     0.81910   0.83824   0.21857   0.00000  Uiso   1.00
C335   C     0.71198   0.76973   0.31008   0.00000  Uiso   1.00
C336   C     0.66736   0.75678   0.33193   0.00000  Uiso   1.00
H337   H     0.67188   0.74417   0.04188   0.00000  Uiso   1.00
H338   H     0.64826   0.79138   0.00196   0.00000  Uiso   1.00
H339   H     0.64702   0.72317   0.29830   0.00000  Uiso   1.00
H340   H     0.70075   0.77230   0.26425   0.00000  Uiso   1.00
H341   H     0.73247   0.73665   0.31050   0.00000  Uiso   1.00
C342   C     0.78803   0.89693   0.02326   0.00000  Uiso   1.00
C343   C     0.83265   0.90987   0.00140   0.00000  Uiso   1.00
H344   H     0.85174   0.87527   0.33136   0.00000  Uiso   1.00
H345   H     0.82813   0.92250   0.29147   0.00000  Uiso   1.00
H346   H     0.85300   0.94347   0.03505   0.00000  Uiso   1.00
H347   H     0.76754   0.93002   0.02283   0.00000  Uiso   1.00
H348   H     0.79925   0.89436   0.06909   0.00000  Uiso   1.00
C349   C     0.24820   0.06676   0.48459   0.00000  Uiso   1.00
C350   C     0.25180   0.26657   0.51541   0.00000  Uiso   1.00
C351   C     0.01045   0.13164   0.39070   0.00000  Uiso   1.00
C352   C     0.48955   0.20171   0.60929   0.00000  Uiso   1.00
C353   C     0.24609   0.01061   0.47621   0.00000  Uiso   1.00
C354   C     0.25391   0.32272   0.52379   0.00000  Uiso   1.00
C355   C     0.16445   0.16648   0.49961   0.00000  Uiso   1.00
C356   C     0.33555   0.16685   0.50039   0.00000  Uiso   1.00
C357   C     0.41363   0.18373   0.55496   0.00000  Uiso   1.00
C358   C     0.08637   0.14961   0.44504   0.00000  Uiso   1.00
C359   C     0.38409   0.16660   0.50060   0.00000  Uiso   1.00
C360   C     0.11591   0.16673   0.49940   0.00000  Uiso   1.00
C361   C     0.40104   0.14950   0.44588   0.00000  Uiso   1.00
C362   C     0.09896   0.18384   0.55412   0.00000  Uiso   1.00
C363   C     0.44718   0.14921   0.44528   0.00000  Uiso   1.00
C364   C     0.05282   0.18413   0.55471   0.00000  Uiso   1.00
C365   C     0.47675   0.16665   0.50010   0.00000  Uiso   1.00
C366   C     0.02325   0.16670   0.49990   0.00000  Uiso   1.00
C367   C     0.45989   0.18409   0.55511   0.00000  Uiso   1.00
C368   C     0.04011   0.14926   0.44489   0.00000  Uiso   1.00
C369   C     0.46422   0.13173   0.39086   0.00000  Uiso   1.00
C370   C     0.03578   0.20162   0.60913   0.00000  Uiso   1.00
Cu371  Cu    0.25501   0.17246   0.56146   0.00000  Uiso   1.00
Cu372  Cu    0.24500   0.16087   0.43854   0.00000  Uiso   1.00
H373   H     0.40086   0.19738   0.59708   0.00000  Uiso   1.00
H374   H     0.09914   0.13595   0.40293   0.00000  Uiso   1.00
H375   H     0.37835   0.13602   0.40369   0.00000  Uiso   1.00
H376   H     0.12165   0.19731   0.59631   0.00000  Uiso   1.00
H377   H     0.44182   0.11823   0.34847   0.00000  Uiso   1.00
H378   H     0.05818   0.21512   0.65152   0.00000  Uiso   1.00
H379   H     0.02301   0.11790   0.34823   0.00000  Uiso   1.00
H380   H     0.47699   0.21546   0.65177   0.00000  Uiso   1.00
H381   H     0.23754   0.31993   0.43044   0.00000  Uiso   1.00
H382   H     0.26246   0.01340   0.56956   0.00000  Uiso   1.00
N383   N     0.23745   0.15214   0.34617   0.00000  Uiso   1.00
N384   N     0.26256   0.18119   0.65383   0.00000  Uiso   1.00
O385   O     0.25326   0.09538   0.53992   0.00000  Uiso   1.00
O386   O     0.24675   0.23796   0.46008   0.00000  Uiso   1.00
O387   O     0.24480   0.08559   0.43612   0.00000  Uiso   1.00
O388   O     0.25520   0.24774   0.56388   0.00000  Uiso   1.00
O389   O     0.18936   0.17155   0.55191   0.00000  Uiso   1.00
O390   O     0.31065   0.16179   0.44809   0.00000  Uiso   1.00
O391   O     0.18090   0.16176   0.44810   0.00000  Uiso   1.00
O392   O     0.31910   0.17157   0.55190   0.00000  Uiso   1.00
C393   C     0.21198   0.10306   0.64341   0.00000  Uiso   1.00
C394   C     0.16736   0.09012   0.66527   0.00000  Uiso   1.00
H395   H     0.17188   0.07750   0.37521   0.00000  Uiso   1.00
H396   H     0.14826   0.12471   0.33529   0.00000  Uiso   1.00
H397   H     0.14702   0.05650   0.63163   0.00000  Uiso   1.00
H398   H     0.20075   0.10563   0.59758   0.00000  Uiso   1.00
H399   H     0.23247   0.06998   0.64383   0.00000  Uiso   1.00
C400   C     0.28803   0.23027   0.35659   0.00000  Uiso   1.00
C401   C     0.33265   0.24320   0.33473   0.00000  Uiso   1.00
H402   H     0.35174   0.20860   0.66469   0.00000  Uiso   1.00
H403   H     0.32813   0.25584   0.62480   0.00000  Uiso   1.00
H404   H     0.35300   0.27680   0.36838   0.00000  Uiso   1.00
H405   H     0.26754   0.26335   0.35617   0.00000  Uiso   1.00
H406   H     0.29925   0.22770   0.40242   0.00000  Uiso   1.00
C407   C     0.74820   0.06676   0.48459   0.00000  Uiso   1.00
C408   C     0.75180   0.26657   0.51541   0.00000  Uiso   1.00
C409   C     0.51045   0.13164   0.39070   0.00000  Uiso   1.00
C410   C     0.98955   0.20171   0.60929   0.00000  Uiso   1.00
C411   C     0.74609   0.01061   0.47621   0.00000  Uiso   1.00
C412   C     0.75391   0.32272   0.52379   0.00000  Uiso   1.00
C413   C     0.66445   0.16648   0.49961   0.00000  Uiso   1.00
C414   C     0.83555   0.16685   0.50039   0.00000  Uiso   1.00
C415   C     0.91363   0.18373   0.55496   0.00000  Uiso   1.00
C416   C     0.58637   0.14961   0.44504   0.00000  Uiso   1.00
C417   C     0.88409   0.16660   0.50060   0.00000  Uiso   1.00
C418   C     0.61591   0.16673   0.49940   0.00000  Uiso   1.00
C419   C     0.90104   0.14950   0.44588   0.00000  Uiso   1.00
C420   C     0.59896   0.18384   0.55412   0.00000  Uiso   1.00
C421   C     0.94718   0.14921   0.44528   0.00000  Uiso   1.00
C422   C     0.55282   0.18413   0.55471   0.00000  Uiso   1.00
C423   C     0.97675   0.16665   0.50010   0.00000  Uiso   1.00
C424   C     0.52325   0.16670   0.49990   0.00000  Uiso   1.00
C425   C     0.95989   0.18409   0.55511   0.00000  Uiso   1.00
C426   C     0.54011   0.14926   0.44489   0.00000  Uiso   1.00
C427   C     0.96422   0.13173   0.39086   0.00000  Uiso   1.00
C428   C     0.53578   0.20162   0.60913   0.00000  Uiso   1.00
Cu429  Cu    0.75501   0.17246   0.56146   0.00000  Uiso   1.00
Cu430  Cu    0.74500   0.16087   0.43854   0.00000  Uiso   1.00
H431   H     0.90086   0.19738   0.59708   0.00000  Uiso   1.00
H432   H     0.59914   0.13595   0.40293   0.00000  Uiso   1.00
H433   H     0.87835   0.13602   0.40369   0.00000  Uiso   1.00
H434   H     0.62165   0.19731   0.59631   0.00000  Uiso   1.00
H435   H     0.94182   0.11823   0.34847   0.00000  Uiso   1.00
H436   H     0.55818   0.21512   0.65152   0.00000  Uiso   1.00
H437   H     0.52301   0.11790   0.34823   0.00000  Uiso   1.00
H438   H     0.97699   0.21546   0.65177   0.00000  Uiso   1.00
H439   H     0.73754   0.31993   0.43044   0.00000  Uiso   1.00
H440   H     0.76246   0.01340   0.56956   0.00000  Uiso   1.00
N441   N     0.73745   0.15214   0.34617   0.00000  Uiso   1.00
N442   N     0.76256   0.18119   0.65383   0.00000  Uiso   1.00
O443   O     0.75326   0.09538   0.53992   0.00000  Uiso   1.00
O444   O     0.74675   0.23796   0.46008   0.00000  Uiso   1.00
O445   O     0.74480   0.08559   0.43612   0.00000  Uiso   1.00
O446   O     0.75520   0.24774   0.56388   0.00000  Uiso   1.00
O447   O     0.68936   0.17155   0.55191   0.00000  Uiso   1.00
O448   O     0.81065   0.16179   0.44809   0.00000  Uiso   1.00
O449   O     0.68090   0.16176   0.44810   0.00000  Uiso   1.00
O450   O     0.81910   0.17157   0.55190   0.00000  Uiso   1.00
C451   C     0.71198   0.10306   0.64341   0.00000  Uiso   1.00
C452   C     0.66736   0.09012   0.66527   0.00000  Uiso   1.00
H453   H     0.67188   0.07750   0.37521   0.00000  Uiso   1.00
H454   H     0.64826   0.12471   0.33529   0.00000  Uiso   1.00
H455   H     0.64702   0.05650   0.63163   0.00000  Uiso   1.00
H456   H     0.70075   0.10563   0.59758   0.00000  Uiso   1.00
H457   H     0.73247   0.06998   0.64383   0.00000  Uiso   1.00
C458   C     0.78803   0.23027   0.35659   0.00000  Uiso   1.00
C459   C     0.83265   0.24320   0.33473   0.00000  Uiso   1.00
H460   H     0.85174   0.20860   0.66469   0.00000  Uiso   1.00
H461   H     0.82813   0.25584   0.62480   0.00000  Uiso   1.00
H462   H     0.85300   0.27680   0.36838   0.00000  Uiso   1.00
H463   H     0.76754   0.26335   0.35617   0.00000  Uiso   1.00
H464   H     0.79925   0.22770   0.40242   0.00000  Uiso   1.00
C465   C     0.24820   0.40010   0.48459   0.00000  Uiso   1.00
C466   C     0.25180   0.59990   0.51541   0.00000  Uiso   1.00
C467   C     0.01045   0.46497   0.39070   0.00000  Uiso   1.00
C468   C     0.48955   0.53505   0.60929   0.00000  Uiso   1.00
C469   C     0.24609   0.34394   0.47621   0.00000  Uiso   1.00
C470   C     0.25391   0.65606   0.52379   0.00000  Uiso   1.00
C471   C     0.16445   0.49981   0.49961   0.00000  Uiso   1.00
C472   C     0.33555   0.50019   0.50039   0.00000  Uiso   1.00
C473   C     0.41363   0.51707   0.55496   0.00000  Uiso   1.00
C474   C     0.08637   0.48294   0.44504   0.00000  Uiso   1.00
C475   C     0.38409   0.49994   0.50060   0.00000  Uiso   1.00
C476   C     0.11591   0.50007   0.49940   0.00000  Uiso   1.00
C477   C     0.40104   0.48284   0.44588   0.00000  Uiso   1.00
C478   C     0.09896   0.51717   0.55412   0.00000  Uiso   1.00
C479   C     0.44718   0.48255   0.44528   0.00000  Uiso   1.00
C480   C     0.05282   0.51747   0.55471   0.00000  Uiso   1.00
C481   C     0.47675   0.49998   0.50010   0.00000  Uiso   1.00
C482   C     0.02325   0.50004   0.49990   0.00000  Uiso   1.00
C483   C     0.45989   0.51742   0.55511   0.00000  Uiso   1.00
C484   C     0.04011   0.48259   0.44489   0.00000  Uiso   1.00
C485   C     0.46422   0.46507   0.39086   0.00000  Uiso   1.00
C486   C     0.03578   0.53495   0.60913   0.00000  Uiso   1.00
Cu487  Cu    0.25501   0.50579   0.56146   0.00000  Uiso   1.00
Cu488  Cu    0.24500   0.49421   0.43854   0.00000  Uiso   1.00
H489   H     0.40086   0.53072   0.59708   0.00000  Uiso   1.00
H490   H     0.09914   0.46928   0.40293   0.00000  Uiso   1.00
H491   H     0.37835   0.46936   0.40369   0.00000  Uiso   1.00
H492   H     0.12165   0.53065   0.59631   0.00000  Uiso   1.00
H493   H     0.44182   0.45156   0.34847   0.00000  Uiso   1.00
H494   H     0.05818   0.54845   0.65152   0.00000  Uiso   1.00
H495   H     0.02301   0.45123   0.34823   0.00000  Uiso   1.00
H496   H     0.47699   0.54879   0.65177   0.00000  Uiso   1.00
H497   H     0.23754   0.65326   0.43044   0.00000  Uiso   1.00
H498   H     0.26246   0.34674   0.56956   0.00000  Uiso   1.00
N499   N     0.23745   0.48547   0.34617   0.00000  Uiso   1.00
N500   N     0.26256   0.51453   0.65383   0.00000  Uiso   1.00
O501   O     0.25326   0.42871   0.53992   0.00000  Uiso   1.00
O502   O     0.24675   0.57129   0.46008   0.00000  Uiso   1.00
O503   O     0.24480   0.41892   0.43612   0.00000  Uiso   1.00
O504   O     0.25520   0.58108   0.56388   0.00000  Uiso   1.00
O505   O     0.18936   0.50488   0.55191   0.00000  Uiso   1.00
O506   O     0.31065   0.49512   0.44809   0.00000  Uiso   1.00
O507   O     0.18090   0.49510   0.44810   0.00000  Uiso   1.00
O508   O     0.31910   0.50490   0.55190   0.00000  Uiso   1.00
C509   C     0.21198   0.43640   0.64341   0.00000  Uiso   1.00
C510   C     0.16736   0.42345   0.66527   0.00000  Uiso   1.00
H511   H     0.17188   0.41083   0.37521   0.00000  Uiso   1.00
H512   H     0.14826   0.45804   0.33529   0.00000  Uiso   1.00
H513   H     0.14702   0.38984   0.63163   0.00000  Uiso   1.00
H514   H     0.20075   0.43897   0.59758   0.00000  Uiso   1.00
H515   H     0.23247   0.40331   0.64383   0.00000  Uiso   1.00
C516   C     0.28803   0.56360   0.35659   0.00000  Uiso   1.00
C517   C     0.33265   0.57654   0.33473   0.00000  Uiso   1.00
H518   H     0.35174   0.54194   0.66469   0.00000  Uiso   1.00
H519   H     0.32813   0.58917   0.62480   0.00000  Uiso   1.00
H520   H     0.35300   0.61013   0.36838   0.00000  Uiso   1.00
H521   H     0.26754   0.59669   0.35617   0.00000  Uiso   1.00
H522   H     0.29925   0.56103   0.40242   0.00000  Uiso   1.00
C523   C     0.74820   0.40010   0.48459   0.00000  Uiso   1.00
C524   C     0.75180   0.59990   0.51541   0.00000  Uiso   1.00
C525   C     0.51045   0.46497   0.39070   0.00000  Uiso   1.00
C526   C     0.98955   0.53505   0.60929   0.00000  Uiso   1.00
C527   C     0.74609   0.34394   0.47621   0.00000  Uiso   1.00
C528   C     0.75391   0.65606   0.52379   0.00000  Uiso   1.00
C529   C     0.66445   0.49981   0.49961   0.00000  Uiso   1.00
C530   C     0.83555   0.50019   0.50039   0.00000  Uiso   1.00
C531   C     0.91363   0.51707   0.55496   0.00000  Uiso   1.00
C532   C     0.58637   0.48294   0.44504   0.00000  Uiso   1.00
C533   C     0.88409   0.49994   0.50060   0.00000  Uiso   1.00
C534   C     0.61591   0.50007   0.49940   0.00000  Uiso   1.00
C535   C     0.90104   0.48284   0.44588   0.00000  Uiso   1.00
C536   C     0.59896   0.51717   0.55412   0.00000  Uiso   1.00
C537   C     0.94718   0.48255   0.44528   0.00000  Uiso   1.00
C538   C     0.55282   0.51747   0.55471   0.00000  Uiso   1.00
C539   C     0.97675   0.49998   0.50010   0.00000  Uiso   1.00
C540   C     0.52325   0.50004   0.49990   0.00000  Uiso   1.00
C541   C     0.95989   0.51742   0.55511   0.00000  Uiso   1.00
C542   C     0.54011   0.48259   0.44489   0.00000  Uiso   1.00
C543   C     0.96422   0.46507   0.39086   0.00000  Uiso   1.00
C544   C     0.53578   0.53495   0.60913   0.00000  Uiso   1.00
Cu545  Cu    0.75501   0.50579   0.56146   0.00000  Uiso   1.00
Cu546  Cu    0.74500   0.49421   0.43854   0.00000  Uiso   1.00
H547   H     0.90086   0.53072   0.59708   0.00000  Uiso   1.00
H548   H     0.59914   0.46928   0.40293   0.00000  Uiso   1.00
H549   H     0.87835   0.46936   0.40369   0.00000  Uiso   1.00
H550   H     0.62165   0.53065   0.59631   0.00000  Uiso   1.00
H551   H     0.94182   0.45156   0.34847   0.00000  Uiso   1.00
H552   H     0.55818   0.54845   0.65152   0.00000  Uiso   1.00
H553   H     0.52301   0.45123   0.34823   0.00000  Uiso   1.00
H554   H     0.97699   0.54879   0.65177   0.00000  Uiso   1.00
H555   H     0.73754   0.65326   0.43044   0.00000  Uiso   1.00
H556   H     0.76246   0.34674   0.56956   0.00000  Uiso   1.00
N557   N     0.73745   0.48547   0.34617   0.00000  Uiso   1.00
N558   N     0.76256   0.51453   0.65383   0.00000  Uiso   1.00
O559   O     0.75326   0.42871   0.53992   0.00000  Uiso   1.00
O560   O     0.74675   0.57129   0.46008   0.00000  Uiso   1.00
O561   O     0.74480   0.41892   0.43612   0.00000  Uiso   1.00
O562   O     0.75520   0.58108   0.56388   0.00000  Uiso   1.00
O563   O     0.68936   0.50488   0.55191   0.00000  Uiso   1.00
O564   O     0.81065   0.49512   0.44809   0.00000  Uiso   1.00
O565   O     0.68090   0.49510   0.44810   0.00000  Uiso   1.00
O566   O     0.81910   0.50490   0.55190   0.00000  Uiso   1.00
C567   C     0.71198   0.43640   0.64341   0.00000  Uiso   1.00
C568   C     0.66736   0.42345   0.66527   0.00000  Uiso   1.00
H569   H     0.67188   0.41083   0.37521   0.00000  Uiso   1.00
H570   H     0.64826   0.45804   0.33529   0.00000  Uiso   1.00
H571   H     0.64702   0.38984   0.63163   0.00000  Uiso   1.00
H572   H     0.70075   0.43897   0.59758   0.00000  Uiso   1.00
H573   H     0.73247   0.40331   0.64383   0.00000  Uiso   1.00
C574   C     0.78803   0.56360   0.35659   0.00000  Uiso   1.00
C575   C     0.83265   0.57654   0.33473   0.00000  Uiso   1.00
H576   H     0.85174   0.54194   0.66469   0.00000  Uiso   1.00
H577   H     0.82813   0.58917   0.62480   0.00000  Uiso   1.00
H578   H     0.85300   0.61013   0.36838   0.00000  Uiso   1.00
H579   H     0.76754   0.59669   0.35617   0.00000  Uiso   1.00
H580   H     0.79925   0.56103   0.40242   0.00000  Uiso   1.00
C581   C     0.24820   0.73343   0.48459   0.00000  Uiso   1.00
C582   C     0.25180   0.93324   0.51541   0.00000  Uiso   1.00
C583   C     0.01045   0.79830   0.39070   0.00000  Uiso   1.00
C584   C     0.48955   0.86838   0.60929   0.00000  Uiso   1.00
C585   C     0.24609   0.67728   0.47621   0.00000  Uiso   1.00
C586   C     0.25391   0.98939   0.52379   0.00000  Uiso   1.00
C587   C     0.16445   0.83315   0.49961   0.00000  Uiso   1.00
C588   C     0.33555   0.83352   0.50039   0.00000  Uiso   1.00
C589   C     0.41363   0.85040   0.55496   0.00000  Uiso   1.00
C590   C     0.08637   0.81627   0.44504   0.00000  Uiso   1.00
C591   C     0.38409   0.83327   0.50060   0.00000  Uiso   1.00
C592   C     0.11591   0.83340   0.49940   0.00000  Uiso   1.00
C593   C     0.40104   0.81617   0.44588   0.00000  Uiso   1.00
C594   C     0.09896   0.85050   0.55412   0.00000  Uiso   1.00
C595   C     0.44718   0.81588   0.44528   0.00000  Uiso   1.00
C596   C     0.05282   0.85080   0.55471   0.00000  Uiso   1.00
C597   C     0.47675   0.83331   0.50010   0.00000  Uiso   1.00
C598   C     0.02325   0.83337   0.49990   0.00000  Uiso   1.00
C599   C     0.45989   0.85075   0.55511   0.00000  Uiso   1.00
C600   C     0.04011   0.81593   0.44489   0.00000  Uiso   1.00
C601   C     0.46422   0.79840   0.39086   0.00000  Uiso   1.00
C602   C     0.03578   0.86828   0.60913   0.00000  Uiso   1.00
Cu603  Cu    0.25501   0.83913   0.56146   0.00000  Uiso   1.00
Cu604  Cu    0.24500   0.82754   0.43854   0.00000  Uiso   1.00
H605   H     0.40086   0.86405   0.59708   0.00000  Uiso   1.00
H606   H     0.09914   0.80262   0.40293   0.00000  Uiso   1.00
H607   H     0.37835   0.80269   0.40369   0.00000  Uiso   1.00
H608   H     0.12165   0.86398   0.59631   0.00000  Uiso   1.00
H609   H     0.44182   0.78490   0.34847   0.00000  Uiso   1.00
H610   H     0.05818   0.88179   0.65152   0.00000  Uiso   1.00
H611   H     0.02301   0.78456   0.34823   0.00000  Uiso   1.00
H612   H     0.47699   0.88212   0.65177   0.00000  Uiso   1.00
H613   H     0.23754   0.98660   0.43044   0.00000  Uiso   1.00
H614   H     0.26246   0.68007   0.56956   0.00000  Uiso   1.00
N615   N     0.23745   0.81881   0.34617   0.00000  Uiso   1.00
N616   N     0.26256   0.84786   0.65383   0.00000  Uiso   1.00
O617   O     0.25326   0.76204   0.53992   0.00000  Uiso   1.00
O618   O     0.24675   0.90462   0.46008   0.00000  Uiso   1.00
O619   O     0.24480   0.75226   0.43612   0.00000  Uiso   1.00
O620   O     0.25520   0.91441   0.56388   0.00000  Uiso   1.00
O621   O     0.18936   0.83821   0.55191   0.00000  Uiso   1.00
O622   O     0.31065   0.82845   0.44809   0.00000  Uiso   1.00
O623   O     0.18090   0.82843   0.44810   0.00000  Uiso   1.00
O624   O     0.31910   0.83824   0.55190   0.00000  Uiso   1.00
C625   C     0.21198   0.76973   0.64341   0.00000  Uiso   1.00
C626   C     0.16736   0.75678   0.66527   0.00000  Uiso   1.00
H627   H     0.17188   0.74417   0.37521   0.00000  Uiso   1.00
H628   H     0.14826   0.79138   0.33529   0.00000  Uiso   1.00
H629   H     0.14702   0.72317   0.63163   0.00000  Uiso   1.00
H630   H     0.20075   0.77230   0.59758   0.00000  Uiso   1.00
H631   H     0.23247   0.73665   0.64383   0.00000  Uiso   1.00
C632   C     0.28803   0.89693   0.35659   0.00000  Uiso   1.00
C633   C     0.33265   0.90987   0.33473   0.00000  Uiso   1.00
H634   H     0.35174   0.87527   0.66469   0.00000  Uiso   1.00
H635   H     0.32813   0.92250   0.62480   0.00000  Uiso   1.00
H636   H     0.35300   0.94347   0.36838   0.00000  Uiso   1.00
H637   H     0.26754   0.93002   0.35617   0.00000  Uiso   1.00
H638   H     0.29925   0.89436   0.40242   0.00000  Uiso   1.00
C639   C     0.74820   0.73343   0.48459   0.00000  Uiso   1.00
C640   C     0.75180   0.93324   0.51541   0.00000  Uiso   1.00
C641   C     0.51045   0.79830   0.39070   0.00000  Uiso   1.00
C642   C     0.98955   0.86838   0.60929   0.00000  Uiso   1.00
C643   C     0.74609   0.67728   0.47621   0.00000  Uiso   1.00
C644   C     0.75391   0.98939   0.52379   0.00000  Uiso   1.00
C645   C     0.66445   0.83315   0.49961   0.00000  Uiso   1.00
C646   C     0.83555   0.83352   0.50039   0.00000  Uiso   1.00
C647   C     0.91363   0.85040   0.55496   0.00000  Uiso   1.00
C648   C     0.58637   0.81627   0.44504   0.00000  Uiso   1.00
C649   C     0.88409   0.83327   0.50060   0.00000  Uiso   1.00
C650   C     0.61591   0.83340   0.49940   0.00000  Uiso   1.00
C651   C     0.90104   0.81617   0.44588   0.00000  Uiso   1.00
C652   C     0.59896   0.85050   0.55412   0.00000  Uiso   1.00
C653   C     0.94718   0.81588   0.44528   0.00000  Uiso   1.00
C654   C     0.55282   0.85080   0.55471   0.00000  Uiso   1.00
C655   C     0.97675   0.83331   0.50010   0.00000  Uiso   1.00
C656   C     0.52325   0.83337   0.49990   0.00000  Uiso   1.00
C657   C     0.95989   0.85075   0.55511   0.00000  Uiso   1.00
C658   C     0.54011   0.81593   0.44489   0.00000  Uiso   1.00
C659   C     0.96422   0.79840   0.39086   0.00000  Uiso   1.00
C660   C     0.53578   0.86828   0.60913   0.00000  Uiso   1.00
Cu661  Cu    0.75501   0.83913   0.56146   0.00000  Uiso   1.00
Cu662  Cu    0.74500   0.82754   0.43854   0.00000  Uiso   1.00
H663   H     0.90086   0.86405   0.59708   0.00000  Uiso   1.00
H664   H     0.59914   0.80262   0.40293   0.00000  Uiso   1.00
H665   H     0.87835   0.80269   0.40369   0.00000  Uiso   1.00
H666   H     0.62165   0.86398   0.59631   0.00000  Uiso   1.00
H667   H     0.94182   0.78490   0.34847   0.00000  Uiso   1.00
H668   H     0.55818   0.88179   0.65152   0.00000  Uiso   1.00
H669   H     0.52301   0.78456   0.34823   0.00000  Uiso   1.00
H670   H     0.97699   0.88212   0.65177   0.00000  Uiso   1.00
H671   H     0.73754   0.98660   0.43044   0.00000  Uiso   1.00
H672   H     0.76246   0.68007   0.56956   0.00000  Uiso   1.00
N673   N     0.73745   0.81881   0.34617   0.00000  Uiso   1.00
N674   N     0.76256   0.84786   0.65383   0.00000  Uiso   1.00
O675   O     0.75326   0.76204   0.53992   0.00000  Uiso   1.00
O676   O     0.74675   0.90462   0.46008   0.00000  Uiso   1.00
O677   O     0.74480   0.75226   0.43612   0.00000  Uiso   1.00
O678   O     0.75520   0.91441   0.56388   0.00000  Uiso   1.00
O679   O     0.68936   0.83821   0.55191   0.00000  Uiso   1.00
O680   O     0.81065   0.82845   0.44809   0.00000  Uiso   1.00
O681   O     0.68090   0.82843   0.44810   0.00000  Uiso   1.00
O682   O     0.81910   0.83824   0.55190   0.00000  Uiso   1.00
C683   C     0.71198   0.76973   0.64341   0.00000  Uiso   1.00
C684   C     0.66736   0.75678   0.66527   0.00000  Uiso   1.00
H685   H     0.67188   0.74417   0.37521   0.00000  Uiso   1.00
H686   H     0.64826   0.79138   0.33529   0.00000  Uiso   1.00
H687   H     0.64702   0.72317   0.63163   0.00000  Uiso   1.00
H688   H     0.70075   0.77230   0.59758   0.00000  Uiso   1.00
H689   H     0.73247   0.73665   0.64383   0.00000  Uiso   1.00
C690   C     0.78803   0.89693   0.35659   0.00000  Uiso   1.00
C691   C     0.83265   0.90987   0.33473   0.00000  Uiso   1.00
H692   H     0.85174   0.87527   0.66469   0.00000  Uiso   1.00
H693   H     0.82813   0.92250   0.62480   0.00000  Uiso   1.00
H694   H     0.85300   0.94347   0.36838   0.00000  Uiso   1.00
H695   H     0.76754   0.93002   0.35617   0.00000  Uiso   1.00
H696   H     0.79925   0.89436   0.40242   0.00000  Uiso   1.00
C697   C     0.24820   0.06676   0.81792   0.00000  Uiso   1.00
C698   C     0.25180   0.26657   0.84875   0.00000  Uiso   1.00
C699   C     0.01045   0.13164   0.72403   0.00000  Uiso   1.00
C700   C     0.48955   0.20171   0.94263   0.00000  Uiso   1.00
C701   C     0.24609   0.01061   0.80954   0.00000  Uiso   1.00
C702   C     0.25391   0.32272   0.85712   0.00000  Uiso   1.00
C703   C     0.16445   0.16648   0.83295   0.00000  Uiso   1.00
C704   C     0.33555   0.16685   0.83372   0.00000  Uiso   1.00
C705   C     0.41363   0.18373   0.88829   0.00000  Uiso   1.00
C706   C     0.08637   0.14961   0.77838   0.00000  Uiso   1.00
C707   C     0.38409   0.16660   0.83393   0.00000  Uiso   1.00
C708   C     0.11591   0.16673   0.83274   0.00000  Uiso   1.00
C709   C     0.40104   0.14950   0.77921   0.00000  Uiso   1.00
C710   C     0.09896   0.18384   0.88746   0.00000  Uiso   1.00
C711   C     0.44718   0.14921   0.77862   0.00000  Uiso   1.00
C712   C     0.05282   0.18413   0.88805   0.00000  Uiso   1.00
C713   C     0.47675   0.16665   0.83343   0.00000  Uiso   1.00
C714   C     0.02325   0.16670   0.83323   0.00000  Uiso   1.00
C715   C     0.45989   0.18409   0.88844   0.00000  Uiso   1.00
C716   C     0.04011   0.14926   0.77822   0.00000  Uiso   1.00
C717   C     0.46422   0.13173   0.72420   0.00000  Uiso   1.00
C718   C     0.03578   0.20162   0.94246   0.00000  Uiso   1.00
Cu719  Cu    0.25501   0.17246   0.89479   0.00000  Uiso   1.00
Cu720  Cu    0.24500   0.16087   0.77187   0.00000  Uiso   1.00
H721   H     0.40086   0.19738   0.93041   0.00000  Uiso   1.00
H722   H     0.09914   0.13595   0.73626   0.00000  Uiso   1.00
H723   H     0.37835   0.13602   0.73702   0.00000  Uiso   1.00
H724   H     0.12165   0.19731   0.92965   0.00000  Uiso   1.00
H725   H     0.44182   0.11823   0.68180   0.00000  Uiso   1.00
H726   H     0.05818   0.21512   0.98486   0.00000  Uiso   1.00
H727   H     0.02301   0.11790   0.68156   0.00000  Uiso   1.00
H728   H     0.47699   0.21546   0.98510   0.00000  Uiso   1.00
H729   H     0.23754   0.31993   0.76378   0.00000  Uiso   1.00
H730   H     0.26246   0.01340   0.90289   0.00000  Uiso   1.00
N731   N     0.23745   0.15214   0.67951   0.00000  Uiso   1.00
N732   N     0.26256   0.18119   0.98716   0.00000  Uiso   1.00
O733   O     0.25326   0.09538   0.87326   0.00000  Uiso   1.00
O734   O     0.24675   0.23796   0.79341   0.00000  Uiso   1.00
O735   O     0.24480   0.08559   0.76945   0.00000  Uiso   1.00
O736   O     0.25520   0.24774   0.89721   0.00000  Uiso   1.00
O737   O     0.18936   0.17155   0.88524   0.00000  Uiso   1.00
O738   O     0.31065   0.16179   0.78143   0.00000  Uiso   1.00
O739   O     0.18090   0.16176   0.78143   0.00000  Uiso   1.00
O740   O     0.31910   0.17157   0.88523   0.00000  Uiso   1.00
C741   C     0.21198   0.10306   0.97674   0.00000  Uiso   1.00
C742   C     0.16736   0.09012   0.99860   0.00000  Uiso   1.00
H743   H     0.17188   0.07750   0.70854   0.00000  Uiso   1.00
H744   H     0.14826   0.12471   0.66863   0.00000  Uiso   1.00
H745   H     0.14702   0.05650   0.96496   0.00000  Uiso   1.00
H746   H     0.20075   0.10563   0.93091   0.00000  Uiso   1.00
H747   H     0.23247   0.06998   0.97716   0.00000  Uiso   1.00
C748   C     0.28803   0.23027   0.68992   0.00000  Uiso   1.00
C749   C     0.33265   0.24320   0.66807   0.00000  Uiso   1.00
H750   H     0.35174   0.20860   0.99802   0.00000  Uiso   1.00
H751   H     0.32813   0.25584   0.95813   0.00000  Uiso   1.00
H752   H     0.35300   0.27680   0.70171   0.00000  Uiso   1.00
H753   H     0.26754   0.26335   0.68950   0.00000  Uiso   1.00
H754   H     0.29925   0.22770   0.73576   0.00000  Uiso   1.00
C755   C     0.74820   0.06676   0.81792   0.00000  Uiso   1.00
C756   C     0.75180   0.26657   0.84875   0.00000  Uiso   1.00
C757   C     0.51045   0.13164   0.72403   0.00000  Uiso   1.00
C758   C     0.98955   0.20171   0.94263   0.00000  Uiso   1.00
C759   C     0.74609   0.01061   0.80954   0.00000  Uiso   1.00
C760   C     0.75391   0.32272   0.85712   0.00000  Uiso   1.00
C761   C     0.66445   0.16648   0.83295   0.00000  Uiso   1.00
C762   C     0.83555   0.16685   0.83372   0.00000  Uiso   1.00
C763   C     0.91363   0.18373   0.88829   0.00000  Uiso   1.00
C764   C     0.58637   0.14961   0.77838   0.00000  Uiso   1.00
C765   C     0.88409   0.16660   0.83393   0.00000  Uiso   1.00
C766   C     0.61591   0.16673   0.83274   0.00000  Uiso   1.00
C767   C     0.90104   0.14950   0.77921   0.00000  Uiso   1.00
C768   C     0.59896   0.18384   0.88746   0.00000  Uiso   1.00
C769   C     0.94718   0.14921   0.77862   0.00000  Uiso   1.00
C770   C     0.55282   0.18413   0.88805   0.00000  Uiso   1.00
C771   C     0.97675   0.16665   0.83343   0.00000  Uiso   1.00
C772   C     0.52325   0.16670   0.83323   0.00000  Uiso   1.00
C773   C     0.95989   0.18409   0.88844   0.00000  Uiso   1.00
C774   C     0.54011   0.14926   0.77822   0.00000  Uiso   1.00
C775   C     0.96422   0.13173   0.72420   0.00000  Uiso   1.00
C776   C     0.53578   0.20162   0.94246   0.00000  Uiso   1.00
Cu777  Cu    0.75501   0.17246   0.89479   0.00000  Uiso   1.00
Cu778  Cu    0.74500   0.16087   0.77187   0.00000  Uiso   1.00
H779   H     0.90086   0.19738   0.93041   0.00000  Uiso   1.00
H780   H     0.59914   0.13595   0.73626   0.00000  Uiso   1.00
H781   H     0.87835   0.13602   0.73702   0.00000  Uiso   1.00
H782   H     0.62165   0.19731   0.92965   0.00000  Uiso   1.00
H783   H     0.94182   0.11823   0.68180   0.00000  Uiso   1.00
H784   H     0.55818   0.21512   0.98486   0.00000  Uiso   1.00
H785   H     0.52301   0.11790   0.68156   0.00000  Uiso   1.00
H786   H     0.97699   0.21546   0.98510   0.00000  Uiso   1.00
H787   H     0.73754   0.31993   0.76378   0.00000  Uiso   1.00
H788   H     0.76246   0.01340   0.90289   0.00000  Uiso   1.00
N789   N     0.73745   0.15214   0.67951   0.00000  Uiso   1.00
N790   N     0.76256   0.18119   0.98716   0.00000  Uiso   1.00
O791   O     0.75326   0.09538   0.87326   0.00000  Uiso   1.00
O792   O     0.74675   0.23796   0.79341   0.00000  Uiso   1.00
O793   O     0.74480   0.08559   0.76945   0.00000  Uiso   1.00
O794   O     0.75520   0.24774   0.89721   0.00000  Uiso   1.00
O795   O     0.68936   0.17155   0.88524   0.00000  Uiso   1.00
O796   O     0.81065   0.16179   0.78143   0.00000  Uiso   1.00
O797   O     0.68090   0.16176   0.78143   0.00000  Uiso   1.00
O798   O     0.81910   0.17157   0.88523   0.00000  Uiso   1.00
C799   C     0.71198   0.10306   0.97674   0.00000  Uiso   1.00
C800   C     0.66736   0.09012   0.99860   0.00000  Uiso   1.00
H801   H     0.67188   0.07750   0.70854   0.00000  Uiso   1.00
H802   H     0.64826   0.12471   0.66863   0.00000  Uiso   1.00
H803   H     0.64702   0.05650   0.96496   0.00000  Uiso   1.00
H804   H     0.70075   0.10563   0.93091   0.00000  Uiso   1.00
H805   H     0.73247   0.06998   0.97716   0.00000  Uiso   1.00
C806   C     0.78803   0.23027   0.68992   0.00000  Uiso   1.00
C807   C     0.83265   0.24320   0.66807   0.00000  Uiso   1.00
H808   H     0.85174   0.20860   0.99802   0.00000  Uiso   1.00
H809   H     0.82813   0.25584   0.95813   0.00000  Uiso   1.00
H810   H     0.85300   0.27680   0.70171   0.00000  Uiso   1.00
H811   H     0.76754   0.26335   0.68950   0.00000  Uiso   1.00
H812   H     0.79925   0.22770   0.73576   0.00000  Uiso   1.00
C813   C     0.24820   0.40010   0.81792   0.00000  Uiso   1.00
C814   C     0.25180   0.59990   0.84875   0.00000  Uiso   1.00
C815   C     0.01045   0.46497   0.72403   0.00000  Uiso   1.00
C816   C     0.48955   0.53505   0.94263   0.00000  Uiso   1.00
C817   C     0.24609   0.34394   0.80954   0.00000  Uiso   1.00
C818   C     0.25391   0.65606   0.85712   0.00000  Uiso   1.00
C819   C     0.16445   0.49981   0.83295   0.00000  Uiso   1.00
C820   C     0.33555   0.50019   0.83372   0.00000  Uiso   1.00
C821   C     0.41363   0.51707   0.88829   0.00000  Uiso   1.00
C822   C     0.08637   0.48294   0.77838   0.00000  Uiso   1.00
C823   C     0.38409   0.49994   0.83393   0.00000  Uiso   1.00
C824   C     0.11591   0.50007   0.83274   0.00000  Uiso   1.00
C825   C     0.40104   0.48284   0.77921   0.00000  Uiso   1.00
C826   C     0.09896   0.51717   0.88746   0.00000  Uiso   1.00
C827   C     0.44718   0.48255   0.77862   0.00000  Uiso   1.00
C828   C     0.05282   0.51747   0.88805   0.00000  Uiso   1.00
C829   C     0.47675   0.49998   0.83343   0.00000  Uiso   1.00
C830   C     0.02325   0.50004   0.83323   0.00000  Uiso   1.00
C831   C     0.45989   0.51742   0.88844   0.00000  Uiso   1.00
C832   C     0.04011   0.48259   0.77822   0.00000  Uiso   1.00
C833   C     0.46422   0.46507   0.72420   0.00000  Uiso   1.00
C834   C     0.03578   0.53495   0.94246   0.00000  Uiso   1.00
Cu835  Cu    0.25501   0.50579   0.89479   0.00000  Uiso   1.00
Cu836  Cu    0.24500   0.49421   0.77187   0.00000  Uiso   1.00
H837   H     0.40086   0.53072   0.93041   0.00000  Uiso   1.00
H838   H     0.09914   0.46928   0.73626   0.00000  Uiso   1.00
H839   H     0.37835   0.46936   0.73702   0.00000  Uiso   1.00
H840   H     0.12165   0.53065   0.92965   0.00000  Uiso   1.00
H841   H     0.44182   0.45156   0.68180   0.00000  Uiso   1.00
H842   H     0.05818   0.54845   0.98486   0.00000  Uiso   1.00
H843   H     0.02301   0.45123   0.68156   0.00000  Uiso   1.00
H844   H     0.47699   0.54879   0.98510   0.00000  Uiso   1.00
H845   H     0.23754   0.65326   0.76378   0.00000  Uiso   1.00
H846   H     0.26246   0.34674   0.90289   0.00000  Uiso   1.00
N847   N     0.23745   0.48547   0.67951   0.00000  Uiso   1.00
N848   N     0.26256   0.51453   0.98716   0.00000  Uiso   1.00
O849   O     0.25326   0.42871   0.87326   0.00000  Uiso   1.00
O850   O     0.24675   0.57129   0.79341   0.00000  Uiso   1.00
O851   O     0.24480   0.41892   0.76945   0.00000  Uiso   1.00
O852   O     0.25520   0.58108   0.89721   0.00000  Uiso   1.00
O853   O     0.18936   0.50488   0.88524   0.00000  Uiso   1.00
O854   O     0.31065   0.49512   0.78143   0.00000  Uiso   1.00
O855   O     0.18090   0.49510   0.78143   0.00000  Uiso   1.00
O856   O     0.31910   0.50490   0.88523   0.00000  Uiso   1.00
C857   C     0.21198   0.43640   0.97674   0.00000  Uiso   1.00
C858   C     0.16736   0.42345   0.99860   0.00000  Uiso   1.00
H859   H     0.17188   0.41083   0.70854   0.00000  Uiso   1.00
H860   H     0.14826   0.45804   0.66863   0.00000  Uiso   1.00
H861   H     0.14702   0.38984   0.96496   0.00000  Uiso   1.00
H862   H     0.20075   0.43897   0.93091   0.00000  Uiso   1.00
H863   H     0.23247   0.40331   0.97716   0.00000  Uiso   1.00
C864   C     0.28803   0.56360   0.68992   0.00000  Uiso   1.00
C865   C     0.33265   0.57654   0.66807   0.00000  Uiso   1.00
H866   H     0.35174   0.54194   0.99802   0.00000  Uiso   1.00
H867   H     0.32813   0.58917   0.95813   0.00000  Uiso   1.00
H868   H     0.35300   0.61013   0.70171   0.00000  Uiso   1.00
H869   H     0.26754   0.59669   0.68950   0.00000  Uiso   1.00
H870   H     0.29925   0.56103   0.73576   0.00000  Uiso   1.00
C871   C     0.74820   0.40010   0.81792   0.00000  Uiso   1.00
C872   C     0.75180   0.59990   0.84875   0.00000  Uiso   1.00
C873   C     0.51045   0.46497   0.72403   0.00000  Uiso   1.00
C874   C     0.98955   0.53505   0.94263   0.00000  Uiso   1.00
C875   C     0.74609   0.34394   0.80954   0.00000  Uiso   1.00
C876   C     0.75391   0.65606   0.85712   0.00000  Uiso   1.00
C877   C     0.66445   0.49981   0.83295   0.00000  Uiso   1.00
C878   C     0.83555   0.50019   0.83372   0.00000  Uiso   1.00
C879   C     0.91363   0.51707   0.88829   0.00000  Uiso   1.00
C880   C     0.58637   0.48294   0.77838   0.00000  Uiso   1.00
C881   C     0.88409   0.49994   0.83393   0.00000  Uiso   1.00
C882   C     0.61591   0.50007   0.83274   0.00000  Uiso   1.00
C883   C     0.90104   0.48284   0.77921   0.00000  Uiso   1.00
C884   C     0.59896   0.51717   0.88746   0.00000  Uiso   1.00
C885   C     0.94718   0.48255   0.77862   0.00000  Uiso   1.00
C886   C     0.55282   0.51747   0.88805   0.00000  Uiso   1.00
C887   C     0.97675   0.49998   0.83343   0.00000  Uiso   1.00
C888   C     0.52325   0.50004   0.83323   0.00000  Uiso   1.00
C889   C     0.95989   0.51742   0.88844   0.00000  Uiso   1.00
C890   C     0.54011   0.48259   0.77822   0.00000  Uiso   1.00
C891   C     0.96422   0.46507   0.72420   0.00000  Uiso   1.00
C892   C     0.53578   0.53495   0.94246   0.00000  Uiso   1.00
Cu893  Cu    0.75501   0.50579   0.89479   0.00000  Uiso   1.00
Cu894  Cu    0.74500   0.49421   0.77187   0.00000  Uiso   1.00
H895   H     0.90086   0.53072   0.93041   0.00000  Uiso   1.00
H896   H     0.59914   0.46928   0.73626   0.00000  Uiso   1.00
H897   H     0.87835   0.46936   0.73702   0.00000  Uiso   1.00
H898   H     0.62165   0.53065   0.92965   0.00000  Uiso   1.00
H899   H     0.94182   0.45156   0.68180   0.00000  Uiso   1.00
H900   H     0.55818   0.54845   0.98486   0.00000  Uiso   1.00
H901   H     0.52301   0.45123   0.68156   0.00000  Uiso   1.00
H902   H     0.97699   0.54879   0.98510   0.00000  Uiso   1.00
H903   H     0.73754   0.65326   0.76378   0.00000  Uiso   1.00
H904   H     0.76246   0.34674   0.90289   0.00000  Uiso   1.00
N905   N     0.73745   0.48547   0.67951   0.00000  Uiso   1.00
N906   N     0.76256   0.51453   0.98716   0.00000  Uiso   1.00
O907   O     0.75326   0.42871   0.87326   0.00000  Uiso   1.00
O908   O     0.74675   0.57129   0.79341   0.00000  Uiso   1.00
O909   O     0.74480   0.41892   0.76945   0.00000  Uiso   1.00
O910   O     0.75520   0.58108   0.89721   0.00000  Uiso   1.00
O911   O     0.68936   0.50488   0.88524   0.00000  Uiso   1.00
O912   O     0.81065   0.49512   0.78143   0.00000  Uiso   1.00
O913   O     0.68090   0.49510   0.78143   0.00000  Uiso   1.00
O914   O     0.81910   0.50490   0.88523   0.00000  Uiso   1.00
C915   C     0.71198   0.43640   0.97674   0.00000  Uiso   1.00
C916   C     0.66736   0.42345   0.99860   0.00000  Uiso   1.00
H917   H     0.67188   0.41083   0.70854   0.00000  Uiso   1.00
H918   H     0.64826   0.45804   0.66863   0.00000  Uiso   1.00
H919   H     0.64702   0.38984   0.96496   0.00000  Uiso   1.00
H920   H     0.70075   0.43897   0.93091   0.00000  Uiso   1.00
H921   H     0.73247   0.40331   0.97716   0.00000  Uiso   1.00
C922   C     0.78803   0.56360   0.68992   0.00000  Uiso   1.00
C923   C     0.83265   0.57654   0.66807   0.00000  Uiso   1.00
H924   H     0.85174   0.54194   0.99802   0.00000  Uiso   1.00
H925   H     0.82813   0.58917   0.95813   0.00000  Uiso   1.00
H926   H     0.85300   0.61013   0.70171   0.00000  Uiso   1.00
H927   H     0.76754   0.59669   0.68950   0.00000  Uiso   1.00
H928   H     0.79925   0.56103   0.73576   0.00000  Uiso   1.00
C929   C     0.24820   0.73343   0.81792   0.00000  Uiso   1.00
C930   C     0.25180   0.93324   0.84875   0.00000  Uiso   1.00
C931   C     0.01045   0.79830   0.72403   0.00000  Uiso   1.00
C932   C     0.48955   0.86838   0.94263   0.00000  Uiso   1.00
C933   C     0.24609   0.67728   0.80954   0.00000  Uiso   1.00
C934   C     0.25391   0.98939   0.85712   0.00000  Uiso   1.00
C935   C     0.16445   0.83315   0.83295   0.00000  Uiso   1.00
C936   C     0.33555   0.83352   0.83372   0.00000  Uiso   1.00
C937   C     0.41363   0.85040   0.88829   0.00000  Uiso   1.00
C938   C     0.08637   0.81627   0.77838   0.00000  Uiso   1.00
C939   C     0.38409   0.83327   0.83393   0.00000  Uiso   1.00
C940   C     0.11591   0.83340   0.83274   0.00000  Uiso   1.00
C941   C     0.40104   0.81617   0.77921   0.00000  Uiso   1.00
C942   C     0.09896   0.85050   0.88746   0.00000  Uiso   1.00
C943   C     0.44718   0.81588   0.77862   0.00000  Uiso   1.00
C944   C     0.05282   0.85080   0.88805   0.00000  Uiso   1.00
C945   C     0.47675   0.83331   0.83343   0.00000  Uiso   1.00
C946   C     0.02325   0.83337   0.83323   0.00000  Uiso   1.00
C947   C     0.45989   0.85075   0.88844   0.00000  Uiso   1.00
C948   C     0.04011   0.81593   0.77822   0.00000  Uiso   1.00
C949   C     0.46422   0.79840   0.72420   0.00000  Uiso   1.00
C950   C     0.03578   0.86828   0.94246   0.00000  Uiso   1.00
Cu951  Cu    0.25501   0.83913   0.89479   0.00000  Uiso   1.00
Cu952  Cu    0.24500   0.82754   0.77187   0.00000  Uiso   1.00
H953   H     0.40086   0.86405   0.93041   0.00000  Uiso   1.00
H954   H     0.09914   0.80262   0.73626   0.00000  Uiso   1.00
H955   H     0.37835   0.80269   0.73702   0.00000  Uiso   1.00
H956   H     0.12165   0.86398   0.92965   0.00000  Uiso   1.00
H957   H     0.44182   0.78490   0.68180   0.00000  Uiso   1.00
H958   H     0.05818   0.88179   0.98486   0.00000  Uiso   1.00
H959   H     0.02301   0.78456   0.68156   0.00000  Uiso   1.00
H960   H     0.47699   0.88212   0.98510   0.00000  Uiso   1.00
H961   H     0.23754   0.98660   0.76378   0.00000  Uiso   1.00
H962   H     0.26246   0.68007   0.90289   0.00000  Uiso   1.00
N963   N     0.23745   0.81881   0.67951   0.00000  Uiso   1.00
N964   N     0.26256   0.84786   0.98716   0.00000  Uiso   1.00
O965   O     0.25326   0.76204   0.87326   0.00000  Uiso   1.00
O966   O     0.24675   0.90462   0.79341   0.00000  Uiso   1.00
O967   O     0.24480   0.75226   0.76945   0.00000  Uiso   1.00
O968   O     0.25520   0.91441   0.89721   0.00000  Uiso   1.00
O969   O     0.18936   0.83821   0.88524   0.00000  Uiso   1.00
O970   O     0.31065   0.82845   0.78143   0.00000  Uiso   1.00
O971   O     0.18090   0.82843   0.78143   0.00000  Uiso   1.00
O972   O     0.31910   0.83824   0.88523   0.00000  Uiso   1.00
C973   C     0.21198   0.76973   0.97674   0.00000  Uiso   1.00
C974   C     0.16736   0.75678   0.99860   0.00000  Uiso   1.00
H975   H     0.17188   0.74417   0.70854   0.00000  Uiso   1.00
H976   H     0.14826   0.79138   0.66863   0.00000  Uiso   1.00
H977   H     0.14702   0.72317   0.96496   0.00000  Uiso   1.00
H978   H     0.20075   0.77230   0.93091   0.00000  Uiso   1.00
H979   H     0.23247   0.73665   0.97716   0.00000  Uiso   1.00
C980   C     0.28803   0.89693   0.68992   0.00000  Uiso   1.00
C981   C     0.33265   0.90987   0.66807   0.00000  Uiso   1.00
H982   H     0.35174   0.87527   0.99802   0.00000  Uiso   1.00
H983   H     0.32813   0.92250   0.95813   0.00000  Uiso   1.00
H984   H     0.35300   0.94347   0.70171   0.00000  Uiso   1.00
H985   H     0.26754   0.93002   0.68950   0.00000  Uiso   1.00
H986   H     0.29925   0.89436   0.73576   0.00000  Uiso   1.00
C987   C     0.74820   0.73343   0.81792   0.00000  Uiso   1.00
C988   C     0.75180   0.93324   0.84875   0.00000  Uiso   1.00
C989   C     0.51045   0.79830   0.72403   0.00000  Uiso   1.00
C990   C     0.98955   0.86838   0.94263   0.00000  Uiso   1.00
C991   C     0.74609   0.67728   0.80954   0.00000  Uiso   1.00
C992   C     0.75391   0.98939   0.85712   0.00000  Uiso   1.00
C993   C     0.66445   0.83315   0.83295   0.00000  Uiso   1.00
C994   C     0.83555   0.83352   0.83372   0.00000  Uiso   1.00
C995   C     0.91363   0.85040   0.88829   0.00000  Uiso   1.00
C996   C     0.58637   0.81627   0.77838   0.00000  Uiso   1.00
C997   C     0.88409   0.83327   0.83393   0.00000  Uiso   1.00
C998   C     0.61591   0.83340   0.83274   0.00000  Uiso   1.00
C999   C     0.90104   0.81617   0.77921   0.00000  Uiso   1.00
C1000  C     0.59896   0.85050   0.88746   0.00000  Uiso   1.00
C1001  C     0.94718   0.81588   0.77862   0.00000  Uiso   1.00
C1002  C     0.55282   0.85080   0.88805   0.00000  Uiso   1.00
C1003  C     0.97675   0.83331   0.83343   0.00000  Uiso   1.00
C1004  C     0.52325   0.83337   0.83323   0.00000  Uiso   1.00
C1005  C     0.95989   0.85075   0.88844   0.00000  Uiso   1.00
C1006  C     0.54011   0.81593   0.77822   0.00000  Uiso   1.00
C1007  C     0.96422   0.79840   0.72420   0.00000  Uiso   1.00
C1008  C     0.53578   0.86828   0.94246   0.00000  Uiso   1.00
Cu1009 Cu    0.75501   0.83913   0.89479   0.00000  Uiso   1.00
Cu1010 Cu    0.74500   0.82754   0.77187   0.00000  Uiso   1.00
H1011  H     0.90086   0.86405   0.93041   0.00000  Uiso   1.00
H1012  H     0.59914   0.80262   0.73626   0.00000  Uiso   1.00
H1013  H     0.87835   0.80269   0.73702   0.00000  Uiso   1.00
H1014  H     0.62165   0.86398   0.92965   0.00000  Uiso   1.00
H1015  H     0.94182   0.78490   0.68180   0.00000  Uiso   1.00
H1016  H     0.55818   0.88179   0.98486   0.00000  Uiso   1.00
H1017  H     0.52301   0.78456   0.68156   0.00000  Uiso   1.00
H1018  H     0.97699   0.88212   0.98510   0.00000  Uiso   1.00
H1019  H     0.73754   0.98660   0.76378   0.00000  Uiso   1.00
H1020  H     0.76246   0.68007   0.90289   0.00000  Uiso   1.00
N1021  N     0.73745   0.81881   0.67951   0.00000  Uiso   1.00
N1022  N     0.76256   0.84786   0.98716   0.00000  Uiso   1.00
O1023  O     0.75326   0.76204   0.87326   0.00000  Uiso   1.00
O1024  O     0.74675   0.90462   0.79341   0.00000  Uiso   1.00
O1025  O     0.74480   0.75226   0.76945   0.00000  Uiso   1.00
O1026  O     0.75520   0.91441   0.89721   0.00000  Uiso   1.00
O1027  O     0.68936   0.83821   0.88524   0.00000  Uiso   1.00
O1028  O     0.81065   0.82845   0.78143   0.00000  Uiso   1.00
O1029  O     0.68090   0.82843   0.78143   0.00000  Uiso   1.00
O1030  O     0.81910   0.83824   0.88523   0.00000  Uiso   1.00
C1031  C     0.71198   0.76973   0.97674   0.00000  Uiso   1.00
C1032  C     0.66736   0.75678   0.99860   0.00000  Uiso   1.00
H1033  H     0.67188   0.74417   0.70854   0.00000  Uiso   1.00
H1034  H     0.64826   0.79138   0.66863   0.00000  Uiso   1.00
H1035  H     0.64702   0.72317   0.96496   0.00000  Uiso   1.00
H1036  H     0.70075   0.77230   0.93091   0.00000  Uiso   1.00
H1037  H     0.73247   0.73665   0.97716   0.00000  Uiso   1.00
C1038  C     0.78803   0.89693   0.68992   0.00000  Uiso   1.00
C1039  C     0.83265   0.90987   0.66807   0.00000  Uiso   1.00
H1040  H     0.85174   0.87527   0.99802   0.00000  Uiso   1.00
H1041  H     0.82813   0.92250   0.95813   0.00000  Uiso   1.00
H1042  H     0.85300   0.94347   0.70171   0.00000  Uiso   1.00
H1043  H     0.76754   0.93002   0.68950   0.00000  Uiso   1.00
H1044  H     0.79925   0.89436   0.73576   0.00000  Uiso   1.00
loop_
_geom_bond_atom_site_label_1
_geom_bond_atom_site_label_2
_geom_bond_distance
_geom_bond_site_symmetry_2
_ccdc_geom_bond_type
C1     O37     1.306   .     A
C1     C5      1.430   .     S
C1     O39     1.301   .     A
C2     O38     1.306   .     A
C2     C6      1.430   .     S
C2     O40     1.301   .     A
C3     C20     1.402   .     A
C3     H31     1.084   .     S
C3     C79     1.394   1_455 S
C4     H32     1.084   .     S
C4     C19     1.402   .     A
C4     C80     1.394   .     S
C5     C238    1.329   1_545 S
C5     H265    1.085   1_545 S
C6     C121    1.329   .     S
C6     H150    1.085   .     S
C7     O43     1.315   .     A
C7     C12     1.463   .     S
C7     O41     1.309   .     A
C8     C11     1.463   .     S
C8     O42     1.309   .     A
C8     O44     1.315   .     A
C9     C11     1.402   .     A
C9     H25     1.079   .     S
C9     C19     1.393   .     A
C10    H26     1.079   .     S
C10    C12     1.402   .     A
C10    C20     1.393   .     A
C11    C13     1.405   .     A
C12    C14     1.405   .     A
C13    C15     1.393   .     A
C13    H27     1.085   .     S
C14    C16     1.393   .     A
C14    H28     1.085   .     S
C15    C21     1.402   .     A
C15    C17     1.411   .     A
C16    C18     1.411   .     A
C16    C22     1.402   .     A
C17    C19     1.411   .     A
C17    C76     1.402   .     S
C18    C20     1.411   .     A
C18    C75     1.402   1_455 S
C21    H29     1.084   .     S
C21    C61     1.394   .     S
C22    H30     1.084   .     S
C22    C62     1.394   1_455 S
Cu23   Cu24    2.736   .     S
Cu23   O37     1.959   .     S
Cu23   O40     1.952   .     S
Cu23   N36     2.056   .     S
Cu23   O44     1.971   .     S
Cu23   O41     1.963   .     S
Cu24   O38     1.959   .     S
Cu24   N35     2.056   .     S
Cu24   O39     1.952   .     S
Cu24   O42     1.963   .     S
Cu24   O43     1.971   .     S
H33    C121    1.085   .     S
H34    C238    1.085   1_545 S
N35    N732    1.295   1_554 S
N35    C741    1.457   1_554 S
N36    N383    1.295   .     S
N36    C400    1.457   .     S
C45    C46     1.521   .     S
C45    H50     1.080   .     S
C45    H51     1.109   .     S
C45    N383    1.457   .     S
C46    H49     1.112   .     S
C46    H395    1.105   .     S
C46    H396    1.109   .     S
H47    C742    1.105   1_554 S
H48    C742    1.109   1_554 S
C52    H58     1.080   .     S
C52    H57     1.108   .     S
C52    C53     1.521   .     S
C52    N732    1.457   1_554 S
C53    H56     1.112   .     S
C53    H750    1.109   1_554 S
C53    H751    1.105   1_554 S
H54    C401    1.109   .     S
H55    C401    1.105   .     S
C59    O95     1.306   .     A
C59    C63     1.430   .     S
C59    O97     1.301   .     A
C60    O96     1.306   .     A
C60    C64     1.430   .     S
C60    O98     1.301   .     A
C61    C78     1.402   .     A
C61    H89     1.084   .     S
C62    H90     1.084   .     S
C62    C77     1.402   .     A
C62    C22     1.394   1_655 S
C63    C296    1.329   1_545 S
C63    H323    1.085   1_545 S
C64    C179    1.329   .     S
C64    H208    1.085   .     S
C65    O101    1.315   .     A
C65    C70     1.463   .     S
C65    O99     1.309   .     A
C66    C69     1.463   .     S
C66    O100    1.309   .     A
C66    O102    1.315   .     A
C67    C69     1.402   .     A
C67    H83     1.079   .     S
C67    C77     1.393   .     A
C68    H84     1.079   .     S
C68    C70     1.402   .     A
C68    C78     1.393   .     A
C69    C71     1.405   .     A
C70    C72     1.405   .     A
C71    C73     1.393   .     A
C71    H85     1.085   .     S
C72    C74     1.393   .     A
C72    H86     1.085   .     S
C73    C79     1.402   .     A
C73    C75     1.411   .     A
C74    C76     1.411   .     A
C74    C80     1.402   .     A
C75    C77     1.411   .     A
C75    C18     1.402   1_655 S
C76    C78     1.411   .     A
C79    H87     1.084   .     S
C79    C3      1.394   1_655 S
C80    H88     1.084   .     S
Cu81   Cu82    2.736   .     S
Cu81   O95     1.959   .     S
Cu81   O98     1.952   .     S
Cu81   N94     2.056   .     S
Cu81   O102    1.971   .     S
Cu81   O99     1.963   .     S
Cu82   O96     1.959   .     S
Cu82   N93     2.056   .     S
Cu82   O97     1.952   .     S
Cu82   O100    1.963   .     S
Cu82   O101    1.971   .     S
H91    C179    1.085   .     S
H92    C296    1.085   1_545 S
N93    N790    1.295   1_554 S
N93    C799    1.457   1_554 S
N94    N441    1.295   .     S
N94    C458    1.457   .     S
C103   C104    1.521   .     S
C103   H108    1.080   .     S
C103   H109    1.109   .     S
C103   N441    1.457   .     S
C104   H107    1.112   .     S
C104   H453    1.105   .     S
C104   H454    1.109   .     S
H105   C800    1.105   1_554 S
H106   C800    1.109   1_554 S
C110   H116    1.080   .     S
C110   H115    1.108   .     S
C110   C111    1.521   .     S
C110   N790    1.457   1_554 S
C111   H114    1.112   .     S
C111   H808    1.109   1_554 S
C111   H809    1.105   1_554 S
H112   C459    1.109   .     S
H113   C459    1.105   .     S
C117   O153    1.306   .     A
C117   C121    1.430   .     S
C117   O155    1.301   .     A
C118   O154    1.306   .     A
C118   C122    1.430   .     S
C118   O156    1.301   .     A
C119   C136    1.402   .     A
C119   H147    1.084   .     S
C119   C195    1.394   1_455 S
C120   H148    1.084   .     S
C120   C135    1.402   .     A
C120   C196    1.394   .     S
C122   C237    1.329   .     S
C122   H266    1.085   .     S
C123   O159    1.315   .     A
C123   C128    1.463   .     S
C123   O157    1.309   .     A
C124   C127    1.463   .     S
C124   O158    1.309   .     A
C124   O160    1.315   .     A
C125   C127    1.402   .     A
C125   H141    1.079   .     S
C125   C135    1.393   .     A
C126   H142    1.079   .     S
C126   C128    1.402   .     A
C126   C136    1.393   .     A
C127   C129    1.405   .     A
C128   C130    1.405   .     A
C129   C131    1.393   .     A
C129   H143    1.085   .     S
C130   C132    1.393   .     A
C130   H144    1.085   .     S
C131   C137    1.402   .     A
C131   C133    1.411   .     A
C132   C134    1.411   .     A
C132   C138    1.402   .     A
C133   C135    1.411   .     A
C133   C192    1.402   .     S
C134   C136    1.411   .     A
C134   C191    1.402   1_455 S
C137   H145    1.084   .     S
C137   C177    1.394   .     S
C138   H146    1.084   .     S
C138   C178    1.394   1_455 S
Cu139  Cu140   2.736   .     S
Cu139  O153    1.959   .     S
Cu139  O156    1.952   .     S
Cu139  N152    2.056   .     S
Cu139  O160    1.971   .     S
Cu139  O157    1.963   .     S
Cu140  O154    1.959   .     S
Cu140  N151    2.056   .     S
Cu140  O155    1.952   .     S
Cu140  O158    1.963   .     S
Cu140  O159    1.971   .     S
H149   C237    1.085   .     S
N151   N848    1.295   1_554 S
N151   C857    1.457   1_554 S
N152   N499    1.295   .     S
N152   C516    1.457   .     S
C161   C162    1.521   .     S
C161   H166    1.080   .     S
C161   H167    1.109   .     S
C161   N499    1.457   .     S
C162   H165    1.112   .     S
C162   H511    1.105   .     S
C162   H512    1.109   .     S
H163   C858    1.105   1_554 S
H164   C858    1.109   1_554 S
C168   H174    1.080   .     S
C168   H173    1.108   .     S
C168   C169    1.521   .     S
C168   N848    1.457   1_554 S
C169   H172    1.112   .     S
C169   H866    1.109   1_554 S
C169   H867    1.105   1_554 S
H170   C517    1.109   .     S
H171   C517    1.105   .     S
C175   O211    1.306   .     A
C175   C179    1.430   .     S
C175   O213    1.301   .     A
C176   O212    1.306   .     A
C176   C180    1.430   .     S
C176   O214    1.301   .     A
C177   C194    1.402   .     A
C177   H205    1.084   .     S
C178   H206    1.084   .     S
C178   C193    1.402   .     A
C178   C138    1.394   1_655 S
C180   C295    1.329   .     S
C180   H324    1.085   .     S
C181   O217    1.315   .     A
C181   C186    1.463   .     S
C181   O215    1.309   .     A
C182   C185    1.463   .     S
C182   O216    1.309   .     A
C182   O218    1.315   .     A
C183   C185    1.402   .     A
C183   H199    1.079   .     S
C183   C193    1.393   .     A
C184   H200    1.079   .     S
C184   C186    1.402   .     A
C184   C194    1.393   .     A
C185   C187    1.405   .     A
C186   C188    1.405   .     A
C187   C189    1.393   .     A
C187   H201    1.085   .     S
C188   C190    1.393   .     A
C188   H202    1.085   .     S
C189   C195    1.402   .     A
C189   C191    1.411   .     A
C190   C192    1.411   .     A
C190   C196    1.402   .     A
C191   C193    1.411   .     A
C191   C134    1.402   1_655 S
C192   C194    1.411   .     A
C195   H203    1.084   .     S
C195   C119    1.394   1_655 S
C196   H204    1.084   .     S
Cu197  Cu198   2.736   .     S
Cu197  O211    1.959   .     S
Cu197  O214    1.952   .     S
Cu197  N210    2.056   .     S
Cu197  O218    1.971   .     S
Cu197  O215    1.963   .     S
Cu198  O212    1.959   .     S
Cu198  N209    2.056   .     S
Cu198  O213    1.952   .     S
Cu198  O216    1.963   .     S
Cu198  O217    1.971   .     S
H207   C295    1.085   .     S
N209   N906    1.295   1_554 S
N209   C915    1.457   1_554 S
N210   N557    1.295   .     S
N210   C574    1.457   .     S
C219   C220    1.521   .     S
C219   H224    1.080   .     S
C219   H225    1.109   .     S
C219   N557    1.457   .     S
C220   H223    1.112   .     S
C220   H569    1.105   .     S
C220   H570    1.109   .     S
H221   C916    1.105   1_554 S
H222   C916    1.109   1_554 S
C226   H232    1.080   .     S
C226   H231    1.108   .     S
C226   C227    1.521   .     S
C226   N906    1.457   1_554 S
C227   H230    1.112   .     S
C227   H924    1.109   1_554 S
C227   H925    1.105   1_554 S
H228   C575    1.109   .     S
H229   C575    1.105   .     S
C233   O269    1.306   .     A
C233   C237    1.430   .     S
C233   O271    1.301   .     A
C234   O270    1.306   .     A
C234   C238    1.430   .     S
C234   O272    1.301   .     A
C235   C252    1.402   .     A
C235   H263    1.084   .     S
C235   C311    1.394   1_455 S
C236   H264    1.084   .     S
C236   C251    1.402   .     A
C236   C312    1.394   .     S
C238   C5      1.329   1_565 S
C238   H34     1.085   1_565 S
C239   O275    1.315   .     A
C239   C244    1.463   .     S
C239   O273    1.309   .     A
C240   C243    1.463   .     S
C240   O274    1.309   .     A
C240   O276    1.315   .     A
C241   C243    1.402   .     A
C241   H257    1.079   .     S
C241   C251    1.393   .     A
C242   H258    1.079   .     S
C242   C244    1.402   .     A
C242   C252    1.393   .     A
C243   C245    1.405   .     A
C244   C246    1.405   .     A
C245   C247    1.393   .     A
C245   H259    1.085   .     S
C246   C248    1.393   .     A
C246   H260    1.085   .     S
C247   C253    1.402   .     A
C247   C249    1.411   .     A
C248   C250    1.411   .     A
C248   C254    1.402   .     A
C249   C251    1.411   .     A
C249   C308    1.402   .     S
C250   C252    1.411   .     A
C250   C307    1.402   1_455 S
C253   H261    1.084   .     S
C253   C293    1.394   .     S
C254   H262    1.084   .     S
C254   C294    1.394   1_455 S
Cu255  Cu256   2.736   .     S
Cu255  O269    1.959   .     S
Cu255  O272    1.952   .     S
Cu255  N268    2.056   .     S
Cu255  O276    1.971   .     S
Cu255  O273    1.963   .     S
Cu256  O270    1.959   .     S
Cu256  N267    2.056   .     S
Cu256  O271    1.952   .     S
Cu256  O274    1.963   .     S
Cu256  O275    1.971   .     S
H265   C5      1.085   1_565 S
N267   N964    1.295   1_554 S
N267   C973    1.457   1_554 S
N268   N615    1.295   .     S
N268   C632    1.457   .     S
C277   C278    1.521   .     S
C277   H282    1.080   .     S
C277   H283    1.109   .     S
C277   N615    1.457   .     S
C278   H281    1.112   .     S
C278   H627    1.105   .     S
C278   H628    1.109   .     S
H279   C974    1.105   1_554 S
H280   C974    1.109   1_554 S
C284   H290    1.080   .     S
C284   H289    1.108   .     S
C284   C285    1.521   .     S
C284   N964    1.457   1_554 S
C285   H288    1.112   .     S
C285   H982    1.109   1_554 S
C285   H983    1.105   1_554 S
H286   C633    1.109   .     S
H287   C633    1.105   .     S
C291   O327    1.306   .     A
C291   C295    1.430   .     S
C291   O329    1.301   .     A
C292   O328    1.306   .     A
C292   C296    1.430   .     S
C292   O330    1.301   .     A
C293   C310    1.402   .     A
C293   H321    1.084   .     S
C294   H322    1.084   .     S
C294   C309    1.402   .     A
C294   C254    1.394   1_655 S
C296   C63     1.329   1_565 S
C296   H92     1.085   1_565 S
C297   O333    1.315   .     A
C297   C302    1.463   .     S
C297   O331    1.309   .     A
C298   C301    1.463   .     S
C298   O332    1.309   .     A
C298   O334    1.315   .     A
C299   C301    1.402   .     A
C299   H315    1.079   .     S
C299   C309    1.393   .     A
C300   H316    1.079   .     S
C300   C302    1.402   .     A
C300   C310    1.393   .     A
C301   C303    1.405   .     A
C302   C304    1.405   .     A
C303   C305    1.393   .     A
C303   H317    1.085   .     S
C304   C306    1.393   .     A
C304   H318    1.085   .     S
C305   C311    1.402   .     A
C305   C307    1.411   .     A
C306   C308    1.411   .     A
C306   C312    1.402   .     A
C307   C309    1.411   .     A
C307   C250    1.402   1_655 S
C308   C310    1.411   .     A
C311   H319    1.084   .     S
C311   C235    1.394   1_655 S
C312   H320    1.084   .     S
Cu313  Cu314   2.736   .     S
Cu313  O327    1.959   .     S
Cu313  O330    1.952   .     S
Cu313  N326    2.056   .     S
Cu313  O334    1.971   .     S
Cu313  O331    1.963   .     S
Cu314  O328    1.959   .     S
Cu314  N325    2.056   .     S
Cu314  O329    1.952   .     S
Cu314  O332    1.963   .     S
Cu314  O333    1.971   .     S
H323   C63     1.085   1_565 S
N325   N1022   1.295   1_554 S
N325   C1031   1.457   1_554 S
N326   N673    1.295   .     S
N326   C690    1.457   .     S
C335   C336    1.521   .     S
C335   H340    1.080   .     S
C335   H341    1.109   .     S
C335   N673    1.457   .     S
C336   H339    1.112   .     S
C336   H685    1.105   .     S
C336   H686    1.109   .     S
H337   C1032   1.105   1_554 S
H338   C1032   1.109   1_554 S
C342   H348    1.080   .     S
C342   H347    1.108   .     S
C342   C343    1.521   .     S
C342   N1022   1.457   1_554 S
C343   H346    1.112   .     S
C343   H1040   1.109   1_554 S
C343   H1041   1.105   1_554 S
H344   C691    1.109   .     S
H345   C691    1.105   .     S
C349   O385    1.306   .     A
C349   C353    1.430   .     S
C349   O387    1.301   .     A
C350   O386    1.306   .     A
C350   C354    1.430   .     S
C350   O388    1.301   .     A
C351   C368    1.402   .     A
C351   H379    1.084   .     S
C351   C427    1.394   1_455 S
C352   H380    1.084   .     S
C352   C367    1.402   .     A
C352   C428    1.394   .     S
C353   C586    1.329   1_545 S
C353   H613    1.085   1_545 S
C354   C469    1.329   .     S
C354   H498    1.085   .     S
C355   O391    1.315   .     A
C355   C360    1.463   .     S
C355   O389    1.309   .     A
C356   C359    1.463   .     S
C356   O390    1.309   .     A
C356   O392    1.315   .     A
C357   C359    1.402   .     A
C357   H373    1.079   .     S
C357   C367    1.393   .     A
C358   H374    1.079   .     S
C358   C360    1.402   .     A
C358   C368    1.393   .     A
C359   C361    1.405   .     A
C360   C362    1.405   .     A
C361   C363    1.393   .     A
C361   H375    1.085   .     S
C362   C364    1.393   .     A
C362   H376    1.085   .     S
C363   C369    1.402   .     A
C363   C365    1.411   .     A
C364   C366    1.411   .     A
C364   C370    1.402   .     A
C365   C367    1.411   .     A
C365   C424    1.402   .     S
C366   C368    1.411   .     A
C366   C423    1.402   1_455 S
C369   H377    1.084   .     S
C369   C409    1.394   .     S
C370   H378    1.084   .     S
C370   C410    1.394   1_455 S
Cu371  Cu372   2.736   .     S
Cu371  O385    1.959   .     S
Cu371  O388    1.952   .     S
Cu371  N384    2.056   .     S
Cu371  O392    1.971   .     S
Cu371  O389    1.963   .     S
Cu372  O386    1.959   .     S
Cu372  N383    2.056   .     S
Cu372  O387    1.952   .     S
Cu372  O390    1.963   .     S
Cu372  O391    1.971   .     S
H381   C469    1.085   .     S
H382   C586    1.085   1_545 S
N384   N731    1.295   .     S
N384   C748    1.457   .     S
C393   C394    1.521   .     S
C393   H398    1.080   .     S
C393   H399    1.109   .     S
C393   N731    1.457   .     S
C394   H397    1.112   .     S
C394   H743    1.105   .     S
C394   H744    1.109   .     S
C400   H406    1.080   .     S
C400   H405    1.108   .     S
C400   C401    1.521   .     S
C401   H404    1.112   .     S
H402   C749    1.109   .     S
H403   C749    1.105   .     S
C407   O443    1.306   .     A
C407   C411    1.430   .     S
C407   O445    1.301   .     A
C408   O444    1.306   .     A
C408   C412    1.430   .     S
C408   O446    1.301   .     A
C409   C426    1.402   .     A
C409   H437    1.084   .     S
C410   H438    1.084   .     S
C410   C425    1.402   .     A
C410   C370    1.394   1_655 S
C411   C644    1.329   1_545 S
C411   H671    1.085   1_545 S
C412   C527    1.329   .     S
C412   H556    1.085   .     S
C413   O449    1.315   .     A
C413   C418    1.463   .     S
C413   O447    1.309   .     A
C414   C417    1.463   .     S
C414   O448    1.309   .     A
C414   O450    1.315   .     A
C415   C417    1.402   .     A
C415   H431    1.079   .     S
C415   C425    1.393   .     A
C416   H432    1.079   .     S
C416   C418    1.402   .     A
C416   C426    1.393   .     A
C417   C419    1.405   .     A
C418   C420    1.405   .     A
C419   C421    1.393   .     A
C419   H433    1.085   .     S
C420   C422    1.393   .     A
C420   H434    1.085   .     S
C421   C427    1.402   .     A
C421   C423    1.411   .     A
C422   C424    1.411   .     A
C422   C428    1.402   .     A
C423   C425    1.411   .     A
C423   C366    1.402   1_655 S
C424   C426    1.411   .     A
C427   H435    1.084   .     S
C427   C351    1.394   1_655 S
C428   H436    1.084   .     S
Cu429  Cu430   2.736   .     S
Cu429  O443    1.959   .     S
Cu429  O446    1.952   .     S
Cu429  N442    2.056   .     S
Cu429  O450    1.971   .     S
Cu429  O447    1.963   .     S
Cu430  O444    1.959   .     S
Cu430  N441    2.056   .     S
Cu430  O445    1.952   .     S
Cu430  O448    1.963   .     S
Cu430  O449    1.971   .     S
H439   C527    1.085   .     S
H440   C644    1.085   1_545 S
N442   N789    1.295   .     S
N442   C806    1.457   .     S
C451   C452    1.521   .     S
C451   H456    1.080   .     S
C451   H457    1.109   .     S
C451   N789    1.457   .     S
C452   H455    1.112   .     S
C452   H801    1.105   .     S
C452   H802    1.109   .     S
C458   H464    1.080   .     S
C458   H463    1.108   .     S
C458   C459    1.521   .     S
C459   H462    1.112   .     S
H460   C807    1.109   .     S
H461   C807    1.105   .     S
C465   O501    1.306   .     A
C465   C469    1.430   .     S
C465   O503    1.301   .     A
C466   O502    1.306   .     A
C466   C470    1.430   .     S
C466   O504    1.301   .     A
C467   C484    1.402   .     A
C467   H495    1.084   .     S
C467   C543    1.394   1_455 S
C468   H496    1.084   .     S
C468   C483    1.402   .     A
C468   C544    1.394   .     S
C470   C585    1.329   .     S
C470   H614    1.085   .     S
C471   O507    1.315   .     A
C471   C476    1.463   .     S
C471   O505    1.309   .     A
C472   C475    1.463   .     S
C472   O506    1.309   .     A
C472   O508    1.315   .     A
C473   C475    1.402   .     A
C473   H489    1.079   .     S
C473   C483    1.393   .     A
C474   H490    1.079   .     S
C474   C476    1.402   .     A
C474   C484    1.393   .     A
C475   C477    1.405   .     A
C476   C478    1.405   .     A
C477   C479    1.393   .     A
C477   H491    1.085   .     S
C478   C480    1.393   .     A
C478   H492    1.085   .     S
C479   C485    1.402   .     A
C479   C481    1.411   .     A
C480   C482    1.411   .     A
C480   C486    1.402   .     A
C481   C483    1.411   .     A
C481   C540    1.402   .     S
C482   C484    1.411   .     A
C482   C539    1.402   1_455 S
C485   H493    1.084   .     S
C485   C525    1.394   .     S
C486   H494    1.084   .     S
C486   C526    1.394   1_455 S
Cu487  Cu488   2.736   .     S
Cu487  O501    1.959   .     S
Cu487  O504    1.952   .     S
Cu487  N500    2.056   .     S
Cu487  O508    1.971   .     S
Cu487  O505    1.963   .     S
Cu488  O502    1.959   .     S
Cu488  N499    2.056   .     S
Cu488  O503    1.952   .     S
Cu488  O506    1.963   .     S
Cu488  O507    1.971   .     S
H497   C585    1.085   .     S
N500   N847    1.295   .     S
N500   C864    1.457   .     S
C509   C510    1.521   .     S
C509   H514    1.080   .     S
C509   H515    1.109   .     S
C509   N847    1.457   .     S
C510   H513    1.112   .     S
C510   H859    1.105   .     S
C510   H860    1.109   .     S
C516   H522    1.080   .     S
C516   H521    1.108   .     S
C516   C517    1.521   .     S
C517   H520    1.112   .     S
H518   C865    1.109   .     S
H519   C865    1.105   .     S
C523   O559    1.306   .     A
C523   C527    1.430   .     S
C523   O561    1.301   .     A
C524   O560    1.306   .     A
C524   C528    1.430   .     S
C524   O562    1.301   .     A
C525   C542    1.402   .     A
C525   H553    1.084   .     S
C526   H554    1.084   .     S
C526   C541    1.402   .     A
C526   C486    1.394   1_655 S
C528   C643    1.329   .     S
C528   H672    1.085   .     S
C529   O565    1.315   .     A
C529   C534    1.463   .     S
C529   O563    1.309   .     A
C530   C533    1.463   .     S
C530   O564    1.309   .     A
C530   O566    1.315   .     A
C531   C533    1.402   .     A
C531   H547    1.079   .     S
C531   C541    1.393   .     A
C532   H548    1.079   .     S
C532   C534    1.402   .     A
C532   C542    1.393   .     A
C533   C535    1.405   .     A
C534   C536    1.405   .     A
C535   C537    1.393   .     A
C535   H549    1.085   .     S
C536   C538    1.393   .     A
C536   H550    1.085   .     S
C537   C543    1.402   .     A
C537   C539    1.411   .     A
C538   C540    1.411   .     A
C538   C544    1.402   .     A
C539   C541    1.411   .     A
C539   C482    1.402   1_655 S
C540   C542    1.411   .     A
C543   H551    1.084   .     S
C543   C467    1.394   1_655 S
C544   H552    1.084   .     S
Cu545  Cu546   2.736   .     S
Cu545  O559    1.959   .     S
Cu545  O562    1.952   .     S
Cu545  N558    2.056   .     S
Cu545  O566    1.971   .     S
Cu545  O563    1.963   .     S
Cu546  O560    1.959   .     S
Cu546  N557    2.056   .     S
Cu546  O561    1.952   .     S
Cu546  O564    1.963   .     S
Cu546  O565    1.971   .     S
H555   C643    1.085   .     S
N558   N905    1.295   .     S
N558   C922    1.457   .     S
C567   C568    1.521   .     S
C567   H572    1.080   .     S
C567   H573    1.109   .     S
C567   N905    1.457   .     S
C568   H571    1.112   .     S
C568   H917    1.105   .     S
C568   H918    1.109   .     S
C574   H580    1.080   .     S
C574   H579    1.108   .     S
C574   C575    1.521   .     S
C575   H578    1.112   .     S
H576   C923    1.109   .     S
H577   C923    1.105   .     S
C581   O617    1.306   .     A
C581   C585    1.430   .     S
C581   O619    1.301   .     A
C582   O618    1.306   .     A
C582   C586    1.430   .     S
C582   O620    1.301   .     A
C583   C600    1.402   .     A
C583   H611    1.084   .     S
C583   C659    1.394   1_455 S
C584   H612    1.084   .     S
C584   C599    1.402   .     A
C584   C660    1.394   .     S
C586   C353    1.329   1_565 S
C586   H382    1.085   1_565 S
C587   O623    1.315   .     A
C587   C592    1.463   .     S
C587   O621    1.309   .     A
C588   C591    1.463   .     S
C588   O622    1.309   .     A
C588   O624    1.315   .     A
C589   C591    1.402   .     A
C589   H605    1.079   .     S
C589   C599    1.393   .     A
C590   H606    1.079   .     S
C590   C592    1.402   .     A
C590   C600    1.393   .     A
C591   C593    1.405   .     A
C592   C594    1.405   .     A
C593   C595    1.393   .     A
C593   H607    1.085   .     S
C594   C596    1.393   .     A
C594   H608    1.085   .     S
C595   C601    1.402   .     A
C595   C597    1.411   .     A
C596   C598    1.411   .     A
C596   C602    1.402   .     A
C597   C599    1.411   .     A
C597   C656    1.402   .     S
C598   C600    1.411   .     A
C598   C655    1.402   1_455 S
C601   H609    1.084   .     S
C601   C641    1.394   .     S
C602   H610    1.084   .     S
C602   C642    1.394   1_455 S
Cu603  Cu604   2.736   .     S
Cu603  O617    1.959   .     S
Cu603  O620    1.952   .     S
Cu603  N616    2.056   .     S
Cu603  O624    1.971   .     S
Cu603  O621    1.963   .     S
Cu604  O618    1.959   .     S
Cu604  N615    2.056   .     S
Cu604  O619    1.952   .     S
Cu604  O622    1.963   .     S
Cu604  O623    1.971   .     S
H613   C353    1.085   1_565 S
N616   N963    1.295   .     S
N616   C980    1.457   .     S
C625   C626    1.521   .     S
C625   H630    1.080   .     S
C625   H631    1.109   .     S
C625   N963    1.457   .     S
C626   H629    1.112   .     S
C626   H975    1.105   .     S
C626   H976    1.109   .     S
C632   H638    1.080   .     S
C632   H637    1.108   .     S
C632   C633    1.521   .     S
C633   H636    1.112   .     S
H634   C981    1.109   .     S
H635   C981    1.105   .     S
C639   O675    1.306   .     A
C639   C643    1.430   .     S
C639   O677    1.301   .     A
C640   O676    1.306   .     A
C640   C644    1.430   .     S
C640   O678    1.301   .     A
C641   C658    1.402   .     A
C641   H669    1.084   .     S
C642   H670    1.084   .     S
C642   C657    1.402   .     A
C642   C602    1.394   1_655 S
C644   C411    1.329   1_565 S
C644   H440    1.085   1_565 S
C645   O681    1.315   .     A
C645   C650    1.463   .     S
C645   O679    1.309   .     A
C646   C649    1.463   .     S
C646   O680    1.309   .     A
C646   O682    1.315   .     A
C647   C649    1.402   .     A
C647   H663    1.079   .     S
C647   C657    1.393   .     A
C648   H664    1.079   .     S
C648   C650    1.402   .     A
C648   C658    1.393   .     A
C649   C651    1.405   .     A
C650   C652    1.405   .     A
C651   C653    1.393   .     A
C651   H665    1.085   .     S
C652   C654    1.393   .     A
C652   H666    1.085   .     S
C653   C659    1.402   .     A
C653   C655    1.411   .     A
C654   C656    1.411   .     A
C654   C660    1.402   .     A
C655   C657    1.411   .     A
C655   C598    1.402   1_655 S
C656   C658    1.411   .     A
C659   H667    1.084   .     S
C659   C583    1.394   1_655 S
C660   H668    1.084   .     S
Cu661  Cu662   2.736   .     S
Cu661  O675    1.959   .     S
Cu661  O678    1.952   .     S
Cu661  N674    2.056   .     S
Cu661  O682    1.971   .     S
Cu661  O679    1.963   .     S
Cu662  O676    1.959   .     S
Cu662  N673    2.056   .     S
Cu662  O677    1.952   .     S
Cu662  O680    1.963   .     S
Cu662  O681    1.971   .     S
H671   C411    1.085   1_565 S
N674   N1021   1.295   .     S
N674   C1038   1.457   .     S
C683   C684    1.521   .     S
C683   H688    1.080   .     S
C683   H689    1.109   .     S
C683   N1021   1.457   .     S
C684   H687    1.112   .     S
C684   H1033   1.105   .     S
C684   H1034   1.109   .     S
C690   H696    1.080   .     S
C690   H695    1.108   .     S
C690   C691    1.521   .     S
C691   H694    1.112   .     S
H692   C1039   1.109   .     S
H693   C1039   1.105   .     S
C697   O733    1.306   .     A
C697   C701    1.430   .     S
C697   O735    1.301   .     A
C698   O734    1.306   .     A
C698   C702    1.430   .     S
C698   O736    1.301   .     A
C699   C716    1.402   .     A
C699   H727    1.084   .     S
C699   C775    1.394   1_455 S
C700   H728    1.084   .     S
C700   C715    1.402   .     A
C700   C776    1.394   .     S
C701   C934    1.329   1_545 S
C701   H961    1.085   1_545 S
C702   C817    1.329   .     S
C702   H846    1.085   .     S
C703   O739    1.315   .     A
C703   C708    1.463   .     S
C703   O737    1.309   .     A
C704   C707    1.463   .     S
C704   O738    1.309   .     A
C704   O740    1.315   .     A
C705   C707    1.402   .     A
C705   H721    1.079   .     S
C705   C715    1.393   .     A
C706   H722    1.079   .     S
C706   C708    1.402   .     A
C706   C716    1.393   .     A
C707   C709    1.405   .     A
C708   C710    1.405   .     A
C709   C711    1.393   .     A
C709   H723    1.085   .     S
C710   C712    1.393   .     A
C710   H724    1.085   .     S
C711   C717    1.402   .     A
C711   C713    1.411   .     A
C712   C714    1.411   .     A
C712   C718    1.402   .     A
C713   C715    1.411   .     A
C713   C772    1.402   .     S
C714   C716    1.411   .     A
C714   C771    1.402   1_455 S
C717   H725    1.084   .     S
C717   C757    1.394   .     S
C718   H726    1.084   .     S
C718   C758    1.394   1_455 S
Cu719  Cu720   2.736   .     S
Cu719  O733    1.959   .     S
Cu719  O736    1.952   .     S
Cu719  N732    2.056   .     S
Cu719  O740    1.971   .     S
Cu719  O737    1.963   .     S
Cu720  O734    1.959   .     S
Cu720  N731    2.056   .     S
Cu720  O735    1.952   .     S
Cu720  O738    1.963   .     S
Cu720  O739    1.971   .     S
H729   C817    1.085   .     S
H730   C934    1.085   1_545 S
N732   N35     1.295   1_556 S
N732   C52     1.457   1_556 S
C741   C742    1.521   .     S
C741   H746    1.080   .     S
C741   H747    1.109   .     S
C741   N35     1.457   1_556 S
C742   H745    1.112   .     S
C742   H47     1.105   1_556 S
C742   H48     1.109   1_556 S
C748   H754    1.080   .     S
C748   H753    1.108   .     S
C748   C749    1.521   .     S
C749   H752    1.112   .     S
H750   C53     1.109   1_556 S
H751   C53     1.105   1_556 S
C755   O791    1.306   .     A
C755   C759    1.430   .     S
C755   O793    1.301   .     A
C756   O792    1.306   .     A
C756   C760    1.430   .     S
C756   O794    1.301   .     A
C757   C774    1.402   .     A
C757   H785    1.084   .     S
C758   H786    1.084   .     S
C758   C773    1.402   .     A
C758   C718    1.394   1_655 S
C759   C992    1.329   1_545 S
C759   H1019   1.085   1_545 S
C760   C875    1.329   .     S
C760   H904    1.085   .     S
C761   O797    1.315   .     A
C761   C766    1.463   .     S
C761   O795    1.309   .     A
C762   C765    1.463   .     S
C762   O796    1.309   .     A
C762   O798    1.315   .     A
C763   C765    1.402   .     A
C763   H779    1.079   .     S
C763   C773    1.393   .     A
C764   H780    1.079   .     S
C764   C766    1.402   .     A
C764   C774    1.393   .     A
C765   C767    1.405   .     A
C766   C768    1.405   .     A
C767   C769    1.393   .     A
C767   H781    1.085   .     S
C768   C770    1.393   .     A
C768   H782    1.085   .     S
C769   C775    1.402   .     A
C769   C771    1.411   .     A
C770   C772    1.411   .     A
C770   C776    1.402   .     A
C771   C773    1.411   .     A
C771   C714    1.402   1_655 S
C772   C774    1.411   .     A
C775   H783    1.084   .     S
C775   C699    1.394   1_655 S
C776   H784    1.084   .     S
Cu777  Cu778   2.736   .     S
Cu777  O791    1.959   .     S
Cu777  O794    1.952   .     S
Cu777  N790    2.056   .     S
Cu777  O798    1.971   .     S
Cu777  O795    1.963   .     S
Cu778  O792    1.959   .     S
Cu778  N789    2.056   .     S
Cu778  O793    1.952   .     S
Cu778  O796    1.963   .     S
Cu778  O797    1.971   .     S
H787   C875    1.085   .     S
H788   C992    1.085   1_545 S
N790   N93     1.295   1_556 S
N790   C110    1.457   1_556 S
C799   C800    1.521   .     S
C799   H804    1.080   .     S
C799   H805    1.109   .     S
C799   N93     1.457   1_556 S
C800   H803    1.112   .     S
C800   H105    1.105   1_556 S
C800   H106    1.109   1_556 S
C806   H812    1.080   .     S
C806   H811    1.108   .     S
C806   C807    1.521   .     S
C807   H810    1.112   .     S
H808   C111    1.109   1_556 S
H809   C111    1.105   1_556 S
C813   O849    1.306   .     A
C813   C817    1.430   .     S
C813   O851    1.301   .     A
C814   O850    1.306   .     A
C814   C818    1.430   .     S
C814   O852    1.301   .     A
C815   C832    1.402   .     A
C815   H843    1.084   .     S
C815   C891    1.394   1_455 S
C816   H844    1.084   .     S
C816   C831    1.402   .     A
C816   C892    1.394   .     S
C818   C933    1.329   .     S
C818   H962    1.085   .     S
C819   O855    1.315   .     A
C819   C824    1.463   .     S
C819   O853    1.309   .     A
C820   C823    1.463   .     S
C820   O854    1.309   .     A
C820   O856    1.315   .     A
C821   C823    1.402   .     A
C821   H837    1.079   .     S
C821   C831    1.393   .     A
C822   H838    1.079   .     S
C822   C824    1.402   .     A
C822   C832    1.393   .     A
C823   C825    1.405   .     A
C824   C826    1.405   .     A
C825   C827    1.393   .     A
C825   H839    1.085   .     S
C826   C828    1.393   .     A
C826   H840    1.085   .     S
C827   C833    1.402   .     A
C827   C829    1.411   .     A
C828   C830    1.411   .     A
C828   C834    1.402   .     A
C829   C831    1.411   .     A
C829   C888    1.402   .     S
C830   C832    1.411   .     A
C830   C887    1.402   1_455 S
C833   H841    1.084   .     S
C833   C873    1.394   .     S
C834   H842    1.084   .     S
C834   C874    1.394   1_455 S
Cu835  Cu836   2.736   .     S
Cu835  O849    1.959   .     S
Cu835  O852    1.952   .     S
Cu835  N848    2.056   .     S
Cu835  O856    1.971   .     S
Cu835  O853    1.963   .     S
Cu836  O850    1.959   .     S
Cu836  N847    2.056   .     S
Cu836  O851    1.952   .     S
Cu836  O854    1.963   .     S
Cu836  O855    1.971   .     S
H845   C933    1.085   .     S
N848   N151    1.295   1_556 S
N848   C168    1.457   1_556 S
C857   C858    1.521   .     S
C857   H862    1.080   .     S
C857   H863    1.109   .     S
C857   N151    1.457   1_556 S
C858   H861    1.112   .     S
C858   H163    1.105   1_556 S
C858   H164    1.109   1_556 S
C864   H870    1.080   .     S
C864   H869    1.108   .     S
C864   C865    1.521   .     S
C865   H868    1.112   .     S
H866   C169    1.109   1_556 S
H867   C169    1.105   1_556 S
C871   O907    1.306   .     A
C871   C875    1.430   .     S
C871   O909    1.301   .     A
C872   O908    1.306   .     A
C872   C876    1.430   .     S
C872   O910    1.301   .     A
C873   C890    1.402   .     A
C873   H901    1.084   .     S
C874   H902    1.084   .     S
C874   C889    1.402   .     A
C874   C834    1.394   1_655 S
C876   C991    1.329   .     S
C876   H1020   1.085   .     S
C877   O913    1.315   .     A
C877   C882    1.463   .     S
C877   O911    1.309   .     A
C878   C881    1.463   .     S
C878   O912    1.309   .     A
C878   O914    1.315   .     A
C879   C881    1.402   .     A
C879   H895    1.079   .     S
C879   C889    1.393   .     A
C880   H896    1.079   .     S
C880   C882    1.402   .     A
C880   C890    1.393   .     A
C881   C883    1.405   .     A
C882   C884    1.405   .     A
C883   C885    1.393   .     A
C883   H897    1.085   .     S
C884   C886    1.393   .     A
C884   H898    1.085   .     S
C885   C891    1.402   .     A
C885   C887    1.411   .     A
C886   C888    1.411   .     A
C886   C892    1.402   .     A
C887   C889    1.411   .     A
C887   C830    1.402   1_655 S
C888   C890    1.411   .     A
C891   H899    1.084   .     S
C891   C815    1.394   1_655 S
C892   H900    1.084   .     S
Cu893  Cu894   2.736   .     S
Cu893  O907    1.959   .     S
Cu893  O910    1.952   .     S
Cu893  N906    2.056   .     S
Cu893  O914    1.971   .     S
Cu893  O911    1.963   .     S
Cu894  O908    1.959   .     S
Cu894  N905    2.056   .     S
Cu894  O909    1.952   .     S
Cu894  O912    1.963   .     S
Cu894  O913    1.971   .     S
H903   C991    1.085   .     S
N906   N209    1.295   1_556 S
N906   C226    1.457   1_556 S
C915   C916    1.521   .     S
C915   H920    1.080   .     S
C915   H921    1.109   .     S
C915   N209    1.457   1_556 S
C916   H919    1.112   .     S
C916   H221    1.105   1_556 S
C916   H222    1.109   1_556 S
C922   H928    1.080   .     S
C922   H927    1.108   .     S
C922   C923    1.521   .     S
C923   H926    1.112   .     S
H924   C227    1.109   1_556 S
H925   C227    1.105   1_556 S
C929   O965    1.306   .     A
C929   C933    1.430   .     S
C929   O967    1.301   .     A
C930   O966    1.306   .     A
C930   C934    1.430   .     S
C930   O968    1.301   .     A
C931   C948    1.402   .     A
C931   H959    1.084   .     S
C931   C1007   1.394   1_455 S
C932   H960    1.084   .     S
C932   C947    1.402   .     A
C932   C1008   1.394   .     S
C934   C701    1.329   1_565 S
C934   H730    1.085   1_565 S
C935   O971    1.315   .     A
C935   C940    1.463   .     S
C935   O969    1.309   .     A
C936   C939    1.463   .     S
C936   O970    1.309   .     A
C936   O972    1.315   .     A
C937   C939    1.402   .     A
C937   H953    1.079   .     S
C937   C947    1.393   .     A
C938   H954    1.079   .     S
C938   C940    1.402   .     A
C938   C948    1.393   .     A
C939   C941    1.405   .     A
C940   C942    1.405   .     A
C941   C943    1.393   .     A
C941   H955    1.085   .     S
C942   C944    1.393   .     A
C942   H956    1.085   .     S
C943   C949    1.402   .     A
C943   C945    1.411   .     A
C944   C946    1.411   .     A
C944   C950    1.402   .     A
C945   C947    1.411   .     A
C945   C1004   1.402   .     S
C946   C948    1.411   .     A
C946   C1003   1.402   1_455 S
C949   H957    1.084   .     S
C949   C989    1.394   .     S
C950   H958    1.084   .     S
C950   C990    1.394   1_455 S
Cu951  Cu952   2.736   .     S
Cu951  O965    1.959   .     S
Cu951  O968    1.952   .     S
Cu951  N964    2.056   .     S
Cu951  O972    1.971   .     S
Cu951  O969    1.963   .     S
Cu952  O966    1.959   .     S
Cu952  N963    2.056   .     S
Cu952  O967    1.952   .     S
Cu952  O970    1.963   .     S
Cu952  O971    1.971   .     S
H961   C701    1.085   1_565 S
N964   N267    1.295   1_556 S
N964   C284    1.457   1_556 S
C973   C974    1.521   .     S
C973   H978    1.080   .     S
C973   H979    1.109   .     S
C973   N267    1.457   1_556 S
C974   H977    1.112   .     S
C974   H279    1.105   1_556 S
C974   H280    1.109   1_556 S
C980   H986    1.080   .     S
C980   H985    1.108   .     S
C980   C981    1.521   .     S
C981   H984    1.112   .     S
H982   C285    1.109   1_556 S
H983   C285    1.105   1_556 S
C987   O1023   1.306   .     A
C987   C991    1.430   .     S
C987   O1025   1.301   .     A
C988   O1024   1.306   .     A
C988   C992    1.430   .     S
C988   O1026   1.301   .     A
C989   C1006   1.402   .     A
C989   H1017   1.084   .     S
C990   H1018   1.084   .     S
C990   C1005   1.402   .     A
C990   C950    1.394   1_655 S
C992   C759    1.329   1_565 S
C992   H788    1.085   1_565 S
C993   O1029   1.315   .     A
C993   C998    1.463   .     S
C993   O1027   1.309   .     A
C994   C997    1.463   .     S
C994   O1028   1.309   .     A
C994   O1030   1.315   .     A
C995   C997    1.402   .     A
C995   H1011   1.079   .     S
C995   C1005   1.393   .     A
C996   H1012   1.079   .     S
C996   C998    1.402   .     A
C996   C1006   1.393   .     A
C997   C999    1.405   .     A
C998   C1000   1.405   .     A
C999   C1001   1.393   .     A
C999   H1013   1.085   .     S
C1000  C1002   1.393   .     A
C1000  H1014   1.085   .     S
C1001  C1007   1.402   .     A
C1001  C1003   1.411   .     A
C1002  C1004   1.411   .     A
C1002  C1008   1.402   .     A
C1003  C1005   1.411   .     A
C1003  C946    1.402   1_655 S
C1004  C1006   1.411   .     A
C1007  H1015   1.084   .     S
C1007  C931    1.394   1_655 S
C1008  H1016   1.084   .     S
Cu1009 Cu1010  2.736   .     S
Cu1009 O1023   1.959   .     S
Cu1009 O1026   1.952   .     S
Cu1009 N1022   2.056   .     S
Cu1009 O1030   1.971   .     S
Cu1009 O1027   1.963   .     S
Cu1010 O1024   1.959   .     S
Cu1010 N1021   2.056   .     S
Cu1010 O1025   1.952   .     S
Cu1010 O1028   1.963   .     S
Cu1010 O1029   1.971   .     S
H1019  C759    1.085   1_565 S
N1022  N325    1.295   1_556 S
N1022  C342    1.457   1_556 S
C1031  C1032   1.521   .     S
C1031  H1036   1.080   .     S
C1031  H1037   1.109   .     S
C1031  N325    1.457   1_556 S
C1032  H1035   1.112   .     S
C1032  H337    1.105   1_556 S
C1032  H338    1.109   1_556 S
C1038  H1044   1.080   .     S
C1038  H1043   1.108   .     S
C1038  C1039   1.521   .     S
C1039  H1042   1.112   .     S
H1040  C343    1.109   1_556 S
H1041  C343    1.105   1_556 S
