data_str_m3_o1_o18_pcu_sym.6
_audit_creation_date              2020-01-03
_audit_creation_method            'Materials Studio'
_symmetry_space_group_name_H-M    'P1'
_symmetry_Int_Tables_number       1
_symmetry_cell_setting            triclinic
loop_
_symmetry_equiv_pos_as_xyz
  x,y,z
_cell_length_a                    29.5623
_cell_length_b                    32.1394
_cell_length_c                    30.7509
_cell_angle_alpha                 89.9618
_cell_angle_beta                  67.2961
_cell_angle_gamma                 90.0074
loop_
_atom_site_label
_atom_site_type_symbol
_atom_site_fract_x
_atom_site_fract_y
_atom_site_fract_z
_atom_site_U_iso_or_equiv
_atom_site_adp_type
_atom_site_occupancy
O1     O     0.12846   0.22775   0.25000   0.00000  Uiso   1.00
O2     O     0.20488   0.10558   0.24999   0.00000  Uiso   1.00
O3     O     0.20490   0.22774   0.25000   0.00000  Uiso   1.00
O4     O     0.12843   0.10559   0.25000   0.00000  Uiso   1.00
C5     C     0.16669   0.24670   0.24999   0.00000  Uiso   1.00
C6     C     0.16669   0.08664   0.24990   0.00000  Uiso   1.00
O7     O     0.10661   0.16667   0.31612   0.00000  Uiso   1.00
O8     O     0.22672   0.16666   0.18387   0.00000  Uiso   1.00
O9     O     0.18305   0.16666   0.31612   0.00000  Uiso   1.00
O10    O     0.15028   0.16667   0.18388   0.00000  Uiso   1.00
C11    C     0.13569   0.16660   0.33848   0.00000  Uiso   1.00
C12    C     0.19763   0.16511   0.16160   0.00000  Uiso   1.00
Zn13   Zn    0.11562   0.16667   0.25000   0.00000  Uiso   1.00
Zn14   Zn    0.21771   0.16666   0.25000   0.00000  Uiso   1.00
C15    C     0.11505   0.16466   0.39023   0.00000  Uiso   1.00
C16    C     0.21724   0.15584   0.11088   0.00000  Uiso   1.00
C17    C     0.05147   0.17742   0.46734   0.00000  Uiso   1.00
C18    C     0.26518   0.11289   0.04395   0.00000  Uiso   1.00
C19    C     0.06606   0.17568   0.41840   0.00000  Uiso   1.00
C20    C     0.25722   0.12843   0.08889   0.00000  Uiso   1.00
C21    C     0.14653   0.15222   0.41194   0.00000  Uiso   1.00
C22    C     0.18721   0.16677   0.08721   0.00000  Uiso   1.00
C23    C     0.13059   0.14961   0.46090   0.00000  Uiso   1.00
C24    C     0.18939   0.14500   0.04714   0.00000  Uiso   1.00
C25    C     0.08391   0.16585   0.48848   0.00000  Uiso   1.00
C26    C     0.23127   0.12057   0.02325   0.00000  Uiso   1.00
C27    C     0.16196   0.13516   0.48279   0.00000  Uiso   1.00
C28    C     0.15143   0.14766   0.02987   0.00000  Uiso   1.00
C29    C     0.10296   0.16130   0.05806   0.00000  Uiso   1.00
C30    C     0.20331   0.10886   0.45977   0.00000  Uiso   1.00
C31    C     0.07011   0.17041   0.03682   0.00000  Uiso   1.00
C32    C     0.23747   0.10230   0.48028   0.00000  Uiso   1.00
H33    H     0.03362   0.18138   0.05817   0.00000  Uiso   1.00
H34    H     0.26839   0.08180   0.46316   0.00000  Uiso   1.00
H35    H     0.15979   0.19056   0.10247   0.00000  Uiso   1.00
H36    H     0.18451   0.14609   0.39025   0.00000  Uiso   1.00
H37    H     0.01472   0.18788   0.48886   0.00000  Uiso   1.00
H38    H     0.29642   0.09283   0.02640   0.00000  Uiso   1.00
C39    C     0.21098   0.31204   0.23926   0.00000  Uiso   1.00
C40    C     0.12249   0.02131   0.26032   0.00000  Uiso   1.00
H41    H     0.24546   0.29579   0.23072   0.00000  Uiso   1.00
H42    H     0.08800   0.03755   0.26887   0.00000  Uiso   1.00
C43    C     0.21099   0.02134   0.23916   0.00000  Uiso   1.00
C44    C     0.12248   0.31202   0.26040   0.00000  Uiso   1.00
H45    H     0.24548   0.03760   0.23053   0.00000  Uiso   1.00
H46    H     0.08799   0.29577   0.26900   0.00000  Uiso   1.00
C47    C     0.16673   0.04249   0.24977   0.00000  Uiso   1.00
C48    C     0.16672   0.29085   0.24990   0.00000  Uiso   1.00
C49    C     0.31508   0.13235   0.23582   0.00000  Uiso   1.00
C50    C     0.01812   0.20088   0.26452   0.00000  Uiso   1.00
H51    H     0.30176   0.10493   0.22418   0.00000  Uiso   1.00
H52    H     0.03140   0.22824   0.27628   0.00000  Uiso   1.00
C53    C     0.02952   0.13229   0.23608   0.00000  Uiso   1.00
C54    C     0.30355   0.20086   0.26454   0.00000  Uiso   1.00
H55    H     0.05205   0.10476   0.22482   0.00000  Uiso   1.00
H56    H     0.28081   0.22822   0.27630   0.00000  Uiso   1.00
N57    N     0.04759   0.16668   0.25001   0.00000  Uiso   1.00
N58    N     0.28574   0.16666   0.24999   0.00000  Uiso   1.00
N59    N     0.28745   0.11334   0.11250   0.00000  Uiso   1.00
O60    O     0.31062   0.13929   0.12891   0.00000  Uiso   1.00
O61    O     0.29897   0.07409   0.10993   0.00000  Uiso   1.00
N62    N     0.03128   0.18656   0.39830   0.00000  Uiso   1.00
O63    O     0.01422   0.15773   0.37907   0.00000  Uiso   1.00
O64    O     0.00828   0.22194   0.40919   0.00000  Uiso   1.00
N65    N     0.08412   0.16002   0.10857   0.00000  Uiso   1.00
O66    O     0.09045   0.12685   0.12984   0.00000  Uiso   1.00
O67    O     0.05605   0.18975   0.13329   0.00000  Uiso   1.00
N68    N     0.20754   0.08381   0.41964   0.00000  Uiso   1.00
O69    O     0.16924   0.06468   0.41840   0.00000  Uiso   1.00
O70    O     0.25053   0.07536   0.38758   0.00000  Uiso   1.00
O71    O     0.46179   0.22775   0.25000   0.00000  Uiso   1.00
O72    O     0.53821   0.10558   0.24999   0.00000  Uiso   1.00
O73    O     0.53823   0.22774   0.25000   0.00000  Uiso   1.00
O74    O     0.46177   0.10559   0.25000   0.00000  Uiso   1.00
C75    C     0.50002   0.24670   0.24999   0.00000  Uiso   1.00
C76    C     0.50002   0.08664   0.24990   0.00000  Uiso   1.00
O77    O     0.43994   0.16667   0.31612   0.00000  Uiso   1.00
O78    O     0.56006   0.16666   0.18387   0.00000  Uiso   1.00
O79    O     0.51639   0.16666   0.31612   0.00000  Uiso   1.00
O80    O     0.48361   0.16667   0.18388   0.00000  Uiso   1.00
C81    C     0.46902   0.16660   0.33848   0.00000  Uiso   1.00
C82    C     0.53096   0.16511   0.16160   0.00000  Uiso   1.00
Zn83   Zn    0.44896   0.16667   0.25000   0.00000  Uiso   1.00
Zn84   Zn    0.55104   0.16666   0.25000   0.00000  Uiso   1.00
C85    C     0.44838   0.16466   0.39023   0.00000  Uiso   1.00
C86    C     0.55057   0.15584   0.11088   0.00000  Uiso   1.00
C87    C     0.38481   0.17742   0.46734   0.00000  Uiso   1.00
C88    C     0.59851   0.11289   0.04395   0.00000  Uiso   1.00
C89    C     0.39939   0.17568   0.41840   0.00000  Uiso   1.00
C90    C     0.59055   0.12843   0.08889   0.00000  Uiso   1.00
C91    C     0.47987   0.15222   0.41194   0.00000  Uiso   1.00
C92    C     0.52055   0.16677   0.08721   0.00000  Uiso   1.00
C93    C     0.46393   0.14961   0.46090   0.00000  Uiso   1.00
C94    C     0.52272   0.14500   0.04714   0.00000  Uiso   1.00
C95    C     0.41725   0.16585   0.48848   0.00000  Uiso   1.00
C96    C     0.56460   0.12057   0.02325   0.00000  Uiso   1.00
C97    C     0.49530   0.13516   0.48279   0.00000  Uiso   1.00
C98    C     0.48476   0.14766   0.02987   0.00000  Uiso   1.00
C99    C     0.43630   0.16130   0.05806   0.00000  Uiso   1.00
C100   C     0.53664   0.10886   0.45977   0.00000  Uiso   1.00
C101   C     0.40344   0.17041   0.03682   0.00000  Uiso   1.00
C102   C     0.57080   0.10230   0.48028   0.00000  Uiso   1.00
H103   H     0.36695   0.18138   0.05817   0.00000  Uiso   1.00
H104   H     0.60172   0.08180   0.46316   0.00000  Uiso   1.00
H105   H     0.49313   0.19056   0.10247   0.00000  Uiso   1.00
H106   H     0.51784   0.14609   0.39025   0.00000  Uiso   1.00
H107   H     0.34806   0.18788   0.48886   0.00000  Uiso   1.00
H108   H     0.62976   0.09283   0.02640   0.00000  Uiso   1.00
C109   C     0.54431   0.31204   0.23926   0.00000  Uiso   1.00
C110   C     0.45582   0.02131   0.26032   0.00000  Uiso   1.00
H111   H     0.57879   0.29579   0.23072   0.00000  Uiso   1.00
H112   H     0.42133   0.03755   0.26887   0.00000  Uiso   1.00
C113   C     0.54432   0.02134   0.23916   0.00000  Uiso   1.00
C114   C     0.45581   0.31202   0.26040   0.00000  Uiso   1.00
H115   H     0.57882   0.03760   0.23053   0.00000  Uiso   1.00
H116   H     0.42132   0.29577   0.26900   0.00000  Uiso   1.00
C117   C     0.50007   0.04249   0.24977   0.00000  Uiso   1.00
C118   C     0.50005   0.29085   0.24990   0.00000  Uiso   1.00
C119   C     0.64842   0.13235   0.23582   0.00000  Uiso   1.00
C120   C     0.35145   0.20088   0.26452   0.00000  Uiso   1.00
H121   H     0.63510   0.10493   0.22418   0.00000  Uiso   1.00
H122   H     0.36474   0.22824   0.27628   0.00000  Uiso   1.00
C123   C     0.36286   0.13229   0.23608   0.00000  Uiso   1.00
C124   C     0.63688   0.20086   0.26454   0.00000  Uiso   1.00
H125   H     0.38539   0.10476   0.22482   0.00000  Uiso   1.00
H126   H     0.61414   0.22822   0.27630   0.00000  Uiso   1.00
N127   N     0.38093   0.16668   0.25001   0.00000  Uiso   1.00
N128   N     0.61907   0.16666   0.24999   0.00000  Uiso   1.00
N129   N     0.62078   0.11334   0.11250   0.00000  Uiso   1.00
O130   O     0.64395   0.13929   0.12891   0.00000  Uiso   1.00
O131   O     0.63230   0.07409   0.10993   0.00000  Uiso   1.00
N132   N     0.36461   0.18656   0.39830   0.00000  Uiso   1.00
O133   O     0.34755   0.15773   0.37907   0.00000  Uiso   1.00
O134   O     0.34161   0.22194   0.40919   0.00000  Uiso   1.00
N135   N     0.41746   0.16002   0.10857   0.00000  Uiso   1.00
O136   O     0.42378   0.12685   0.12984   0.00000  Uiso   1.00
O137   O     0.38939   0.18975   0.13329   0.00000  Uiso   1.00
N138   N     0.54087   0.08381   0.41964   0.00000  Uiso   1.00
O139   O     0.50257   0.06468   0.41840   0.00000  Uiso   1.00
O140   O     0.58386   0.07536   0.38758   0.00000  Uiso   1.00
O141   O     0.79512   0.22775   0.25000   0.00000  Uiso   1.00
O142   O     0.87154   0.10558   0.24999   0.00000  Uiso   1.00
O143   O     0.87157   0.22774   0.25000   0.00000  Uiso   1.00
O144   O     0.79510   0.10559   0.25000   0.00000  Uiso   1.00
C145   C     0.83335   0.24670   0.24999   0.00000  Uiso   1.00
C146   C     0.83336   0.08664   0.24990   0.00000  Uiso   1.00
O147   O     0.77328   0.16667   0.31612   0.00000  Uiso   1.00
O148   O     0.89339   0.16666   0.18387   0.00000  Uiso   1.00
O149   O     0.84972   0.16666   0.31612   0.00000  Uiso   1.00
O150   O     0.81695   0.16667   0.18388   0.00000  Uiso   1.00
C151   C     0.80235   0.16660   0.33848   0.00000  Uiso   1.00
C152   C     0.86430   0.16511   0.16160   0.00000  Uiso   1.00
Zn153  Zn    0.78229   0.16667   0.25000   0.00000  Uiso   1.00
Zn154  Zn    0.88438   0.16666   0.25000   0.00000  Uiso   1.00
C155   C     0.78172   0.16466   0.39023   0.00000  Uiso   1.00
C156   C     0.88390   0.15584   0.11088   0.00000  Uiso   1.00
C157   C     0.71814   0.17742   0.46734   0.00000  Uiso   1.00
C158   C     0.93185   0.11289   0.04395   0.00000  Uiso   1.00
C159   C     0.73273   0.17568   0.41840   0.00000  Uiso   1.00
C160   C     0.92389   0.12843   0.08889   0.00000  Uiso   1.00
C161   C     0.81320   0.15222   0.41194   0.00000  Uiso   1.00
C162   C     0.85388   0.16677   0.08721   0.00000  Uiso   1.00
C163   C     0.79726   0.14961   0.46090   0.00000  Uiso   1.00
C164   C     0.85605   0.14500   0.04714   0.00000  Uiso   1.00
C165   C     0.75058   0.16585   0.48848   0.00000  Uiso   1.00
C166   C     0.89793   0.12057   0.02325   0.00000  Uiso   1.00
C167   C     0.82863   0.13516   0.48279   0.00000  Uiso   1.00
C168   C     0.81809   0.14766   0.02987   0.00000  Uiso   1.00
C169   C     0.76963   0.16130   0.05806   0.00000  Uiso   1.00
C170   C     0.86998   0.10886   0.45977   0.00000  Uiso   1.00
C171   C     0.73678   0.17041   0.03682   0.00000  Uiso   1.00
C172   C     0.90414   0.10230   0.48028   0.00000  Uiso   1.00
H173   H     0.70029   0.18138   0.05817   0.00000  Uiso   1.00
H174   H     0.93505   0.08180   0.46316   0.00000  Uiso   1.00
H175   H     0.82646   0.19056   0.10247   0.00000  Uiso   1.00
H176   H     0.85117   0.14609   0.39025   0.00000  Uiso   1.00
H177   H     0.68139   0.18788   0.48886   0.00000  Uiso   1.00
H178   H     0.96309   0.09283   0.02640   0.00000  Uiso   1.00
C179   C     0.87765   0.31204   0.23926   0.00000  Uiso   1.00
C180   C     0.78916   0.02131   0.26032   0.00000  Uiso   1.00
H181   H     0.91213   0.29579   0.23072   0.00000  Uiso   1.00
H182   H     0.75467   0.03755   0.26887   0.00000  Uiso   1.00
C183   C     0.87766   0.02134   0.23916   0.00000  Uiso   1.00
C184   C     0.78915   0.31202   0.26040   0.00000  Uiso   1.00
H185   H     0.91215   0.03760   0.23053   0.00000  Uiso   1.00
H186   H     0.75465   0.29577   0.26900   0.00000  Uiso   1.00
C187   C     0.83340   0.04249   0.24977   0.00000  Uiso   1.00
C188   C     0.83338   0.29085   0.24990   0.00000  Uiso   1.00
C189   C     0.98175   0.13235   0.23582   0.00000  Uiso   1.00
C190   C     0.68479   0.20088   0.26452   0.00000  Uiso   1.00
H191   H     0.96843   0.10493   0.22418   0.00000  Uiso   1.00
H192   H     0.69807   0.22824   0.27628   0.00000  Uiso   1.00
C193   C     0.69619   0.13229   0.23608   0.00000  Uiso   1.00
C194   C     0.97022   0.20086   0.26454   0.00000  Uiso   1.00
H195   H     0.71872   0.10476   0.22482   0.00000  Uiso   1.00
H196   H     0.94748   0.22822   0.27630   0.00000  Uiso   1.00
N197   N     0.71426   0.16668   0.25001   0.00000  Uiso   1.00
N198   N     0.95241   0.16666   0.24999   0.00000  Uiso   1.00
N199   N     0.95411   0.11334   0.11250   0.00000  Uiso   1.00
O200   O     0.97728   0.13929   0.12891   0.00000  Uiso   1.00
O201   O     0.96563   0.07409   0.10993   0.00000  Uiso   1.00
N202   N     0.69795   0.18656   0.39830   0.00000  Uiso   1.00
O203   O     0.68089   0.15773   0.37907   0.00000  Uiso   1.00
O204   O     0.67495   0.22194   0.40919   0.00000  Uiso   1.00
N205   N     0.75079   0.16002   0.10857   0.00000  Uiso   1.00
O206   O     0.75711   0.12685   0.12984   0.00000  Uiso   1.00
O207   O     0.72272   0.18975   0.13329   0.00000  Uiso   1.00
N208   N     0.87421   0.08381   0.41964   0.00000  Uiso   1.00
O209   O     0.83591   0.06468   0.41840   0.00000  Uiso   1.00
O210   O     0.91720   0.07536   0.38758   0.00000  Uiso   1.00
O211   O     0.12846   0.56108   0.25000   0.00000  Uiso   1.00
O212   O     0.20488   0.43892   0.24999   0.00000  Uiso   1.00
O213   O     0.20490   0.56107   0.25000   0.00000  Uiso   1.00
O214   O     0.12843   0.43893   0.25000   0.00000  Uiso   1.00
C215   C     0.16669   0.58003   0.24999   0.00000  Uiso   1.00
C216   C     0.16669   0.41997   0.24990   0.00000  Uiso   1.00
O217   O     0.10661   0.50001   0.31612   0.00000  Uiso   1.00
O218   O     0.22672   0.49999   0.18387   0.00000  Uiso   1.00
O219   O     0.18305   0.50000   0.31612   0.00000  Uiso   1.00
O220   O     0.15028   0.50000   0.18388   0.00000  Uiso   1.00
C221   C     0.13569   0.49994   0.33848   0.00000  Uiso   1.00
C222   C     0.19763   0.49844   0.16160   0.00000  Uiso   1.00
Zn223  Zn    0.11562   0.50001   0.25000   0.00000  Uiso   1.00
Zn224  Zn    0.21771   0.49999   0.25000   0.00000  Uiso   1.00
C225   C     0.11505   0.49800   0.39023   0.00000  Uiso   1.00
C226   C     0.21724   0.48917   0.11088   0.00000  Uiso   1.00
C227   C     0.05147   0.51076   0.46734   0.00000  Uiso   1.00
C228   C     0.26518   0.44622   0.04395   0.00000  Uiso   1.00
C229   C     0.06606   0.50901   0.41840   0.00000  Uiso   1.00
C230   C     0.25722   0.46177   0.08889   0.00000  Uiso   1.00
C231   C     0.14653   0.48556   0.41194   0.00000  Uiso   1.00
C232   C     0.18721   0.50011   0.08721   0.00000  Uiso   1.00
C233   C     0.13059   0.48294   0.46090   0.00000  Uiso   1.00
C234   C     0.18939   0.47833   0.04714   0.00000  Uiso   1.00
C235   C     0.08391   0.49919   0.48848   0.00000  Uiso   1.00
C236   C     0.23127   0.45390   0.02325   0.00000  Uiso   1.00
C237   C     0.16196   0.46849   0.48279   0.00000  Uiso   1.00
C238   C     0.15143   0.48100   0.02987   0.00000  Uiso   1.00
C239   C     0.10296   0.49463   0.05806   0.00000  Uiso   1.00
C240   C     0.20331   0.44219   0.45977   0.00000  Uiso   1.00
C241   C     0.07011   0.50374   0.03682   0.00000  Uiso   1.00
C242   C     0.23747   0.43563   0.48028   0.00000  Uiso   1.00
H243   H     0.03362   0.51471   0.05817   0.00000  Uiso   1.00
H244   H     0.26839   0.41513   0.46316   0.00000  Uiso   1.00
H245   H     0.15979   0.52389   0.10247   0.00000  Uiso   1.00
H246   H     0.18451   0.47942   0.39025   0.00000  Uiso   1.00
H247   H     0.01472   0.52121   0.48886   0.00000  Uiso   1.00
H248   H     0.29642   0.42616   0.02640   0.00000  Uiso   1.00
C249   C     0.21098   0.64537   0.23926   0.00000  Uiso   1.00
C250   C     0.12249   0.35464   0.26032   0.00000  Uiso   1.00
H251   H     0.24546   0.62913   0.23072   0.00000  Uiso   1.00
H252   H     0.08800   0.37088   0.26887   0.00000  Uiso   1.00
C253   C     0.21099   0.35467   0.23916   0.00000  Uiso   1.00
C254   C     0.12248   0.64535   0.26040   0.00000  Uiso   1.00
H255   H     0.24548   0.37093   0.23053   0.00000  Uiso   1.00
H256   H     0.08799   0.62910   0.26900   0.00000  Uiso   1.00
C257   C     0.16673   0.37583   0.24977   0.00000  Uiso   1.00
C258   C     0.16672   0.62419   0.24990   0.00000  Uiso   1.00
C259   C     0.31508   0.46569   0.23582   0.00000  Uiso   1.00
C260   C     0.01812   0.53421   0.26452   0.00000  Uiso   1.00
H261   H     0.30176   0.43827   0.22418   0.00000  Uiso   1.00
H262   H     0.03140   0.56158   0.27628   0.00000  Uiso   1.00
C263   C     0.02952   0.46562   0.23608   0.00000  Uiso   1.00
C264   C     0.30355   0.53419   0.26454   0.00000  Uiso   1.00
H265   H     0.05205   0.43809   0.22482   0.00000  Uiso   1.00
H266   H     0.28081   0.56156   0.27630   0.00000  Uiso   1.00
N267   N     0.04759   0.50001   0.25001   0.00000  Uiso   1.00
N268   N     0.28574   0.49999   0.24999   0.00000  Uiso   1.00
N269   N     0.28745   0.44668   0.11250   0.00000  Uiso   1.00
O270   O     0.31062   0.47263   0.12891   0.00000  Uiso   1.00
O271   O     0.29897   0.40742   0.10993   0.00000  Uiso   1.00
N272   N     0.03128   0.51990   0.39830   0.00000  Uiso   1.00
O273   O     0.01422   0.49106   0.37907   0.00000  Uiso   1.00
O274   O     0.00828   0.55528   0.40919   0.00000  Uiso   1.00
N275   N     0.08412   0.49335   0.10857   0.00000  Uiso   1.00
O276   O     0.09045   0.46018   0.12984   0.00000  Uiso   1.00
O277   O     0.05605   0.52309   0.13329   0.00000  Uiso   1.00
N278   N     0.20754   0.41714   0.41964   0.00000  Uiso   1.00
O279   O     0.16924   0.39801   0.41840   0.00000  Uiso   1.00
O280   O     0.25053   0.40869   0.38758   0.00000  Uiso   1.00
O281   O     0.46179   0.56108   0.25000   0.00000  Uiso   1.00
O282   O     0.53821   0.43892   0.24999   0.00000  Uiso   1.00
O283   O     0.53823   0.56107   0.25000   0.00000  Uiso   1.00
O284   O     0.46177   0.43893   0.25000   0.00000  Uiso   1.00
C285   C     0.50002   0.58003   0.24999   0.00000  Uiso   1.00
C286   C     0.50002   0.41997   0.24990   0.00000  Uiso   1.00
O287   O     0.43994   0.50001   0.31612   0.00000  Uiso   1.00
O288   O     0.56006   0.49999   0.18387   0.00000  Uiso   1.00
O289   O     0.51639   0.50000   0.31612   0.00000  Uiso   1.00
O290   O     0.48361   0.50000   0.18388   0.00000  Uiso   1.00
C291   C     0.46902   0.49994   0.33848   0.00000  Uiso   1.00
C292   C     0.53096   0.49844   0.16160   0.00000  Uiso   1.00
Zn293  Zn    0.44896   0.50001   0.25000   0.00000  Uiso   1.00
Zn294  Zn    0.55104   0.49999   0.25000   0.00000  Uiso   1.00
C295   C     0.44838   0.49800   0.39023   0.00000  Uiso   1.00
C296   C     0.55057   0.48917   0.11088   0.00000  Uiso   1.00
C297   C     0.38481   0.51076   0.46734   0.00000  Uiso   1.00
C298   C     0.59851   0.44622   0.04395   0.00000  Uiso   1.00
C299   C     0.39939   0.50901   0.41840   0.00000  Uiso   1.00
C300   C     0.59055   0.46177   0.08889   0.00000  Uiso   1.00
C301   C     0.47987   0.48556   0.41194   0.00000  Uiso   1.00
C302   C     0.52055   0.50011   0.08721   0.00000  Uiso   1.00
C303   C     0.46393   0.48294   0.46090   0.00000  Uiso   1.00
C304   C     0.52272   0.47833   0.04714   0.00000  Uiso   1.00
C305   C     0.41725   0.49919   0.48848   0.00000  Uiso   1.00
C306   C     0.56460   0.45390   0.02325   0.00000  Uiso   1.00
C307   C     0.49530   0.46849   0.48279   0.00000  Uiso   1.00
C308   C     0.48476   0.48100   0.02987   0.00000  Uiso   1.00
C309   C     0.43630   0.49463   0.05806   0.00000  Uiso   1.00
C310   C     0.53664   0.44219   0.45977   0.00000  Uiso   1.00
C311   C     0.40344   0.50374   0.03682   0.00000  Uiso   1.00
C312   C     0.57080   0.43563   0.48028   0.00000  Uiso   1.00
H313   H     0.36695   0.51471   0.05817   0.00000  Uiso   1.00
H314   H     0.60172   0.41513   0.46316   0.00000  Uiso   1.00
H315   H     0.49313   0.52389   0.10247   0.00000  Uiso   1.00
H316   H     0.51784   0.47942   0.39025   0.00000  Uiso   1.00
H317   H     0.34806   0.52121   0.48886   0.00000  Uiso   1.00
H318   H     0.62976   0.42616   0.02640   0.00000  Uiso   1.00
C319   C     0.54431   0.64537   0.23926   0.00000  Uiso   1.00
C320   C     0.45582   0.35464   0.26032   0.00000  Uiso   1.00
H321   H     0.57879   0.62913   0.23072   0.00000  Uiso   1.00
H322   H     0.42133   0.37088   0.26887   0.00000  Uiso   1.00
C323   C     0.54432   0.35467   0.23916   0.00000  Uiso   1.00
C324   C     0.45581   0.64535   0.26040   0.00000  Uiso   1.00
H325   H     0.57882   0.37093   0.23053   0.00000  Uiso   1.00
H326   H     0.42132   0.62910   0.26900   0.00000  Uiso   1.00
C327   C     0.50007   0.37583   0.24977   0.00000  Uiso   1.00
C328   C     0.50005   0.62419   0.24990   0.00000  Uiso   1.00
C329   C     0.64842   0.46569   0.23582   0.00000  Uiso   1.00
C330   C     0.35145   0.53421   0.26452   0.00000  Uiso   1.00
H331   H     0.63510   0.43827   0.22418   0.00000  Uiso   1.00
H332   H     0.36474   0.56158   0.27628   0.00000  Uiso   1.00
C333   C     0.36286   0.46562   0.23608   0.00000  Uiso   1.00
C334   C     0.63688   0.53419   0.26454   0.00000  Uiso   1.00
H335   H     0.38539   0.43809   0.22482   0.00000  Uiso   1.00
H336   H     0.61414   0.56156   0.27630   0.00000  Uiso   1.00
N337   N     0.38093   0.50001   0.25001   0.00000  Uiso   1.00
N338   N     0.61907   0.49999   0.24999   0.00000  Uiso   1.00
N339   N     0.62078   0.44668   0.11250   0.00000  Uiso   1.00
O340   O     0.64395   0.47263   0.12891   0.00000  Uiso   1.00
O341   O     0.63230   0.40742   0.10993   0.00000  Uiso   1.00
N342   N     0.36461   0.51990   0.39830   0.00000  Uiso   1.00
O343   O     0.34755   0.49106   0.37907   0.00000  Uiso   1.00
O344   O     0.34161   0.55528   0.40919   0.00000  Uiso   1.00
N345   N     0.41746   0.49335   0.10857   0.00000  Uiso   1.00
O346   O     0.42378   0.46018   0.12984   0.00000  Uiso   1.00
O347   O     0.38939   0.52309   0.13329   0.00000  Uiso   1.00
N348   N     0.54087   0.41714   0.41964   0.00000  Uiso   1.00
O349   O     0.50257   0.39801   0.41840   0.00000  Uiso   1.00
O350   O     0.58386   0.40869   0.38758   0.00000  Uiso   1.00
O351   O     0.79512   0.56108   0.25000   0.00000  Uiso   1.00
O352   O     0.87154   0.43892   0.24999   0.00000  Uiso   1.00
O353   O     0.87157   0.56107   0.25000   0.00000  Uiso   1.00
O354   O     0.79510   0.43893   0.25000   0.00000  Uiso   1.00
C355   C     0.83335   0.58003   0.24999   0.00000  Uiso   1.00
C356   C     0.83336   0.41997   0.24990   0.00000  Uiso   1.00
O357   O     0.77328   0.50001   0.31612   0.00000  Uiso   1.00
O358   O     0.89339   0.49999   0.18387   0.00000  Uiso   1.00
O359   O     0.84972   0.50000   0.31612   0.00000  Uiso   1.00
O360   O     0.81695   0.50000   0.18388   0.00000  Uiso   1.00
C361   C     0.80235   0.49994   0.33848   0.00000  Uiso   1.00
C362   C     0.86430   0.49844   0.16160   0.00000  Uiso   1.00
Zn363  Zn    0.78229   0.50001   0.25000   0.00000  Uiso   1.00
Zn364  Zn    0.88438   0.49999   0.25000   0.00000  Uiso   1.00
C365   C     0.78172   0.49800   0.39023   0.00000  Uiso   1.00
C366   C     0.88390   0.48917   0.11088   0.00000  Uiso   1.00
C367   C     0.71814   0.51076   0.46734   0.00000  Uiso   1.00
C368   C     0.93185   0.44622   0.04395   0.00000  Uiso   1.00
C369   C     0.73273   0.50901   0.41840   0.00000  Uiso   1.00
C370   C     0.92389   0.46177   0.08889   0.00000  Uiso   1.00
C371   C     0.81320   0.48556   0.41194   0.00000  Uiso   1.00
C372   C     0.85388   0.50011   0.08721   0.00000  Uiso   1.00
C373   C     0.79726   0.48294   0.46090   0.00000  Uiso   1.00
C374   C     0.85605   0.47833   0.04714   0.00000  Uiso   1.00
C375   C     0.75058   0.49919   0.48848   0.00000  Uiso   1.00
C376   C     0.89793   0.45390   0.02325   0.00000  Uiso   1.00
C377   C     0.82863   0.46849   0.48279   0.00000  Uiso   1.00
C378   C     0.81809   0.48100   0.02987   0.00000  Uiso   1.00
C379   C     0.76963   0.49463   0.05806   0.00000  Uiso   1.00
C380   C     0.86998   0.44219   0.45977   0.00000  Uiso   1.00
C381   C     0.73678   0.50374   0.03682   0.00000  Uiso   1.00
C382   C     0.90414   0.43563   0.48028   0.00000  Uiso   1.00
H383   H     0.70029   0.51471   0.05817   0.00000  Uiso   1.00
H384   H     0.93505   0.41513   0.46316   0.00000  Uiso   1.00
H385   H     0.82646   0.52389   0.10247   0.00000  Uiso   1.00
H386   H     0.85117   0.47942   0.39025   0.00000  Uiso   1.00
H387   H     0.68139   0.52121   0.48886   0.00000  Uiso   1.00
H388   H     0.96309   0.42616   0.02640   0.00000  Uiso   1.00
C389   C     0.87765   0.64537   0.23926   0.00000  Uiso   1.00
C390   C     0.78916   0.35464   0.26032   0.00000  Uiso   1.00
H391   H     0.91213   0.62913   0.23072   0.00000  Uiso   1.00
H392   H     0.75467   0.37088   0.26887   0.00000  Uiso   1.00
C393   C     0.87766   0.35467   0.23916   0.00000  Uiso   1.00
C394   C     0.78915   0.64535   0.26040   0.00000  Uiso   1.00
H395   H     0.91215   0.37093   0.23053   0.00000  Uiso   1.00
H396   H     0.75465   0.62910   0.26900   0.00000  Uiso   1.00
C397   C     0.83340   0.37583   0.24977   0.00000  Uiso   1.00
C398   C     0.83338   0.62419   0.24990   0.00000  Uiso   1.00
C399   C     0.98175   0.46569   0.23582   0.00000  Uiso   1.00
C400   C     0.68479   0.53421   0.26452   0.00000  Uiso   1.00
H401   H     0.96843   0.43827   0.22418   0.00000  Uiso   1.00
H402   H     0.69807   0.56158   0.27628   0.00000  Uiso   1.00
C403   C     0.69619   0.46562   0.23608   0.00000  Uiso   1.00
C404   C     0.97022   0.53419   0.26454   0.00000  Uiso   1.00
H405   H     0.71872   0.43809   0.22482   0.00000  Uiso   1.00
H406   H     0.94748   0.56156   0.27630   0.00000  Uiso   1.00
N407   N     0.71426   0.50001   0.25001   0.00000  Uiso   1.00
N408   N     0.95241   0.49999   0.24999   0.00000  Uiso   1.00
N409   N     0.95411   0.44668   0.11250   0.00000  Uiso   1.00
O410   O     0.97728   0.47263   0.12891   0.00000  Uiso   1.00
O411   O     0.96563   0.40742   0.10993   0.00000  Uiso   1.00
N412   N     0.69795   0.51990   0.39830   0.00000  Uiso   1.00
O413   O     0.68089   0.49106   0.37907   0.00000  Uiso   1.00
O414   O     0.67495   0.55528   0.40919   0.00000  Uiso   1.00
N415   N     0.75079   0.49335   0.10857   0.00000  Uiso   1.00
O416   O     0.75711   0.46018   0.12984   0.00000  Uiso   1.00
O417   O     0.72272   0.52309   0.13329   0.00000  Uiso   1.00
N418   N     0.87421   0.41714   0.41964   0.00000  Uiso   1.00
O419   O     0.83591   0.39801   0.41840   0.00000  Uiso   1.00
O420   O     0.91720   0.40869   0.38758   0.00000  Uiso   1.00
O421   O     0.12846   0.89442   0.25000   0.00000  Uiso   1.00
O422   O     0.20488   0.77225   0.24999   0.00000  Uiso   1.00
O423   O     0.20490   0.89441   0.25000   0.00000  Uiso   1.00
O424   O     0.12843   0.77226   0.25000   0.00000  Uiso   1.00
C425   C     0.16669   0.91337   0.24999   0.00000  Uiso   1.00
C426   C     0.16669   0.75331   0.24990   0.00000  Uiso   1.00
O427   O     0.10661   0.83334   0.31612   0.00000  Uiso   1.00
O428   O     0.22672   0.83333   0.18387   0.00000  Uiso   1.00
O429   O     0.18305   0.83333   0.31612   0.00000  Uiso   1.00
O430   O     0.15028   0.83334   0.18388   0.00000  Uiso   1.00
C431   C     0.13569   0.83327   0.33848   0.00000  Uiso   1.00
C432   C     0.19763   0.83177   0.16160   0.00000  Uiso   1.00
Zn433  Zn    0.11562   0.83334   0.25000   0.00000  Uiso   1.00
Zn434  Zn    0.21771   0.83333   0.25000   0.00000  Uiso   1.00
C435   C     0.11505   0.83133   0.39023   0.00000  Uiso   1.00
C436   C     0.21724   0.82251   0.11088   0.00000  Uiso   1.00
C437   C     0.05147   0.84409   0.46734   0.00000  Uiso   1.00
C438   C     0.26518   0.77956   0.04395   0.00000  Uiso   1.00
C439   C     0.06606   0.84235   0.41840   0.00000  Uiso   1.00
C440   C     0.25722   0.79510   0.08889   0.00000  Uiso   1.00
C441   C     0.14653   0.81889   0.41194   0.00000  Uiso   1.00
C442   C     0.18721   0.83344   0.08721   0.00000  Uiso   1.00
C443   C     0.13059   0.81627   0.46090   0.00000  Uiso   1.00
C444   C     0.18939   0.81167   0.04714   0.00000  Uiso   1.00
C445   C     0.08391   0.83252   0.48848   0.00000  Uiso   1.00
C446   C     0.23127   0.78723   0.02325   0.00000  Uiso   1.00
C447   C     0.16196   0.80183   0.48279   0.00000  Uiso   1.00
C448   C     0.15143   0.81433   0.02987   0.00000  Uiso   1.00
C449   C     0.10296   0.82796   0.05806   0.00000  Uiso   1.00
C450   C     0.20331   0.77552   0.45977   0.00000  Uiso   1.00
C451   C     0.07011   0.83707   0.03682   0.00000  Uiso   1.00
C452   C     0.23747   0.76896   0.48028   0.00000  Uiso   1.00
H453   H     0.03362   0.84804   0.05817   0.00000  Uiso   1.00
H454   H     0.26839   0.74847   0.46316   0.00000  Uiso   1.00
H455   H     0.15979   0.85722   0.10247   0.00000  Uiso   1.00
H456   H     0.18451   0.81275   0.39025   0.00000  Uiso   1.00
H457   H     0.01472   0.85455   0.48886   0.00000  Uiso   1.00
H458   H     0.29642   0.75949   0.02640   0.00000  Uiso   1.00
C459   C     0.21098   0.97871   0.23926   0.00000  Uiso   1.00
C460   C     0.12249   0.68798   0.26032   0.00000  Uiso   1.00
H461   H     0.24546   0.96246   0.23072   0.00000  Uiso   1.00
H462   H     0.08800   0.70422   0.26887   0.00000  Uiso   1.00
C463   C     0.21099   0.68801   0.23916   0.00000  Uiso   1.00
C464   C     0.12248   0.97869   0.26040   0.00000  Uiso   1.00
H465   H     0.24548   0.70427   0.23053   0.00000  Uiso   1.00
H466   H     0.08799   0.96244   0.26900   0.00000  Uiso   1.00
C467   C     0.16673   0.70916   0.24977   0.00000  Uiso   1.00
C468   C     0.16672   0.95752   0.24990   0.00000  Uiso   1.00
C469   C     0.31508   0.79902   0.23582   0.00000  Uiso   1.00
C470   C     0.01812   0.86754   0.26452   0.00000  Uiso   1.00
H471   H     0.30176   0.77160   0.22418   0.00000  Uiso   1.00
H472   H     0.03140   0.89491   0.27628   0.00000  Uiso   1.00
C473   C     0.02952   0.79896   0.23608   0.00000  Uiso   1.00
C474   C     0.30355   0.86752   0.26454   0.00000  Uiso   1.00
H475   H     0.05205   0.77143   0.22482   0.00000  Uiso   1.00
H476   H     0.28081   0.89489   0.27630   0.00000  Uiso   1.00
N477   N     0.04759   0.83334   0.25001   0.00000  Uiso   1.00
N478   N     0.28574   0.83332   0.24999   0.00000  Uiso   1.00
N479   N     0.28745   0.78001   0.11250   0.00000  Uiso   1.00
O480   O     0.31062   0.80596   0.12891   0.00000  Uiso   1.00
O481   O     0.29897   0.74076   0.10993   0.00000  Uiso   1.00
N482   N     0.03128   0.85323   0.39830   0.00000  Uiso   1.00
O483   O     0.01422   0.82440   0.37907   0.00000  Uiso   1.00
O484   O     0.00828   0.88861   0.40919   0.00000  Uiso   1.00
N485   N     0.08412   0.82668   0.10857   0.00000  Uiso   1.00
O486   O     0.09045   0.79352   0.12984   0.00000  Uiso   1.00
O487   O     0.05605   0.85642   0.13329   0.00000  Uiso   1.00
N488   N     0.20754   0.75047   0.41964   0.00000  Uiso   1.00
O489   O     0.16924   0.73135   0.41840   0.00000  Uiso   1.00
O490   O     0.25053   0.74203   0.38758   0.00000  Uiso   1.00
O491   O     0.46179   0.89442   0.25000   0.00000  Uiso   1.00
O492   O     0.53821   0.77225   0.24999   0.00000  Uiso   1.00
O493   O     0.53823   0.89441   0.25000   0.00000  Uiso   1.00
O494   O     0.46177   0.77226   0.25000   0.00000  Uiso   1.00
C495   C     0.50002   0.91337   0.24999   0.00000  Uiso   1.00
C496   C     0.50002   0.75331   0.24990   0.00000  Uiso   1.00
O497   O     0.43994   0.83334   0.31612   0.00000  Uiso   1.00
O498   O     0.56006   0.83333   0.18387   0.00000  Uiso   1.00
O499   O     0.51639   0.83333   0.31612   0.00000  Uiso   1.00
O500   O     0.48361   0.83334   0.18388   0.00000  Uiso   1.00
C501   C     0.46902   0.83327   0.33848   0.00000  Uiso   1.00
C502   C     0.53096   0.83177   0.16160   0.00000  Uiso   1.00
Zn503  Zn    0.44896   0.83334   0.25000   0.00000  Uiso   1.00
Zn504  Zn    0.55104   0.83333   0.25000   0.00000  Uiso   1.00
C505   C     0.44838   0.83133   0.39023   0.00000  Uiso   1.00
C506   C     0.55057   0.82251   0.11088   0.00000  Uiso   1.00
C507   C     0.38481   0.84409   0.46734   0.00000  Uiso   1.00
C508   C     0.59851   0.77956   0.04395   0.00000  Uiso   1.00
C509   C     0.39939   0.84235   0.41840   0.00000  Uiso   1.00
C510   C     0.59055   0.79510   0.08889   0.00000  Uiso   1.00
C511   C     0.47987   0.81889   0.41194   0.00000  Uiso   1.00
C512   C     0.52055   0.83344   0.08721   0.00000  Uiso   1.00
C513   C     0.46393   0.81627   0.46090   0.00000  Uiso   1.00
C514   C     0.52272   0.81167   0.04714   0.00000  Uiso   1.00
C515   C     0.41725   0.83252   0.48848   0.00000  Uiso   1.00
C516   C     0.56460   0.78723   0.02325   0.00000  Uiso   1.00
C517   C     0.49530   0.80183   0.48279   0.00000  Uiso   1.00
C518   C     0.48476   0.81433   0.02987   0.00000  Uiso   1.00
C519   C     0.43630   0.82796   0.05806   0.00000  Uiso   1.00
C520   C     0.53664   0.77552   0.45977   0.00000  Uiso   1.00
C521   C     0.40344   0.83707   0.03682   0.00000  Uiso   1.00
C522   C     0.57080   0.76896   0.48028   0.00000  Uiso   1.00
H523   H     0.36695   0.84804   0.05817   0.00000  Uiso   1.00
H524   H     0.60172   0.74847   0.46316   0.00000  Uiso   1.00
H525   H     0.49313   0.85722   0.10247   0.00000  Uiso   1.00
H526   H     0.51784   0.81275   0.39025   0.00000  Uiso   1.00
H527   H     0.34806   0.85455   0.48886   0.00000  Uiso   1.00
H528   H     0.62976   0.75949   0.02640   0.00000  Uiso   1.00
C529   C     0.54431   0.97871   0.23926   0.00000  Uiso   1.00
C530   C     0.45582   0.68798   0.26032   0.00000  Uiso   1.00
H531   H     0.57879   0.96246   0.23072   0.00000  Uiso   1.00
H532   H     0.42133   0.70422   0.26887   0.00000  Uiso   1.00
C533   C     0.54432   0.68801   0.23916   0.00000  Uiso   1.00
C534   C     0.45581   0.97869   0.26040   0.00000  Uiso   1.00
H535   H     0.57882   0.70427   0.23053   0.00000  Uiso   1.00
H536   H     0.42132   0.96244   0.26900   0.00000  Uiso   1.00
C537   C     0.50007   0.70916   0.24977   0.00000  Uiso   1.00
C538   C     0.50005   0.95752   0.24990   0.00000  Uiso   1.00
C539   C     0.64842   0.79902   0.23582   0.00000  Uiso   1.00
C540   C     0.35145   0.86754   0.26452   0.00000  Uiso   1.00
H541   H     0.63510   0.77160   0.22418   0.00000  Uiso   1.00
H542   H     0.36474   0.89491   0.27628   0.00000  Uiso   1.00
C543   C     0.36286   0.79896   0.23608   0.00000  Uiso   1.00
C544   C     0.63688   0.86752   0.26454   0.00000  Uiso   1.00
H545   H     0.38539   0.77143   0.22482   0.00000  Uiso   1.00
H546   H     0.61414   0.89489   0.27630   0.00000  Uiso   1.00
N547   N     0.38093   0.83334   0.25001   0.00000  Uiso   1.00
N548   N     0.61907   0.83332   0.24999   0.00000  Uiso   1.00
N549   N     0.62078   0.78001   0.11250   0.00000  Uiso   1.00
O550   O     0.64395   0.80596   0.12891   0.00000  Uiso   1.00
O551   O     0.63230   0.74076   0.10993   0.00000  Uiso   1.00
N552   N     0.36461   0.85323   0.39830   0.00000  Uiso   1.00
O553   O     0.34755   0.82440   0.37907   0.00000  Uiso   1.00
O554   O     0.34161   0.88861   0.40919   0.00000  Uiso   1.00
N555   N     0.41746   0.82668   0.10857   0.00000  Uiso   1.00
O556   O     0.42378   0.79352   0.12984   0.00000  Uiso   1.00
O557   O     0.38939   0.85642   0.13329   0.00000  Uiso   1.00
N558   N     0.54087   0.75047   0.41964   0.00000  Uiso   1.00
O559   O     0.50257   0.73135   0.41840   0.00000  Uiso   1.00
O560   O     0.58386   0.74203   0.38758   0.00000  Uiso   1.00
O561   O     0.79512   0.89442   0.25000   0.00000  Uiso   1.00
O562   O     0.87154   0.77225   0.24999   0.00000  Uiso   1.00
O563   O     0.87157   0.89441   0.25000   0.00000  Uiso   1.00
O564   O     0.79510   0.77226   0.25000   0.00000  Uiso   1.00
C565   C     0.83335   0.91337   0.24999   0.00000  Uiso   1.00
C566   C     0.83336   0.75331   0.24990   0.00000  Uiso   1.00
O567   O     0.77328   0.83334   0.31612   0.00000  Uiso   1.00
O568   O     0.89339   0.83333   0.18387   0.00000  Uiso   1.00
O569   O     0.84972   0.83333   0.31612   0.00000  Uiso   1.00
O570   O     0.81695   0.83334   0.18388   0.00000  Uiso   1.00
C571   C     0.80235   0.83327   0.33848   0.00000  Uiso   1.00
C572   C     0.86430   0.83177   0.16160   0.00000  Uiso   1.00
Zn573  Zn    0.78229   0.83334   0.25000   0.00000  Uiso   1.00
Zn574  Zn    0.88438   0.83333   0.25000   0.00000  Uiso   1.00
C575   C     0.78172   0.83133   0.39023   0.00000  Uiso   1.00
C576   C     0.88390   0.82251   0.11088   0.00000  Uiso   1.00
C577   C     0.71814   0.84409   0.46734   0.00000  Uiso   1.00
C578   C     0.93185   0.77956   0.04395   0.00000  Uiso   1.00
C579   C     0.73273   0.84235   0.41840   0.00000  Uiso   1.00
C580   C     0.92389   0.79510   0.08889   0.00000  Uiso   1.00
C581   C     0.81320   0.81889   0.41194   0.00000  Uiso   1.00
C582   C     0.85388   0.83344   0.08721   0.00000  Uiso   1.00
C583   C     0.79726   0.81627   0.46090   0.00000  Uiso   1.00
C584   C     0.85605   0.81167   0.04714   0.00000  Uiso   1.00
C585   C     0.75058   0.83252   0.48848   0.00000  Uiso   1.00
C586   C     0.89793   0.78723   0.02325   0.00000  Uiso   1.00
C587   C     0.82863   0.80183   0.48279   0.00000  Uiso   1.00
C588   C     0.81809   0.81433   0.02987   0.00000  Uiso   1.00
C589   C     0.76963   0.82796   0.05806   0.00000  Uiso   1.00
C590   C     0.86998   0.77552   0.45977   0.00000  Uiso   1.00
C591   C     0.73678   0.83707   0.03682   0.00000  Uiso   1.00
C592   C     0.90414   0.76896   0.48028   0.00000  Uiso   1.00
H593   H     0.70029   0.84804   0.05817   0.00000  Uiso   1.00
H594   H     0.93505   0.74847   0.46316   0.00000  Uiso   1.00
H595   H     0.82646   0.85722   0.10247   0.00000  Uiso   1.00
H596   H     0.85117   0.81275   0.39025   0.00000  Uiso   1.00
H597   H     0.68139   0.85455   0.48886   0.00000  Uiso   1.00
H598   H     0.96309   0.75949   0.02640   0.00000  Uiso   1.00
C599   C     0.87765   0.97871   0.23926   0.00000  Uiso   1.00
C600   C     0.78916   0.68798   0.26032   0.00000  Uiso   1.00
H601   H     0.91213   0.96246   0.23072   0.00000  Uiso   1.00
H602   H     0.75467   0.70422   0.26887   0.00000  Uiso   1.00
C603   C     0.87766   0.68801   0.23916   0.00000  Uiso   1.00
C604   C     0.78915   0.97869   0.26040   0.00000  Uiso   1.00
H605   H     0.91215   0.70427   0.23053   0.00000  Uiso   1.00
H606   H     0.75465   0.96244   0.26900   0.00000  Uiso   1.00
C607   C     0.83340   0.70916   0.24977   0.00000  Uiso   1.00
C608   C     0.83338   0.95752   0.24990   0.00000  Uiso   1.00
C609   C     0.98175   0.79902   0.23582   0.00000  Uiso   1.00
C610   C     0.68479   0.86754   0.26452   0.00000  Uiso   1.00
H611   H     0.96843   0.77160   0.22418   0.00000  Uiso   1.00
H612   H     0.69807   0.89491   0.27628   0.00000  Uiso   1.00
C613   C     0.69619   0.79896   0.23608   0.00000  Uiso   1.00
C614   C     0.97022   0.86752   0.26454   0.00000  Uiso   1.00
H615   H     0.71872   0.77143   0.22482   0.00000  Uiso   1.00
H616   H     0.94748   0.89489   0.27630   0.00000  Uiso   1.00
N617   N     0.71426   0.83334   0.25001   0.00000  Uiso   1.00
N618   N     0.95241   0.83332   0.24999   0.00000  Uiso   1.00
N619   N     0.95411   0.78001   0.11250   0.00000  Uiso   1.00
O620   O     0.97728   0.80596   0.12891   0.00000  Uiso   1.00
O621   O     0.96563   0.74076   0.10993   0.00000  Uiso   1.00
N622   N     0.69795   0.85323   0.39830   0.00000  Uiso   1.00
O623   O     0.68089   0.82440   0.37907   0.00000  Uiso   1.00
O624   O     0.67495   0.88861   0.40919   0.00000  Uiso   1.00
N625   N     0.75079   0.82668   0.10857   0.00000  Uiso   1.00
O626   O     0.75711   0.79352   0.12984   0.00000  Uiso   1.00
O627   O     0.72272   0.85642   0.13329   0.00000  Uiso   1.00
N628   N     0.87421   0.75047   0.41964   0.00000  Uiso   1.00
O629   O     0.83591   0.73135   0.41840   0.00000  Uiso   1.00
O630   O     0.91720   0.74203   0.38758   0.00000  Uiso   1.00
O631   O     0.12846   0.22775   0.75000   0.00000  Uiso   1.00
O632   O     0.20488   0.10558   0.74999   0.00000  Uiso   1.00
O633   O     0.20490   0.22774   0.75000   0.00000  Uiso   1.00
O634   O     0.12843   0.10559   0.75000   0.00000  Uiso   1.00
C635   C     0.16669   0.24670   0.74999   0.00000  Uiso   1.00
C636   C     0.16669   0.08664   0.74990   0.00000  Uiso   1.00
O637   O     0.10661   0.16667   0.81612   0.00000  Uiso   1.00
O638   O     0.22672   0.16666   0.68387   0.00000  Uiso   1.00
O639   O     0.18305   0.16666   0.81612   0.00000  Uiso   1.00
O640   O     0.15028   0.16667   0.68388   0.00000  Uiso   1.00
C641   C     0.13569   0.16660   0.83848   0.00000  Uiso   1.00
C642   C     0.19763   0.16511   0.66160   0.00000  Uiso   1.00
Zn643  Zn    0.11562   0.16667   0.75000   0.00000  Uiso   1.00
Zn644  Zn    0.21771   0.16666   0.75000   0.00000  Uiso   1.00
C645   C     0.11505   0.16466   0.89023   0.00000  Uiso   1.00
C646   C     0.21724   0.15584   0.61088   0.00000  Uiso   1.00
C647   C     0.05147   0.17742   0.96734   0.00000  Uiso   1.00
C648   C     0.26518   0.11289   0.54395   0.00000  Uiso   1.00
C649   C     0.06606   0.17568   0.91840   0.00000  Uiso   1.00
C650   C     0.25722   0.12843   0.58889   0.00000  Uiso   1.00
C651   C     0.14653   0.15222   0.91194   0.00000  Uiso   1.00
C652   C     0.18721   0.16677   0.58721   0.00000  Uiso   1.00
C653   C     0.13059   0.14961   0.96090   0.00000  Uiso   1.00
C654   C     0.18939   0.14500   0.54714   0.00000  Uiso   1.00
C655   C     0.08391   0.16585   0.98848   0.00000  Uiso   1.00
C656   C     0.23127   0.12057   0.52325   0.00000  Uiso   1.00
C657   C     0.16196   0.13516   0.98279   0.00000  Uiso   1.00
C658   C     0.15143   0.14766   0.52987   0.00000  Uiso   1.00
C659   C     0.10296   0.16130   0.55806   0.00000  Uiso   1.00
C660   C     0.20331   0.10886   0.95977   0.00000  Uiso   1.00
C661   C     0.07011   0.17041   0.53682   0.00000  Uiso   1.00
C662   C     0.23747   0.10230   0.98028   0.00000  Uiso   1.00
H663   H     0.03362   0.18138   0.55817   0.00000  Uiso   1.00
H664   H     0.26839   0.08180   0.96316   0.00000  Uiso   1.00
H665   H     0.15979   0.19056   0.60247   0.00000  Uiso   1.00
H666   H     0.18451   0.14609   0.89025   0.00000  Uiso   1.00
H667   H     0.01472   0.18788   0.98886   0.00000  Uiso   1.00
H668   H     0.29642   0.09283   0.52640   0.00000  Uiso   1.00
C669   C     0.21098   0.31204   0.73926   0.00000  Uiso   1.00
C670   C     0.12249   0.02131   0.76032   0.00000  Uiso   1.00
H671   H     0.24546   0.29579   0.73072   0.00000  Uiso   1.00
H672   H     0.08800   0.03755   0.76887   0.00000  Uiso   1.00
C673   C     0.21099   0.02134   0.73916   0.00000  Uiso   1.00
C674   C     0.12248   0.31202   0.76040   0.00000  Uiso   1.00
H675   H     0.24548   0.03760   0.73053   0.00000  Uiso   1.00
H676   H     0.08799   0.29577   0.76900   0.00000  Uiso   1.00
C677   C     0.16673   0.04249   0.74977   0.00000  Uiso   1.00
C678   C     0.16672   0.29085   0.74990   0.00000  Uiso   1.00
C679   C     0.31508   0.13235   0.73582   0.00000  Uiso   1.00
C680   C     0.01812   0.20088   0.76452   0.00000  Uiso   1.00
H681   H     0.30176   0.10493   0.72418   0.00000  Uiso   1.00
H682   H     0.03140   0.22824   0.77628   0.00000  Uiso   1.00
C683   C     0.02952   0.13229   0.73608   0.00000  Uiso   1.00
C684   C     0.30355   0.20086   0.76454   0.00000  Uiso   1.00
H685   H     0.05205   0.10476   0.72482   0.00000  Uiso   1.00
H686   H     0.28081   0.22822   0.77630   0.00000  Uiso   1.00
N687   N     0.04759   0.16668   0.75001   0.00000  Uiso   1.00
N688   N     0.28574   0.16666   0.74999   0.00000  Uiso   1.00
N689   N     0.28745   0.11334   0.61250   0.00000  Uiso   1.00
O690   O     0.31062   0.13929   0.62891   0.00000  Uiso   1.00
O691   O     0.29897   0.07409   0.60993   0.00000  Uiso   1.00
N692   N     0.03128   0.18656   0.89830   0.00000  Uiso   1.00
O693   O     0.01422   0.15773   0.87907   0.00000  Uiso   1.00
O694   O     0.00828   0.22194   0.90919   0.00000  Uiso   1.00
N695   N     0.08412   0.16002   0.60857   0.00000  Uiso   1.00
O696   O     0.09045   0.12685   0.62984   0.00000  Uiso   1.00
O697   O     0.05605   0.18975   0.63329   0.00000  Uiso   1.00
N698   N     0.20754   0.08381   0.91964   0.00000  Uiso   1.00
O699   O     0.16924   0.06468   0.91840   0.00000  Uiso   1.00
O700   O     0.25053   0.07536   0.88758   0.00000  Uiso   1.00
O701   O     0.46179   0.22775   0.75000   0.00000  Uiso   1.00
O702   O     0.53821   0.10558   0.74999   0.00000  Uiso   1.00
O703   O     0.53823   0.22774   0.75000   0.00000  Uiso   1.00
O704   O     0.46177   0.10559   0.75000   0.00000  Uiso   1.00
C705   C     0.50002   0.24670   0.74999   0.00000  Uiso   1.00
C706   C     0.50002   0.08664   0.74990   0.00000  Uiso   1.00
O707   O     0.43994   0.16667   0.81612   0.00000  Uiso   1.00
O708   O     0.56006   0.16666   0.68387   0.00000  Uiso   1.00
O709   O     0.51639   0.16666   0.81612   0.00000  Uiso   1.00
O710   O     0.48361   0.16667   0.68388   0.00000  Uiso   1.00
C711   C     0.46902   0.16660   0.83848   0.00000  Uiso   1.00
C712   C     0.53096   0.16511   0.66160   0.00000  Uiso   1.00
Zn713  Zn    0.44896   0.16667   0.75000   0.00000  Uiso   1.00
Zn714  Zn    0.55104   0.16666   0.75000   0.00000  Uiso   1.00
C715   C     0.44838   0.16466   0.89023   0.00000  Uiso   1.00
C716   C     0.55057   0.15584   0.61088   0.00000  Uiso   1.00
C717   C     0.38481   0.17742   0.96734   0.00000  Uiso   1.00
C718   C     0.59851   0.11289   0.54395   0.00000  Uiso   1.00
C719   C     0.39939   0.17568   0.91840   0.00000  Uiso   1.00
C720   C     0.59055   0.12843   0.58889   0.00000  Uiso   1.00
C721   C     0.47987   0.15222   0.91194   0.00000  Uiso   1.00
C722   C     0.52055   0.16677   0.58721   0.00000  Uiso   1.00
C723   C     0.46393   0.14961   0.96090   0.00000  Uiso   1.00
C724   C     0.52272   0.14500   0.54714   0.00000  Uiso   1.00
C725   C     0.41725   0.16585   0.98848   0.00000  Uiso   1.00
C726   C     0.56460   0.12057   0.52325   0.00000  Uiso   1.00
C727   C     0.49530   0.13516   0.98279   0.00000  Uiso   1.00
C728   C     0.48476   0.14766   0.52987   0.00000  Uiso   1.00
C729   C     0.43630   0.16130   0.55806   0.00000  Uiso   1.00
C730   C     0.53664   0.10886   0.95977   0.00000  Uiso   1.00
C731   C     0.40344   0.17041   0.53682   0.00000  Uiso   1.00
C732   C     0.57080   0.10230   0.98028   0.00000  Uiso   1.00
H733   H     0.36695   0.18138   0.55817   0.00000  Uiso   1.00
H734   H     0.60172   0.08180   0.96316   0.00000  Uiso   1.00
H735   H     0.49313   0.19056   0.60247   0.00000  Uiso   1.00
H736   H     0.51784   0.14609   0.89025   0.00000  Uiso   1.00
H737   H     0.34806   0.18788   0.98886   0.00000  Uiso   1.00
H738   H     0.62976   0.09283   0.52640   0.00000  Uiso   1.00
C739   C     0.54431   0.31204   0.73926   0.00000  Uiso   1.00
C740   C     0.45582   0.02131   0.76032   0.00000  Uiso   1.00
H741   H     0.57879   0.29579   0.73072   0.00000  Uiso   1.00
H742   H     0.42133   0.03755   0.76887   0.00000  Uiso   1.00
C743   C     0.54432   0.02134   0.73916   0.00000  Uiso   1.00
C744   C     0.45581   0.31202   0.76040   0.00000  Uiso   1.00
H745   H     0.57882   0.03760   0.73053   0.00000  Uiso   1.00
H746   H     0.42132   0.29577   0.76900   0.00000  Uiso   1.00
C747   C     0.50007   0.04249   0.74977   0.00000  Uiso   1.00
C748   C     0.50005   0.29085   0.74990   0.00000  Uiso   1.00
C749   C     0.64842   0.13235   0.73582   0.00000  Uiso   1.00
C750   C     0.35145   0.20088   0.76452   0.00000  Uiso   1.00
H751   H     0.63510   0.10493   0.72418   0.00000  Uiso   1.00
H752   H     0.36474   0.22824   0.77628   0.00000  Uiso   1.00
C753   C     0.36286   0.13229   0.73608   0.00000  Uiso   1.00
C754   C     0.63688   0.20086   0.76454   0.00000  Uiso   1.00
H755   H     0.38539   0.10476   0.72482   0.00000  Uiso   1.00
H756   H     0.61414   0.22822   0.77630   0.00000  Uiso   1.00
N757   N     0.38093   0.16668   0.75001   0.00000  Uiso   1.00
N758   N     0.61907   0.16666   0.74999   0.00000  Uiso   1.00
N759   N     0.62078   0.11334   0.61250   0.00000  Uiso   1.00
O760   O     0.64395   0.13929   0.62891   0.00000  Uiso   1.00
O761   O     0.63230   0.07409   0.60993   0.00000  Uiso   1.00
N762   N     0.36461   0.18656   0.89830   0.00000  Uiso   1.00
O763   O     0.34755   0.15773   0.87907   0.00000  Uiso   1.00
O764   O     0.34161   0.22194   0.90919   0.00000  Uiso   1.00
N765   N     0.41746   0.16002   0.60857   0.00000  Uiso   1.00
O766   O     0.42378   0.12685   0.62984   0.00000  Uiso   1.00
O767   O     0.38939   0.18975   0.63329   0.00000  Uiso   1.00
N768   N     0.54087   0.08381   0.91964   0.00000  Uiso   1.00
O769   O     0.50257   0.06468   0.91840   0.00000  Uiso   1.00
O770   O     0.58386   0.07536   0.88758   0.00000  Uiso   1.00
O771   O     0.79512   0.22775   0.75000   0.00000  Uiso   1.00
O772   O     0.87154   0.10558   0.74999   0.00000  Uiso   1.00
O773   O     0.87157   0.22774   0.75000   0.00000  Uiso   1.00
O774   O     0.79510   0.10559   0.75000   0.00000  Uiso   1.00
C775   C     0.83335   0.24670   0.74999   0.00000  Uiso   1.00
C776   C     0.83336   0.08664   0.74990   0.00000  Uiso   1.00
O777   O     0.77328   0.16667   0.81612   0.00000  Uiso   1.00
O778   O     0.89339   0.16666   0.68387   0.00000  Uiso   1.00
O779   O     0.84972   0.16666   0.81612   0.00000  Uiso   1.00
O780   O     0.81695   0.16667   0.68388   0.00000  Uiso   1.00
C781   C     0.80235   0.16660   0.83848   0.00000  Uiso   1.00
C782   C     0.86430   0.16511   0.66160   0.00000  Uiso   1.00
Zn783  Zn    0.78229   0.16667   0.75000   0.00000  Uiso   1.00
Zn784  Zn    0.88438   0.16666   0.75000   0.00000  Uiso   1.00
C785   C     0.78172   0.16466   0.89023   0.00000  Uiso   1.00
C786   C     0.88390   0.15584   0.61088   0.00000  Uiso   1.00
C787   C     0.71814   0.17742   0.96734   0.00000  Uiso   1.00
C788   C     0.93185   0.11289   0.54395   0.00000  Uiso   1.00
C789   C     0.73273   0.17568   0.91840   0.00000  Uiso   1.00
C790   C     0.92389   0.12843   0.58889   0.00000  Uiso   1.00
C791   C     0.81320   0.15222   0.91194   0.00000  Uiso   1.00
C792   C     0.85388   0.16677   0.58721   0.00000  Uiso   1.00
C793   C     0.79726   0.14961   0.96090   0.00000  Uiso   1.00
C794   C     0.85605   0.14500   0.54714   0.00000  Uiso   1.00
C795   C     0.75058   0.16585   0.98848   0.00000  Uiso   1.00
C796   C     0.89793   0.12057   0.52325   0.00000  Uiso   1.00
C797   C     0.82863   0.13516   0.98279   0.00000  Uiso   1.00
C798   C     0.81809   0.14766   0.52987   0.00000  Uiso   1.00
C799   C     0.76963   0.16130   0.55806   0.00000  Uiso   1.00
C800   C     0.86998   0.10886   0.95977   0.00000  Uiso   1.00
C801   C     0.73678   0.17041   0.53682   0.00000  Uiso   1.00
C802   C     0.90414   0.10230   0.98028   0.00000  Uiso   1.00
H803   H     0.70029   0.18138   0.55817   0.00000  Uiso   1.00
H804   H     0.93505   0.08180   0.96316   0.00000  Uiso   1.00
H805   H     0.82646   0.19056   0.60247   0.00000  Uiso   1.00
H806   H     0.85117   0.14609   0.89025   0.00000  Uiso   1.00
H807   H     0.68139   0.18788   0.98886   0.00000  Uiso   1.00
H808   H     0.96309   0.09283   0.52640   0.00000  Uiso   1.00
C809   C     0.87765   0.31204   0.73926   0.00000  Uiso   1.00
C810   C     0.78916   0.02131   0.76032   0.00000  Uiso   1.00
H811   H     0.91213   0.29579   0.73072   0.00000  Uiso   1.00
H812   H     0.75467   0.03755   0.76887   0.00000  Uiso   1.00
C813   C     0.87766   0.02134   0.73916   0.00000  Uiso   1.00
C814   C     0.78915   0.31202   0.76040   0.00000  Uiso   1.00
H815   H     0.91215   0.03760   0.73053   0.00000  Uiso   1.00
H816   H     0.75465   0.29577   0.76900   0.00000  Uiso   1.00
C817   C     0.83340   0.04249   0.74977   0.00000  Uiso   1.00
C818   C     0.83338   0.29085   0.74990   0.00000  Uiso   1.00
C819   C     0.98175   0.13235   0.73582   0.00000  Uiso   1.00
C820   C     0.68479   0.20088   0.76452   0.00000  Uiso   1.00
H821   H     0.96843   0.10493   0.72418   0.00000  Uiso   1.00
H822   H     0.69807   0.22824   0.77628   0.00000  Uiso   1.00
C823   C     0.69619   0.13229   0.73608   0.00000  Uiso   1.00
C824   C     0.97022   0.20086   0.76454   0.00000  Uiso   1.00
H825   H     0.71872   0.10476   0.72482   0.00000  Uiso   1.00
H826   H     0.94748   0.22822   0.77630   0.00000  Uiso   1.00
N827   N     0.71426   0.16668   0.75001   0.00000  Uiso   1.00
N828   N     0.95241   0.16666   0.74999   0.00000  Uiso   1.00
N829   N     0.95411   0.11334   0.61250   0.00000  Uiso   1.00
O830   O     0.97728   0.13929   0.62891   0.00000  Uiso   1.00
O831   O     0.96563   0.07409   0.60993   0.00000  Uiso   1.00
N832   N     0.69795   0.18656   0.89830   0.00000  Uiso   1.00
O833   O     0.68089   0.15773   0.87907   0.00000  Uiso   1.00
O834   O     0.67495   0.22194   0.90919   0.00000  Uiso   1.00
N835   N     0.75079   0.16002   0.60857   0.00000  Uiso   1.00
O836   O     0.75711   0.12685   0.62984   0.00000  Uiso   1.00
O837   O     0.72272   0.18975   0.63329   0.00000  Uiso   1.00
N838   N     0.87421   0.08381   0.91964   0.00000  Uiso   1.00
O839   O     0.83591   0.06468   0.91840   0.00000  Uiso   1.00
O840   O     0.91720   0.07536   0.88758   0.00000  Uiso   1.00
O841   O     0.12846   0.56108   0.75000   0.00000  Uiso   1.00
O842   O     0.20488   0.43892   0.74999   0.00000  Uiso   1.00
O843   O     0.20490   0.56107   0.75000   0.00000  Uiso   1.00
O844   O     0.12843   0.43893   0.75000   0.00000  Uiso   1.00
C845   C     0.16669   0.58003   0.74999   0.00000  Uiso   1.00
C846   C     0.16669   0.41997   0.74990   0.00000  Uiso   1.00
O847   O     0.10661   0.50001   0.81612   0.00000  Uiso   1.00
O848   O     0.22672   0.49999   0.68387   0.00000  Uiso   1.00
O849   O     0.18305   0.50000   0.81612   0.00000  Uiso   1.00
O850   O     0.15028   0.50000   0.68388   0.00000  Uiso   1.00
C851   C     0.13569   0.49994   0.83848   0.00000  Uiso   1.00
C852   C     0.19763   0.49844   0.66160   0.00000  Uiso   1.00
Zn853  Zn    0.11562   0.50001   0.75000   0.00000  Uiso   1.00
Zn854  Zn    0.21771   0.49999   0.75000   0.00000  Uiso   1.00
C855   C     0.11505   0.49800   0.89023   0.00000  Uiso   1.00
C856   C     0.21724   0.48917   0.61088   0.00000  Uiso   1.00
C857   C     0.05147   0.51076   0.96734   0.00000  Uiso   1.00
C858   C     0.26518   0.44622   0.54395   0.00000  Uiso   1.00
C859   C     0.06606   0.50901   0.91840   0.00000  Uiso   1.00
C860   C     0.25722   0.46177   0.58889   0.00000  Uiso   1.00
C861   C     0.14653   0.48556   0.91194   0.00000  Uiso   1.00
C862   C     0.18721   0.50011   0.58721   0.00000  Uiso   1.00
C863   C     0.13059   0.48294   0.96090   0.00000  Uiso   1.00
C864   C     0.18939   0.47833   0.54714   0.00000  Uiso   1.00
C865   C     0.08391   0.49919   0.98848   0.00000  Uiso   1.00
C866   C     0.23127   0.45390   0.52325   0.00000  Uiso   1.00
C867   C     0.16196   0.46849   0.98279   0.00000  Uiso   1.00
C868   C     0.15143   0.48100   0.52987   0.00000  Uiso   1.00
C869   C     0.10296   0.49463   0.55806   0.00000  Uiso   1.00
C870   C     0.20331   0.44219   0.95977   0.00000  Uiso   1.00
C871   C     0.07011   0.50374   0.53682   0.00000  Uiso   1.00
C872   C     0.23747   0.43563   0.98028   0.00000  Uiso   1.00
H873   H     0.03362   0.51471   0.55817   0.00000  Uiso   1.00
H874   H     0.26839   0.41513   0.96316   0.00000  Uiso   1.00
H875   H     0.15979   0.52389   0.60247   0.00000  Uiso   1.00
H876   H     0.18451   0.47942   0.89025   0.00000  Uiso   1.00
H877   H     0.01472   0.52121   0.98886   0.00000  Uiso   1.00
H878   H     0.29642   0.42616   0.52640   0.00000  Uiso   1.00
C879   C     0.21098   0.64537   0.73926   0.00000  Uiso   1.00
C880   C     0.12249   0.35464   0.76032   0.00000  Uiso   1.00
H881   H     0.24546   0.62913   0.73072   0.00000  Uiso   1.00
H882   H     0.08800   0.37088   0.76887   0.00000  Uiso   1.00
C883   C     0.21099   0.35467   0.73916   0.00000  Uiso   1.00
C884   C     0.12248   0.64535   0.76040   0.00000  Uiso   1.00
H885   H     0.24548   0.37093   0.73053   0.00000  Uiso   1.00
H886   H     0.08799   0.62910   0.76900   0.00000  Uiso   1.00
C887   C     0.16673   0.37583   0.74977   0.00000  Uiso   1.00
C888   C     0.16672   0.62419   0.74990   0.00000  Uiso   1.00
C889   C     0.31508   0.46569   0.73582   0.00000  Uiso   1.00
C890   C     0.01812   0.53421   0.76452   0.00000  Uiso   1.00
H891   H     0.30176   0.43827   0.72418   0.00000  Uiso   1.00
H892   H     0.03140   0.56158   0.77628   0.00000  Uiso   1.00
C893   C     0.02952   0.46562   0.73608   0.00000  Uiso   1.00
C894   C     0.30355   0.53419   0.76454   0.00000  Uiso   1.00
H895   H     0.05205   0.43809   0.72482   0.00000  Uiso   1.00
H896   H     0.28081   0.56156   0.77630   0.00000  Uiso   1.00
N897   N     0.04759   0.50001   0.75001   0.00000  Uiso   1.00
N898   N     0.28574   0.49999   0.74999   0.00000  Uiso   1.00
N899   N     0.28745   0.44668   0.61250   0.00000  Uiso   1.00
O900   O     0.31062   0.47263   0.62891   0.00000  Uiso   1.00
O901   O     0.29897   0.40742   0.60993   0.00000  Uiso   1.00
N902   N     0.03128   0.51990   0.89830   0.00000  Uiso   1.00
O903   O     0.01422   0.49106   0.87907   0.00000  Uiso   1.00
O904   O     0.00828   0.55528   0.90919   0.00000  Uiso   1.00
N905   N     0.08412   0.49335   0.60857   0.00000  Uiso   1.00
O906   O     0.09045   0.46018   0.62984   0.00000  Uiso   1.00
O907   O     0.05605   0.52309   0.63329   0.00000  Uiso   1.00
N908   N     0.20754   0.41714   0.91964   0.00000  Uiso   1.00
O909   O     0.16924   0.39801   0.91840   0.00000  Uiso   1.00
O910   O     0.25053   0.40869   0.88758   0.00000  Uiso   1.00
O911   O     0.46179   0.56108   0.75000   0.00000  Uiso   1.00
O912   O     0.53821   0.43892   0.74999   0.00000  Uiso   1.00
O913   O     0.53823   0.56107   0.75000   0.00000  Uiso   1.00
O914   O     0.46177   0.43893   0.75000   0.00000  Uiso   1.00
C915   C     0.50002   0.58003   0.74999   0.00000  Uiso   1.00
C916   C     0.50002   0.41997   0.74990   0.00000  Uiso   1.00
O917   O     0.43994   0.50001   0.81612   0.00000  Uiso   1.00
O918   O     0.56006   0.49999   0.68387   0.00000  Uiso   1.00
O919   O     0.51639   0.50000   0.81612   0.00000  Uiso   1.00
O920   O     0.48361   0.50000   0.68388   0.00000  Uiso   1.00
C921   C     0.46902   0.49994   0.83848   0.00000  Uiso   1.00
C922   C     0.53096   0.49844   0.66160   0.00000  Uiso   1.00
Zn923  Zn    0.44896   0.50001   0.75000   0.00000  Uiso   1.00
Zn924  Zn    0.55104   0.49999   0.75000   0.00000  Uiso   1.00
C925   C     0.44838   0.49800   0.89023   0.00000  Uiso   1.00
C926   C     0.55057   0.48917   0.61088   0.00000  Uiso   1.00
C927   C     0.38481   0.51076   0.96734   0.00000  Uiso   1.00
C928   C     0.59851   0.44622   0.54395   0.00000  Uiso   1.00
C929   C     0.39939   0.50901   0.91840   0.00000  Uiso   1.00
C930   C     0.59055   0.46177   0.58889   0.00000  Uiso   1.00
C931   C     0.47987   0.48556   0.91194   0.00000  Uiso   1.00
C932   C     0.52055   0.50011   0.58721   0.00000  Uiso   1.00
C933   C     0.46393   0.48294   0.96090   0.00000  Uiso   1.00
C934   C     0.52272   0.47833   0.54714   0.00000  Uiso   1.00
C935   C     0.41725   0.49919   0.98848   0.00000  Uiso   1.00
C936   C     0.56460   0.45390   0.52325   0.00000  Uiso   1.00
C937   C     0.49530   0.46849   0.98279   0.00000  Uiso   1.00
C938   C     0.48476   0.48100   0.52987   0.00000  Uiso   1.00
C939   C     0.43630   0.49463   0.55806   0.00000  Uiso   1.00
C940   C     0.53664   0.44219   0.95977   0.00000  Uiso   1.00
C941   C     0.40344   0.50374   0.53682   0.00000  Uiso   1.00
C942   C     0.57080   0.43563   0.98028   0.00000  Uiso   1.00
H943   H     0.36695   0.51471   0.55817   0.00000  Uiso   1.00
H944   H     0.60172   0.41513   0.96316   0.00000  Uiso   1.00
H945   H     0.49313   0.52389   0.60247   0.00000  Uiso   1.00
H946   H     0.51784   0.47942   0.89025   0.00000  Uiso   1.00
H947   H     0.34806   0.52121   0.98886   0.00000  Uiso   1.00
H948   H     0.62976   0.42616   0.52640   0.00000  Uiso   1.00
C949   C     0.54431   0.64537   0.73926   0.00000  Uiso   1.00
C950   C     0.45582   0.35464   0.76032   0.00000  Uiso   1.00
H951   H     0.57879   0.62913   0.73072   0.00000  Uiso   1.00
H952   H     0.42133   0.37088   0.76887   0.00000  Uiso   1.00
C953   C     0.54432   0.35467   0.73916   0.00000  Uiso   1.00
C954   C     0.45581   0.64535   0.76040   0.00000  Uiso   1.00
H955   H     0.57882   0.37093   0.73053   0.00000  Uiso   1.00
H956   H     0.42132   0.62910   0.76900   0.00000  Uiso   1.00
C957   C     0.50007   0.37583   0.74977   0.00000  Uiso   1.00
C958   C     0.50005   0.62419   0.74990   0.00000  Uiso   1.00
C959   C     0.64842   0.46569   0.73582   0.00000  Uiso   1.00
C960   C     0.35145   0.53421   0.76452   0.00000  Uiso   1.00
H961   H     0.63510   0.43827   0.72418   0.00000  Uiso   1.00
H962   H     0.36474   0.56158   0.77628   0.00000  Uiso   1.00
C963   C     0.36286   0.46562   0.73608   0.00000  Uiso   1.00
C964   C     0.63688   0.53419   0.76454   0.00000  Uiso   1.00
H965   H     0.38539   0.43809   0.72482   0.00000  Uiso   1.00
H966   H     0.61414   0.56156   0.77630   0.00000  Uiso   1.00
N967   N     0.38093   0.50001   0.75001   0.00000  Uiso   1.00
N968   N     0.61907   0.49999   0.74999   0.00000  Uiso   1.00
N969   N     0.62078   0.44668   0.61250   0.00000  Uiso   1.00
O970   O     0.64395   0.47263   0.62891   0.00000  Uiso   1.00
O971   O     0.63230   0.40742   0.60993   0.00000  Uiso   1.00
N972   N     0.36461   0.51990   0.89830   0.00000  Uiso   1.00
O973   O     0.34755   0.49106   0.87907   0.00000  Uiso   1.00
O974   O     0.34161   0.55528   0.90919   0.00000  Uiso   1.00
N975   N     0.41746   0.49335   0.60857   0.00000  Uiso   1.00
O976   O     0.42378   0.46018   0.62984   0.00000  Uiso   1.00
O977   O     0.38939   0.52309   0.63329   0.00000  Uiso   1.00
N978   N     0.54087   0.41714   0.91964   0.00000  Uiso   1.00
O979   O     0.50257   0.39801   0.91840   0.00000  Uiso   1.00
O980   O     0.58386   0.40869   0.88758   0.00000  Uiso   1.00
O981   O     0.79512   0.56108   0.75000   0.00000  Uiso   1.00
O982   O     0.87154   0.43892   0.74999   0.00000  Uiso   1.00
O983   O     0.87157   0.56107   0.75000   0.00000  Uiso   1.00
O984   O     0.79510   0.43893   0.75000   0.00000  Uiso   1.00
C985   C     0.83335   0.58003   0.74999   0.00000  Uiso   1.00
C986   C     0.83336   0.41997   0.74990   0.00000  Uiso   1.00
O987   O     0.77328   0.50001   0.81612   0.00000  Uiso   1.00
O988   O     0.89339   0.49999   0.68387   0.00000  Uiso   1.00
O989   O     0.84972   0.50000   0.81612   0.00000  Uiso   1.00
O990   O     0.81695   0.50000   0.68388   0.00000  Uiso   1.00
C991   C     0.80235   0.49994   0.83848   0.00000  Uiso   1.00
C992   C     0.86430   0.49844   0.66160   0.00000  Uiso   1.00
Zn993  Zn    0.78229   0.50001   0.75000   0.00000  Uiso   1.00
Zn994  Zn    0.88438   0.49999   0.75000   0.00000  Uiso   1.00
C995   C     0.78172   0.49800   0.89023   0.00000  Uiso   1.00
C996   C     0.88390   0.48917   0.61088   0.00000  Uiso   1.00
C997   C     0.71814   0.51076   0.96734   0.00000  Uiso   1.00
C998   C     0.93185   0.44622   0.54395   0.00000  Uiso   1.00
C999   C     0.73273   0.50901   0.91840   0.00000  Uiso   1.00
C1000  C     0.92389   0.46177   0.58889   0.00000  Uiso   1.00
C1001  C     0.81320   0.48556   0.91194   0.00000  Uiso   1.00
C1002  C     0.85388   0.50011   0.58721   0.00000  Uiso   1.00
C1003  C     0.79726   0.48294   0.96090   0.00000  Uiso   1.00
C1004  C     0.85605   0.47833   0.54714   0.00000  Uiso   1.00
C1005  C     0.75058   0.49919   0.98848   0.00000  Uiso   1.00
C1006  C     0.89793   0.45390   0.52325   0.00000  Uiso   1.00
C1007  C     0.82863   0.46849   0.98279   0.00000  Uiso   1.00
C1008  C     0.81809   0.48100   0.52987   0.00000  Uiso   1.00
C1009  C     0.76963   0.49463   0.55806   0.00000  Uiso   1.00
C1010  C     0.86998   0.44219   0.95977   0.00000  Uiso   1.00
C1011  C     0.73678   0.50374   0.53682   0.00000  Uiso   1.00
C1012  C     0.90414   0.43563   0.98028   0.00000  Uiso   1.00
H1013  H     0.70029   0.51471   0.55817   0.00000  Uiso   1.00
H1014  H     0.93505   0.41513   0.96316   0.00000  Uiso   1.00
H1015  H     0.82646   0.52389   0.60247   0.00000  Uiso   1.00
H1016  H     0.85117   0.47942   0.89025   0.00000  Uiso   1.00
H1017  H     0.68139   0.52121   0.98886   0.00000  Uiso   1.00
H1018  H     0.96309   0.42616   0.52640   0.00000  Uiso   1.00
C1019  C     0.87765   0.64537   0.73926   0.00000  Uiso   1.00
C1020  C     0.78916   0.35464   0.76032   0.00000  Uiso   1.00
H1021  H     0.91213   0.62913   0.73072   0.00000  Uiso   1.00
H1022  H     0.75467   0.37088   0.76887   0.00000  Uiso   1.00
C1023  C     0.87766   0.35467   0.73916   0.00000  Uiso   1.00
C1024  C     0.78915   0.64535   0.76040   0.00000  Uiso   1.00
H1025  H     0.91215   0.37093   0.73053   0.00000  Uiso   1.00
H1026  H     0.75465   0.62910   0.76900   0.00000  Uiso   1.00
C1027  C     0.83340   0.37583   0.74977   0.00000  Uiso   1.00
C1028  C     0.83338   0.62419   0.74990   0.00000  Uiso   1.00
C1029  C     0.98175   0.46569   0.73582   0.00000  Uiso   1.00
C1030  C     0.68479   0.53421   0.76452   0.00000  Uiso   1.00
H1031  H     0.96843   0.43827   0.72418   0.00000  Uiso   1.00
H1032  H     0.69807   0.56158   0.77628   0.00000  Uiso   1.00
C1033  C     0.69619   0.46562   0.73608   0.00000  Uiso   1.00
C1034  C     0.97022   0.53419   0.76454   0.00000  Uiso   1.00
H1035  H     0.71872   0.43809   0.72482   0.00000  Uiso   1.00
H1036  H     0.94748   0.56156   0.77630   0.00000  Uiso   1.00
N1037  N     0.71426   0.50001   0.75001   0.00000  Uiso   1.00
N1038  N     0.95241   0.49999   0.74999   0.00000  Uiso   1.00
N1039  N     0.95411   0.44668   0.61250   0.00000  Uiso   1.00
O1040  O     0.97728   0.47263   0.62891   0.00000  Uiso   1.00
O1041  O     0.96563   0.40742   0.60993   0.00000  Uiso   1.00
N1042  N     0.69795   0.51990   0.89830   0.00000  Uiso   1.00
O1043  O     0.68089   0.49106   0.87907   0.00000  Uiso   1.00
O1044  O     0.67495   0.55528   0.90919   0.00000  Uiso   1.00
N1045  N     0.75079   0.49335   0.60857   0.00000  Uiso   1.00
O1046  O     0.75711   0.46018   0.62984   0.00000  Uiso   1.00
O1047  O     0.72272   0.52309   0.63329   0.00000  Uiso   1.00
N1048  N     0.87421   0.41714   0.91964   0.00000  Uiso   1.00
O1049  O     0.83591   0.39801   0.91840   0.00000  Uiso   1.00
O1050  O     0.91720   0.40869   0.88758   0.00000  Uiso   1.00
O1051  O     0.12846   0.89442   0.75000   0.00000  Uiso   1.00
O1052  O     0.20488   0.77225   0.74999   0.00000  Uiso   1.00
O1053  O     0.20490   0.89441   0.75000   0.00000  Uiso   1.00
O1054  O     0.12843   0.77226   0.75000   0.00000  Uiso   1.00
C1055  C     0.16669   0.91337   0.74999   0.00000  Uiso   1.00
C1056  C     0.16669   0.75331   0.74990   0.00000  Uiso   1.00
O1057  O     0.10661   0.83334   0.81612   0.00000  Uiso   1.00
O1058  O     0.22672   0.83333   0.68387   0.00000  Uiso   1.00
O1059  O     0.18305   0.83333   0.81612   0.00000  Uiso   1.00
O1060  O     0.15028   0.83334   0.68388   0.00000  Uiso   1.00
C1061  C     0.13569   0.83327   0.83848   0.00000  Uiso   1.00
C1062  C     0.19763   0.83177   0.66160   0.00000  Uiso   1.00
Zn1063 Zn    0.11562   0.83334   0.75000   0.00000  Uiso   1.00
Zn1064 Zn    0.21771   0.83333   0.75000   0.00000  Uiso   1.00
C1065  C     0.11505   0.83133   0.89023   0.00000  Uiso   1.00
C1066  C     0.21724   0.82251   0.61088   0.00000  Uiso   1.00
C1067  C     0.05147   0.84409   0.96734   0.00000  Uiso   1.00
C1068  C     0.26518   0.77956   0.54395   0.00000  Uiso   1.00
C1069  C     0.06606   0.84235   0.91840   0.00000  Uiso   1.00
C1070  C     0.25722   0.79510   0.58889   0.00000  Uiso   1.00
C1071  C     0.14653   0.81889   0.91194   0.00000  Uiso   1.00
C1072  C     0.18721   0.83344   0.58721   0.00000  Uiso   1.00
C1073  C     0.13059   0.81627   0.96090   0.00000  Uiso   1.00
C1074  C     0.18939   0.81167   0.54714   0.00000  Uiso   1.00
C1075  C     0.08391   0.83252   0.98848   0.00000  Uiso   1.00
C1076  C     0.23127   0.78723   0.52325   0.00000  Uiso   1.00
C1077  C     0.16196   0.80183   0.98279   0.00000  Uiso   1.00
C1078  C     0.15143   0.81433   0.52987   0.00000  Uiso   1.00
C1079  C     0.10296   0.82796   0.55806   0.00000  Uiso   1.00
C1080  C     0.20331   0.77552   0.95977   0.00000  Uiso   1.00
C1081  C     0.07011   0.83707   0.53682   0.00000  Uiso   1.00
C1082  C     0.23747   0.76896   0.98028   0.00000  Uiso   1.00
H1083  H     0.03362   0.84804   0.55817   0.00000  Uiso   1.00
H1084  H     0.26839   0.74847   0.96316   0.00000  Uiso   1.00
H1085  H     0.15979   0.85722   0.60247   0.00000  Uiso   1.00
H1086  H     0.18451   0.81275   0.89025   0.00000  Uiso   1.00
H1087  H     0.01472   0.85455   0.98886   0.00000  Uiso   1.00
H1088  H     0.29642   0.75949   0.52640   0.00000  Uiso   1.00
C1089  C     0.21098   0.97871   0.73926   0.00000  Uiso   1.00
C1090  C     0.12249   0.68798   0.76032   0.00000  Uiso   1.00
H1091  H     0.24546   0.96246   0.73072   0.00000  Uiso   1.00
H1092  H     0.08800   0.70422   0.76887   0.00000  Uiso   1.00
C1093  C     0.21099   0.68801   0.73916   0.00000  Uiso   1.00
C1094  C     0.12248   0.97869   0.76040   0.00000  Uiso   1.00
H1095  H     0.24548   0.70427   0.73053   0.00000  Uiso   1.00
H1096  H     0.08799   0.96244   0.76900   0.00000  Uiso   1.00
C1097  C     0.16673   0.70916   0.74977   0.00000  Uiso   1.00
C1098  C     0.16672   0.95752   0.74990   0.00000  Uiso   1.00
C1099  C     0.31508   0.79902   0.73582   0.00000  Uiso   1.00
C1100  C     0.01812   0.86754   0.76452   0.00000  Uiso   1.00
H1101  H     0.30176   0.77160   0.72418   0.00000  Uiso   1.00
H1102  H     0.03140   0.89491   0.77628   0.00000  Uiso   1.00
C1103  C     0.02952   0.79896   0.73608   0.00000  Uiso   1.00
C1104  C     0.30355   0.86752   0.76454   0.00000  Uiso   1.00
H1105  H     0.05205   0.77143   0.72482   0.00000  Uiso   1.00
H1106  H     0.28081   0.89489   0.77630   0.00000  Uiso   1.00
N1107  N     0.04759   0.83334   0.75001   0.00000  Uiso   1.00
N1108  N     0.28574   0.83332   0.74999   0.00000  Uiso   1.00
N1109  N     0.28745   0.78001   0.61250   0.00000  Uiso   1.00
O1110  O     0.31062   0.80596   0.62891   0.00000  Uiso   1.00
O1111  O     0.29897   0.74076   0.60993   0.00000  Uiso   1.00
N1112  N     0.03128   0.85323   0.89830   0.00000  Uiso   1.00
O1113  O     0.01422   0.82440   0.87907   0.00000  Uiso   1.00
O1114  O     0.00828   0.88861   0.90919   0.00000  Uiso   1.00
N1115  N     0.08412   0.82668   0.60857   0.00000  Uiso   1.00
O1116  O     0.09045   0.79352   0.62984   0.00000  Uiso   1.00
O1117  O     0.05605   0.85642   0.63329   0.00000  Uiso   1.00
N1118  N     0.20754   0.75047   0.91964   0.00000  Uiso   1.00
O1119  O     0.16924   0.73135   0.91840   0.00000  Uiso   1.00
O1120  O     0.25053   0.74203   0.88758   0.00000  Uiso   1.00
O1121  O     0.46179   0.89442   0.75000   0.00000  Uiso   1.00
O1122  O     0.53821   0.77225   0.74999   0.00000  Uiso   1.00
O1123  O     0.53823   0.89441   0.75000   0.00000  Uiso   1.00
O1124  O     0.46177   0.77226   0.75000   0.00000  Uiso   1.00
C1125  C     0.50002   0.91337   0.74999   0.00000  Uiso   1.00
C1126  C     0.50002   0.75331   0.74990   0.00000  Uiso   1.00
O1127  O     0.43994   0.83334   0.81612   0.00000  Uiso   1.00
O1128  O     0.56006   0.83333   0.68387   0.00000  Uiso   1.00
O1129  O     0.51639   0.83333   0.81612   0.00000  Uiso   1.00
O1130  O     0.48361   0.83334   0.68388   0.00000  Uiso   1.00
C1131  C     0.46902   0.83327   0.83848   0.00000  Uiso   1.00
C1132  C     0.53096   0.83177   0.66160   0.00000  Uiso   1.00
Zn1133 Zn    0.44896   0.83334   0.75000   0.00000  Uiso   1.00
Zn1134 Zn    0.55104   0.83333   0.75000   0.00000  Uiso   1.00
C1135  C     0.44838   0.83133   0.89023   0.00000  Uiso   1.00
C1136  C     0.55057   0.82251   0.61088   0.00000  Uiso   1.00
C1137  C     0.38481   0.84409   0.96734   0.00000  Uiso   1.00
C1138  C     0.59851   0.77956   0.54395   0.00000  Uiso   1.00
C1139  C     0.39939   0.84235   0.91840   0.00000  Uiso   1.00
C1140  C     0.59055   0.79510   0.58889   0.00000  Uiso   1.00
C1141  C     0.47987   0.81889   0.91194   0.00000  Uiso   1.00
C1142  C     0.52055   0.83344   0.58721   0.00000  Uiso   1.00
C1143  C     0.46393   0.81627   0.96090   0.00000  Uiso   1.00
C1144  C     0.52272   0.81167   0.54714   0.00000  Uiso   1.00
C1145  C     0.41725   0.83252   0.98848   0.00000  Uiso   1.00
C1146  C     0.56460   0.78723   0.52325   0.00000  Uiso   1.00
C1147  C     0.49530   0.80183   0.98279   0.00000  Uiso   1.00
C1148  C     0.48476   0.81433   0.52987   0.00000  Uiso   1.00
C1149  C     0.43630   0.82796   0.55806   0.00000  Uiso   1.00
C1150  C     0.53664   0.77552   0.95977   0.00000  Uiso   1.00
C1151  C     0.40344   0.83707   0.53682   0.00000  Uiso   1.00
C1152  C     0.57080   0.76896   0.98028   0.00000  Uiso   1.00
H1153  H     0.36695   0.84804   0.55817   0.00000  Uiso   1.00
H1154  H     0.60172   0.74847   0.96316   0.00000  Uiso   1.00
H1155  H     0.49313   0.85722   0.60247   0.00000  Uiso   1.00
H1156  H     0.51784   0.81275   0.89025   0.00000  Uiso   1.00
H1157  H     0.34806   0.85455   0.98886   0.00000  Uiso   1.00
H1158  H     0.62976   0.75949   0.52640   0.00000  Uiso   1.00
C1159  C     0.54431   0.97871   0.73926   0.00000  Uiso   1.00
C1160  C     0.45582   0.68798   0.76032   0.00000  Uiso   1.00
H1161  H     0.57879   0.96246   0.73072   0.00000  Uiso   1.00
H1162  H     0.42133   0.70422   0.76887   0.00000  Uiso   1.00
C1163  C     0.54432   0.68801   0.73916   0.00000  Uiso   1.00
C1164  C     0.45581   0.97869   0.76040   0.00000  Uiso   1.00
H1165  H     0.57882   0.70427   0.73053   0.00000  Uiso   1.00
H1166  H     0.42132   0.96244   0.76900   0.00000  Uiso   1.00
C1167  C     0.50007   0.70916   0.74977   0.00000  Uiso   1.00
C1168  C     0.50005   0.95752   0.74990   0.00000  Uiso   1.00
C1169  C     0.64842   0.79902   0.73582   0.00000  Uiso   1.00
C1170  C     0.35145   0.86754   0.76452   0.00000  Uiso   1.00
H1171  H     0.63510   0.77160   0.72418   0.00000  Uiso   1.00
H1172  H     0.36474   0.89491   0.77628   0.00000  Uiso   1.00
C1173  C     0.36286   0.79896   0.73608   0.00000  Uiso   1.00
C1174  C     0.63688   0.86752   0.76454   0.00000  Uiso   1.00
H1175  H     0.38539   0.77143   0.72482   0.00000  Uiso   1.00
H1176  H     0.61414   0.89489   0.77630   0.00000  Uiso   1.00
N1177  N     0.38093   0.83334   0.75001   0.00000  Uiso   1.00
N1178  N     0.61907   0.83332   0.74999   0.00000  Uiso   1.00
N1179  N     0.62078   0.78001   0.61250   0.00000  Uiso   1.00
O1180  O     0.64395   0.80596   0.62891   0.00000  Uiso   1.00
O1181  O     0.63230   0.74076   0.60993   0.00000  Uiso   1.00
N1182  N     0.36461   0.85323   0.89830   0.00000  Uiso   1.00
O1183  O     0.34755   0.82440   0.87907   0.00000  Uiso   1.00
O1184  O     0.34161   0.88861   0.90919   0.00000  Uiso   1.00
N1185  N     0.41746   0.82668   0.60857   0.00000  Uiso   1.00
O1186  O     0.42378   0.79352   0.62984   0.00000  Uiso   1.00
O1187  O     0.38939   0.85642   0.63329   0.00000  Uiso   1.00
N1188  N     0.54087   0.75047   0.91964   0.00000  Uiso   1.00
O1189  O     0.50257   0.73135   0.91840   0.00000  Uiso   1.00
O1190  O     0.58386   0.74203   0.88758   0.00000  Uiso   1.00
O1191  O     0.79512   0.89442   0.75000   0.00000  Uiso   1.00
O1192  O     0.87154   0.77225   0.74999   0.00000  Uiso   1.00
O1193  O     0.87157   0.89441   0.75000   0.00000  Uiso   1.00
O1194  O     0.79510   0.77226   0.75000   0.00000  Uiso   1.00
C1195  C     0.83335   0.91337   0.74999   0.00000  Uiso   1.00
C1196  C     0.83336   0.75331   0.74990   0.00000  Uiso   1.00
O1197  O     0.77328   0.83334   0.81612   0.00000  Uiso   1.00
O1198  O     0.89339   0.83333   0.68387   0.00000  Uiso   1.00
O1199  O     0.84972   0.83333   0.81612   0.00000  Uiso   1.00
O1200  O     0.81695   0.83334   0.68388   0.00000  Uiso   1.00
C1201  C     0.80235   0.83327   0.83848   0.00000  Uiso   1.00
C1202  C     0.86430   0.83177   0.66160   0.00000  Uiso   1.00
Zn1203 Zn    0.78229   0.83334   0.75000   0.00000  Uiso   1.00
Zn1204 Zn    0.88438   0.83333   0.75000   0.00000  Uiso   1.00
C1205  C     0.78172   0.83133   0.89023   0.00000  Uiso   1.00
C1206  C     0.88390   0.82251   0.61088   0.00000  Uiso   1.00
C1207  C     0.71814   0.84409   0.96734   0.00000  Uiso   1.00
C1208  C     0.93185   0.77956   0.54395   0.00000  Uiso   1.00
C1209  C     0.73273   0.84235   0.91840   0.00000  Uiso   1.00
C1210  C     0.92389   0.79510   0.58889   0.00000  Uiso   1.00
C1211  C     0.81320   0.81889   0.91194   0.00000  Uiso   1.00
C1212  C     0.85388   0.83344   0.58721   0.00000  Uiso   1.00
C1213  C     0.79726   0.81627   0.96090   0.00000  Uiso   1.00
C1214  C     0.85605   0.81167   0.54714   0.00000  Uiso   1.00
C1215  C     0.75058   0.83252   0.98848   0.00000  Uiso   1.00
C1216  C     0.89793   0.78723   0.52325   0.00000  Uiso   1.00
C1217  C     0.82863   0.80183   0.98279   0.00000  Uiso   1.00
C1218  C     0.81809   0.81433   0.52987   0.00000  Uiso   1.00
C1219  C     0.76963   0.82796   0.55806   0.00000  Uiso   1.00
C1220  C     0.86998   0.77552   0.95977   0.00000  Uiso   1.00
C1221  C     0.73678   0.83707   0.53682   0.00000  Uiso   1.00
C1222  C     0.90414   0.76896   0.98028   0.00000  Uiso   1.00
H1223  H     0.70029   0.84804   0.55817   0.00000  Uiso   1.00
H1224  H     0.93505   0.74847   0.96316   0.00000  Uiso   1.00
H1225  H     0.82646   0.85722   0.60247   0.00000  Uiso   1.00
H1226  H     0.85117   0.81275   0.89025   0.00000  Uiso   1.00
H1227  H     0.68139   0.85455   0.98886   0.00000  Uiso   1.00
H1228  H     0.96309   0.75949   0.52640   0.00000  Uiso   1.00
C1229  C     0.87765   0.97871   0.73926   0.00000  Uiso   1.00
C1230  C     0.78916   0.68798   0.76032   0.00000  Uiso   1.00
H1231  H     0.91213   0.96246   0.73072   0.00000  Uiso   1.00
H1232  H     0.75467   0.70422   0.76887   0.00000  Uiso   1.00
C1233  C     0.87766   0.68801   0.73916   0.00000  Uiso   1.00
C1234  C     0.78915   0.97869   0.76040   0.00000  Uiso   1.00
H1235  H     0.91215   0.70427   0.73053   0.00000  Uiso   1.00
H1236  H     0.75465   0.96244   0.76900   0.00000  Uiso   1.00
C1237  C     0.83340   0.70916   0.74977   0.00000  Uiso   1.00
C1238  C     0.83338   0.95752   0.74990   0.00000  Uiso   1.00
C1239  C     0.98175   0.79902   0.73582   0.00000  Uiso   1.00
C1240  C     0.68479   0.86754   0.76452   0.00000  Uiso   1.00
H1241  H     0.96843   0.77160   0.72418   0.00000  Uiso   1.00
H1242  H     0.69807   0.89491   0.77628   0.00000  Uiso   1.00
C1243  C     0.69619   0.79896   0.73608   0.00000  Uiso   1.00
C1244  C     0.97022   0.86752   0.76454   0.00000  Uiso   1.00
H1245  H     0.71872   0.77143   0.72482   0.00000  Uiso   1.00
H1246  H     0.94748   0.89489   0.77630   0.00000  Uiso   1.00
N1247  N     0.71426   0.83334   0.75001   0.00000  Uiso   1.00
N1248  N     0.95241   0.83332   0.74999   0.00000  Uiso   1.00
N1249  N     0.95411   0.78001   0.61250   0.00000  Uiso   1.00
O1250  O     0.97728   0.80596   0.62891   0.00000  Uiso   1.00
O1251  O     0.96563   0.74076   0.60993   0.00000  Uiso   1.00
N1252  N     0.69795   0.85323   0.89830   0.00000  Uiso   1.00
O1253  O     0.68089   0.82440   0.87907   0.00000  Uiso   1.00
O1254  O     0.67495   0.88861   0.90919   0.00000  Uiso   1.00
N1255  N     0.75079   0.82668   0.60857   0.00000  Uiso   1.00
O1256  O     0.75711   0.79352   0.62984   0.00000  Uiso   1.00
O1257  O     0.72272   0.85642   0.63329   0.00000  Uiso   1.00
N1258  N     0.87421   0.75047   0.91964   0.00000  Uiso   1.00
O1259  O     0.83591   0.73135   0.91840   0.00000  Uiso   1.00
O1260  O     0.91720   0.74203   0.88758   0.00000  Uiso   1.00
loop_
_geom_bond_atom_site_label_1
_geom_bond_atom_site_label_2
_geom_bond_distance
_geom_bond_site_symmetry_2
_ccdc_geom_bond_type
O1     C5      1.284   .     A
O1     Zn13    1.999   .     S
O2     Zn14    1.999   .     S
O2     C6      1.284   .     A
O3     C5      1.284   .     A
O3     Zn14    1.999   .     S
O4     C6      1.284   .     A
O4     Zn13    1.999   .     S
C5     C48     1.419   .     S
C6     C47     1.419   .     S
O7     C11     1.291   .     A
O7     Zn13    1.946   .     S
O8     C12     1.291   .     A
O8     Zn14    1.946   .     S
O9     Zn14    1.891   .     S
O9     C11     1.300   .     A
O10    C12     1.300   .     A
O10    Zn13    1.891   .     S
C11    C15     1.469   .     S
C12    C16     1.470   .     S
Zn13   N57     2.011   .     S
Zn14   N58     2.011   .     S
C15    C21     1.397   .     A
C15    C19     1.416   .     A
C16    C20     1.419   .     A
C16    C22     1.393   .     A
C17    C25     1.400   .     A
C17    C19     1.398   .     A
C17    H37     1.085   .     S
C18    C26     1.401   .     A
C18    H38     1.084   .     S
C18    C20     1.402   .     A
C19    N62     1.433   .     S
C20    N59     1.436   .     S
C21    H36     1.080   .     S
C21    C23     1.396   .     A
C22    H35     1.081   .     S
C22    C24     1.397   .     A
C23    C27     1.418   .     A
C23    C25     1.412   .     A
C24    C26     1.410   .     A
C24    C28     1.417   .     A
C25    C661    1.389   .     S
C26    C662    1.392   1_554 S
C27    C30     1.429   .     A
C27    C658    1.417   .     S
C28    C29     1.427   .     A
C28    C657    1.417   1_554 S
C29    N65     1.434   .     S
C29    C31     1.395   .     A
C30    C32     1.398   .     A
C30    N68     1.438   .     S
C31    H33     1.083   .     S
C31    C655    1.389   1_554 S
C32    H34     1.084   .     S
C32    C656    1.392   .     S
C39    H41     1.084   .     S
C39    C48     1.397   .     A
C39    C253    1.370   .     S
C40    C47     1.397   .     A
C40    H42     1.084   .     S
C40    C464    1.370   1_545 S
C43    H45     1.084   .     S
C43    C47     1.397   .     A
C43    C459    1.370   1_545 S
C44    C48     1.397   .     A
C44    H46     1.084   .     S
C44    C250    1.370   .     S
C49    N58     1.366   .     A
C49    H51     1.081   .     S
C49    C123    1.415   .     S
C50    H52     1.081   .     S
C50    N57     1.366   .     A
C50    C194    1.416   1_455 S
C53    H55     1.081   .     S
C53    N57     1.366   .     A
C53    C189    1.415   1_455 S
C54    H56     1.081   .     S
C54    N58     1.367   .     A
C54    C120    1.416   .     S
N59    O60     1.299   .     A
N59    O61     1.301   .     A
N62    O63     1.301   .     A
N62    O64     1.301   .     A
N65    O66     1.301   .     A
N65    O67     1.301   .     A
N68    O70     1.302   .     A
N68    O69     1.302   .     A
O71    C75     1.284   .     A
O71    Zn83    1.999   .     S
O72    Zn84    1.999   .     S
O72    C76     1.284   .     A
O73    C75     1.284   .     A
O73    Zn84    1.999   .     S
O74    C76     1.284   .     A
O74    Zn83    1.999   .     S
C75    C118    1.419   .     S
C76    C117    1.419   .     S
O77    C81     1.291   .     A
O77    Zn83    1.946   .     S
O78    C82     1.291   .     A
O78    Zn84    1.946   .     S
O79    Zn84    1.891   .     S
O79    C81     1.300   .     A
O80    C82     1.300   .     A
O80    Zn83    1.891   .     S
C81    C85     1.469   .     S
C82    C86     1.470   .     S
Zn83   N127    2.011   .     S
Zn84   N128    2.011   .     S
C85    C91     1.397   .     A
C85    C89     1.416   .     A
C86    C90     1.419   .     A
C86    C92     1.393   .     A
C87    C95     1.400   .     A
C87    C89     1.398   .     A
C87    H107    1.085   .     S
C88    C96     1.401   .     A
C88    H108    1.084   .     S
C88    C90     1.402   .     A
C89    N132    1.433   .     S
C90    N129    1.436   .     S
C91    H106    1.080   .     S
C91    C93     1.396   .     A
C92    H105    1.081   .     S
C92    C94     1.397   .     A
C93    C97     1.418   .     A
C93    C95     1.412   .     A
C94    C96     1.410   .     A
C94    C98     1.417   .     A
C95    C731    1.389   .     S
C96    C732    1.392   1_554 S
C97    C100    1.429   .     A
C97    C728    1.417   .     S
C98    C99     1.427   .     A
C98    C727    1.417   1_554 S
C99    N135    1.434   .     S
C99    C101    1.395   .     A
C100   C102    1.398   .     A
C100   N138    1.438   .     S
C101   H103    1.083   .     S
C101   C725    1.389   1_554 S
C102   H104    1.084   .     S
C102   C726    1.392   .     S
C109   H111    1.084   .     S
C109   C118    1.397   .     A
C109   C323    1.370   .     S
C110   C117    1.397   .     A
C110   H112    1.084   .     S
C110   C534    1.370   1_545 S
C113   H115    1.084   .     S
C113   C117    1.397   .     A
C113   C529    1.370   1_545 S
C114   C118    1.397   .     A
C114   H116    1.084   .     S
C114   C320    1.370   .     S
C119   N128    1.366   .     A
C119   H121    1.081   .     S
C119   C193    1.415   .     S
C120   H122    1.081   .     S
C120   N127    1.366   .     A
C123   H125    1.081   .     S
C123   N127    1.366   .     A
C124   H126    1.081   .     S
C124   N128    1.367   .     A
C124   C190    1.416   .     S
N129   O130    1.299   .     A
N129   O131    1.301   .     A
N132   O133    1.301   .     A
N132   O134    1.301   .     A
N135   O136    1.301   .     A
N135   O137    1.301   .     A
N138   O140    1.302   .     A
N138   O139    1.302   .     A
O141   C145    1.284   .     A
O141   Zn153   1.999   .     S
O142   Zn154   1.999   .     S
O142   C146    1.284   .     A
O143   C145    1.284   .     A
O143   Zn154   1.999   .     S
O144   C146    1.284   .     A
O144   Zn153   1.999   .     S
C145   C188    1.419   .     S
C146   C187    1.419   .     S
O147   C151    1.291   .     A
O147   Zn153   1.946   .     S
O148   C152    1.291   .     A
O148   Zn154   1.946   .     S
O149   Zn154   1.891   .     S
O149   C151    1.300   .     A
O150   C152    1.300   .     A
O150   Zn153   1.891   .     S
C151   C155    1.469   .     S
C152   C156    1.470   .     S
Zn153  N197    2.011   .     S
Zn154  N198    2.011   .     S
C155   C161    1.397   .     A
C155   C159    1.416   .     A
C156   C160    1.419   .     A
C156   C162    1.393   .     A
C157   C165    1.400   .     A
C157   C159    1.398   .     A
C157   H177    1.085   .     S
C158   C166    1.401   .     A
C158   H178    1.084   .     S
C158   C160    1.402   .     A
C159   N202    1.433   .     S
C160   N199    1.436   .     S
C161   H176    1.080   .     S
C161   C163    1.396   .     A
C162   H175    1.081   .     S
C162   C164    1.397   .     A
C163   C167    1.418   .     A
C163   C165    1.412   .     A
C164   C166    1.410   .     A
C164   C168    1.417   .     A
C165   C801    1.389   .     S
C166   C802    1.392   1_554 S
C167   C170    1.429   .     A
C167   C798    1.417   .     S
C168   C169    1.427   .     A
C168   C797    1.417   1_554 S
C169   N205    1.434   .     S
C169   C171    1.395   .     A
C170   C172    1.398   .     A
C170   N208    1.438   .     S
C171   H173    1.083   .     S
C171   C795    1.389   1_554 S
C172   H174    1.084   .     S
C172   C796    1.392   .     S
C179   H181    1.084   .     S
C179   C188    1.397   .     A
C179   C393    1.370   .     S
C180   C187    1.397   .     A
C180   H182    1.084   .     S
C180   C604    1.370   1_545 S
C183   H185    1.084   .     S
C183   C187    1.397   .     A
C183   C599    1.370   1_545 S
C184   C188    1.397   .     A
C184   H186    1.084   .     S
C184   C390    1.370   .     S
C189   N198    1.366   .     A
C189   H191    1.081   .     S
C189   C53     1.415   1_655 S
C190   H192    1.081   .     S
C190   N197    1.366   .     A
C193   H195    1.081   .     S
C193   N197    1.366   .     A
C194   H196    1.081   .     S
C194   N198    1.367   .     A
C194   C50     1.416   1_655 S
N199   O200    1.299   .     A
N199   O201    1.301   .     A
N202   O203    1.301   .     A
N202   O204    1.301   .     A
N205   O206    1.301   .     A
N205   O207    1.301   .     A
N208   O210    1.302   .     A
N208   O209    1.302   .     A
O211   C215    1.284   .     A
O211   Zn223   1.999   .     S
O212   Zn224   1.999   .     S
O212   C216    1.284   .     A
O213   C215    1.284   .     A
O213   Zn224   1.999   .     S
O214   C216    1.284   .     A
O214   Zn223   1.999   .     S
C215   C258    1.419   .     S
C216   C257    1.419   .     S
O217   C221    1.291   .     A
O217   Zn223   1.946   .     S
O218   C222    1.291   .     A
O218   Zn224   1.946   .     S
O219   Zn224   1.891   .     S
O219   C221    1.300   .     A
O220   C222    1.300   .     A
O220   Zn223   1.891   .     S
C221   C225    1.469   .     S
C222   C226    1.470   .     S
Zn223  N267    2.011   .     S
Zn224  N268    2.011   .     S
C225   C231    1.397   .     A
C225   C229    1.416   .     A
C226   C230    1.419   .     A
C226   C232    1.393   .     A
C227   C235    1.400   .     A
C227   C229    1.398   .     A
C227   H247    1.085   .     S
C228   C236    1.401   .     A
C228   H248    1.084   .     S
C228   C230    1.402   .     A
C229   N272    1.433   .     S
C230   N269    1.436   .     S
C231   H246    1.080   .     S
C231   C233    1.396   .     A
C232   H245    1.081   .     S
C232   C234    1.397   .     A
C233   C237    1.418   .     A
C233   C235    1.412   .     A
C234   C236    1.410   .     A
C234   C238    1.417   .     A
C235   C871    1.389   .     S
C236   C872    1.392   1_554 S
C237   C240    1.429   .     A
C237   C868    1.417   .     S
C238   C239    1.427   .     A
C238   C867    1.417   1_554 S
C239   N275    1.434   .     S
C239   C241    1.395   .     A
C240   C242    1.398   .     A
C240   N278    1.438   .     S
C241   H243    1.083   .     S
C241   C865    1.389   1_554 S
C242   H244    1.084   .     S
C242   C866    1.392   .     S
C249   H251    1.084   .     S
C249   C258    1.397   .     A
C249   C463    1.370   .     S
C250   C257    1.397   .     A
C250   H252    1.084   .     S
C253   H255    1.084   .     S
C253   C257    1.397   .     A
C254   C258    1.397   .     A
C254   H256    1.084   .     S
C254   C460    1.370   .     S
C259   N268    1.366   .     A
C259   H261    1.081   .     S
C259   C333    1.415   .     S
C260   H262    1.081   .     S
C260   N267    1.366   .     A
C260   C404    1.416   1_455 S
C263   H265    1.081   .     S
C263   N267    1.366   .     A
C263   C399    1.415   1_455 S
C264   H266    1.081   .     S
C264   N268    1.367   .     A
C264   C330    1.416   .     S
N269   O270    1.299   .     A
N269   O271    1.301   .     A
N272   O273    1.301   .     A
N272   O274    1.301   .     A
N275   O276    1.301   .     A
N275   O277    1.301   .     A
N278   O280    1.302   .     A
N278   O279    1.302   .     A
O281   C285    1.284   .     A
O281   Zn293   1.999   .     S
O282   Zn294   1.999   .     S
O282   C286    1.284   .     A
O283   C285    1.284   .     A
O283   Zn294   1.999   .     S
O284   C286    1.284   .     A
O284   Zn293   1.999   .     S
C285   C328    1.419   .     S
C286   C327    1.419   .     S
O287   C291    1.291   .     A
O287   Zn293   1.946   .     S
O288   C292    1.291   .     A
O288   Zn294   1.946   .     S
O289   Zn294   1.891   .     S
O289   C291    1.300   .     A
O290   C292    1.300   .     A
O290   Zn293   1.891   .     S
C291   C295    1.469   .     S
C292   C296    1.470   .     S
Zn293  N337    2.011   .     S
Zn294  N338    2.011   .     S
C295   C301    1.397   .     A
C295   C299    1.416   .     A
C296   C300    1.419   .     A
C296   C302    1.393   .     A
C297   C305    1.400   .     A
C297   C299    1.398   .     A
C297   H317    1.085   .     S
C298   C306    1.401   .     A
C298   H318    1.084   .     S
C298   C300    1.402   .     A
C299   N342    1.433   .     S
C300   N339    1.436   .     S
C301   H316    1.080   .     S
C301   C303    1.396   .     A
C302   H315    1.081   .     S
C302   C304    1.397   .     A
C303   C307    1.418   .     A
C303   C305    1.412   .     A
C304   C306    1.410   .     A
C304   C308    1.417   .     A
C305   C941    1.389   .     S
C306   C942    1.392   1_554 S
C307   C310    1.429   .     A
C307   C938    1.417   .     S
C308   C309    1.427   .     A
C308   C937    1.417   1_554 S
C309   N345    1.434   .     S
C309   C311    1.395   .     A
C310   C312    1.398   .     A
C310   N348    1.438   .     S
C311   H313    1.083   .     S
C311   C935    1.389   1_554 S
C312   H314    1.084   .     S
C312   C936    1.392   .     S
C319   H321    1.084   .     S
C319   C328    1.397   .     A
C319   C533    1.370   .     S
C320   C327    1.397   .     A
C320   H322    1.084   .     S
C323   H325    1.084   .     S
C323   C327    1.397   .     A
C324   C328    1.397   .     A
C324   H326    1.084   .     S
C324   C530    1.370   .     S
C329   N338    1.366   .     A
C329   H331    1.081   .     S
C329   C403    1.415   .     S
C330   H332    1.081   .     S
C330   N337    1.366   .     A
C333   H335    1.081   .     S
C333   N337    1.366   .     A
C334   H336    1.081   .     S
C334   N338    1.367   .     A
C334   C400    1.416   .     S
N339   O340    1.299   .     A
N339   O341    1.301   .     A
N342   O343    1.301   .     A
N342   O344    1.301   .     A
N345   O346    1.301   .     A
N345   O347    1.301   .     A
N348   O350    1.302   .     A
N348   O349    1.302   .     A
O351   C355    1.284   .     A
O351   Zn363   1.999   .     S
O352   Zn364   1.999   .     S
O352   C356    1.284   .     A
O353   C355    1.284   .     A
O353   Zn364   1.999   .     S
O354   C356    1.284   .     A
O354   Zn363   1.999   .     S
C355   C398    1.419   .     S
C356   C397    1.419   .     S
O357   C361    1.291   .     A
O357   Zn363   1.946   .     S
O358   C362    1.291   .     A
O358   Zn364   1.946   .     S
O359   Zn364   1.891   .     S
O359   C361    1.300   .     A
O360   C362    1.300   .     A
O360   Zn363   1.891   .     S
C361   C365    1.469   .     S
C362   C366    1.470   .     S
Zn363  N407    2.011   .     S
Zn364  N408    2.011   .     S
C365   C371    1.397   .     A
C365   C369    1.416   .     A
C366   C370    1.419   .     A
C366   C372    1.393   .     A
C367   C375    1.400   .     A
C367   C369    1.398   .     A
C367   H387    1.085   .     S
C368   C376    1.401   .     A
C368   H388    1.084   .     S
C368   C370    1.402   .     A
C369   N412    1.433   .     S
C370   N409    1.436   .     S
C371   H386    1.080   .     S
C371   C373    1.396   .     A
C372   H385    1.081   .     S
C372   C374    1.397   .     A
C373   C377    1.418   .     A
C373   C375    1.412   .     A
C374   C376    1.410   .     A
C374   C378    1.417   .     A
C375   C1011   1.389   .     S
C376   C1012   1.392   1_554 S
C377   C380    1.429   .     A
C377   C1008   1.417   .     S
C378   C379    1.427   .     A
C378   C1007   1.417   1_554 S
C379   N415    1.434   .     S
C379   C381    1.395   .     A
C380   C382    1.398   .     A
C380   N418    1.438   .     S
C381   H383    1.083   .     S
C381   C1005   1.389   1_554 S
C382   H384    1.084   .     S
C382   C1006   1.392   .     S
C389   H391    1.084   .     S
C389   C398    1.397   .     A
C389   C603    1.370   .     S
C390   C397    1.397   .     A
C390   H392    1.084   .     S
C393   H395    1.084   .     S
C393   C397    1.397   .     A
C394   C398    1.397   .     A
C394   H396    1.084   .     S
C394   C600    1.370   .     S
C399   N408    1.366   .     A
C399   H401    1.081   .     S
C399   C263    1.415   1_655 S
C400   H402    1.081   .     S
C400   N407    1.366   .     A
C403   H405    1.081   .     S
C403   N407    1.366   .     A
C404   H406    1.081   .     S
C404   N408    1.367   .     A
C404   C260    1.416   1_655 S
N409   O410    1.299   .     A
N409   O411    1.301   .     A
N412   O413    1.301   .     A
N412   O414    1.301   .     A
N415   O416    1.301   .     A
N415   O417    1.301   .     A
N418   O420    1.302   .     A
N418   O419    1.302   .     A
O421   C425    1.284   .     A
O421   Zn433   1.999   .     S
O422   Zn434   1.999   .     S
O422   C426    1.284   .     A
O423   C425    1.284   .     A
O423   Zn434   1.999   .     S
O424   C426    1.284   .     A
O424   Zn433   1.999   .     S
C425   C468    1.419   .     S
C426   C467    1.419   .     S
O427   C431    1.291   .     A
O427   Zn433   1.946   .     S
O428   C432    1.291   .     A
O428   Zn434   1.946   .     S
O429   Zn434   1.891   .     S
O429   C431    1.300   .     A
O430   C432    1.300   .     A
O430   Zn433   1.891   .     S
C431   C435    1.469   .     S
C432   C436    1.470   .     S
Zn433  N477    2.011   .     S
Zn434  N478    2.011   .     S
C435   C441    1.397   .     A
C435   C439    1.416   .     A
C436   C440    1.419   .     A
C436   C442    1.393   .     A
C437   C445    1.400   .     A
C437   C439    1.398   .     A
C437   H457    1.085   .     S
C438   C446    1.401   .     A
C438   H458    1.084   .     S
C438   C440    1.402   .     A
C439   N482    1.433   .     S
C440   N479    1.436   .     S
C441   H456    1.080   .     S
C441   C443    1.396   .     A
C442   H455    1.081   .     S
C442   C444    1.397   .     A
C443   C447    1.418   .     A
C443   C445    1.412   .     A
C444   C446    1.410   .     A
C444   C448    1.417   .     A
C445   C1081   1.389   .     S
C446   C1082   1.392   1_554 S
C447   C450    1.429   .     A
C447   C1078   1.417   .     S
C448   C449    1.427   .     A
C448   C1077   1.417   1_554 S
C449   N485    1.434   .     S
C449   C451    1.395   .     A
C450   C452    1.398   .     A
C450   N488    1.438   .     S
C451   H453    1.083   .     S
C451   C1075   1.389   1_554 S
C452   H454    1.084   .     S
C452   C1076   1.392   .     S
C459   H461    1.084   .     S
C459   C468    1.397   .     A
C459   C43     1.370   1_565 S
C460   C467    1.397   .     A
C460   H462    1.084   .     S
C463   H465    1.084   .     S
C463   C467    1.397   .     A
C464   C468    1.397   .     A
C464   H466    1.084   .     S
C464   C40     1.370   1_565 S
C469   N478    1.366   .     A
C469   H471    1.081   .     S
C469   C543    1.415   .     S
C470   H472    1.081   .     S
C470   N477    1.366   .     A
C470   C614    1.416   1_455 S
C473   H475    1.081   .     S
C473   N477    1.366   .     A
C473   C609    1.415   1_455 S
C474   H476    1.081   .     S
C474   N478    1.367   .     A
C474   C540    1.416   .     S
N479   O480    1.299   .     A
N479   O481    1.301   .     A
N482   O483    1.301   .     A
N482   O484    1.301   .     A
N485   O486    1.301   .     A
N485   O487    1.301   .     A
N488   O490    1.302   .     A
N488   O489    1.302   .     A
O491   C495    1.284   .     A
O491   Zn503   1.999   .     S
O492   Zn504   1.999   .     S
O492   C496    1.284   .     A
O493   C495    1.284   .     A
O493   Zn504   1.999   .     S
O494   C496    1.284   .     A
O494   Zn503   1.999   .     S
C495   C538    1.419   .     S
C496   C537    1.419   .     S
O497   C501    1.291   .     A
O497   Zn503   1.946   .     S
O498   C502    1.291   .     A
O498   Zn504   1.946   .     S
O499   Zn504   1.891   .     S
O499   C501    1.300   .     A
O500   C502    1.300   .     A
O500   Zn503   1.891   .     S
C501   C505    1.469   .     S
C502   C506    1.470   .     S
Zn503  N547    2.011   .     S
Zn504  N548    2.011   .     S
C505   C511    1.397   .     A
C505   C509    1.416   .     A
C506   C510    1.419   .     A
C506   C512    1.393   .     A
C507   C515    1.400   .     A
C507   C509    1.398   .     A
C507   H527    1.085   .     S
C508   C516    1.401   .     A
C508   H528    1.084   .     S
C508   C510    1.402   .     A
C509   N552    1.433   .     S
C510   N549    1.436   .     S
C511   H526    1.080   .     S
C511   C513    1.396   .     A
C512   H525    1.081   .     S
C512   C514    1.397   .     A
C513   C517    1.418   .     A
C513   C515    1.412   .     A
C514   C516    1.410   .     A
C514   C518    1.417   .     A
C515   C1151   1.389   .     S
C516   C1152   1.392   1_554 S
C517   C520    1.429   .     A
C517   C1148   1.417   .     S
C518   C519    1.427   .     A
C518   C1147   1.417   1_554 S
C519   N555    1.434   .     S
C519   C521    1.395   .     A
C520   C522    1.398   .     A
C520   N558    1.438   .     S
C521   H523    1.083   .     S
C521   C1145   1.389   1_554 S
C522   H524    1.084   .     S
C522   C1146   1.392   .     S
C529   H531    1.084   .     S
C529   C538    1.397   .     A
C529   C113    1.370   1_565 S
C530   C537    1.397   .     A
C530   H532    1.084   .     S
C533   H535    1.084   .     S
C533   C537    1.397   .     A
C534   C538    1.397   .     A
C534   H536    1.084   .     S
C534   C110    1.370   1_565 S
C539   N548    1.366   .     A
C539   H541    1.081   .     S
C539   C613    1.415   .     S
C540   H542    1.081   .     S
C540   N547    1.366   .     A
C543   H545    1.081   .     S
C543   N547    1.366   .     A
C544   H546    1.081   .     S
C544   N548    1.367   .     A
C544   C610    1.416   .     S
N549   O550    1.299   .     A
N549   O551    1.301   .     A
N552   O553    1.301   .     A
N552   O554    1.301   .     A
N555   O556    1.301   .     A
N555   O557    1.301   .     A
N558   O560    1.302   .     A
N558   O559    1.302   .     A
O561   C565    1.284   .     A
O561   Zn573   1.999   .     S
O562   Zn574   1.999   .     S
O562   C566    1.284   .     A
O563   C565    1.284   .     A
O563   Zn574   1.999   .     S
O564   C566    1.284   .     A
O564   Zn573   1.999   .     S
C565   C608    1.419   .     S
C566   C607    1.419   .     S
O567   C571    1.291   .     A
O567   Zn573   1.946   .     S
O568   C572    1.291   .     A
O568   Zn574   1.946   .     S
O569   Zn574   1.891   .     S
O569   C571    1.300   .     A
O570   C572    1.300   .     A
O570   Zn573   1.891   .     S
C571   C575    1.469   .     S
C572   C576    1.470   .     S
Zn573  N617    2.011   .     S
Zn574  N618    2.011   .     S
C575   C581    1.397   .     A
C575   C579    1.416   .     A
C576   C580    1.419   .     A
C576   C582    1.393   .     A
C577   C585    1.400   .     A
C577   C579    1.398   .     A
C577   H597    1.085   .     S
C578   C586    1.401   .     A
C578   H598    1.084   .     S
C578   C580    1.402   .     A
C579   N622    1.433   .     S
C580   N619    1.436   .     S
C581   H596    1.080   .     S
C581   C583    1.396   .     A
C582   H595    1.081   .     S
C582   C584    1.397   .     A
C583   C587    1.418   .     A
C583   C585    1.412   .     A
C584   C586    1.410   .     A
C584   C588    1.417   .     A
C585   C1221   1.389   .     S
C586   C1222   1.392   1_554 S
C587   C590    1.429   .     A
C587   C1218   1.417   .     S
C588   C589    1.427   .     A
C588   C1217   1.417   1_554 S
C589   N625    1.434   .     S
C589   C591    1.395   .     A
C590   C592    1.398   .     A
C590   N628    1.438   .     S
C591   H593    1.083   .     S
C591   C1215   1.389   1_554 S
C592   H594    1.084   .     S
C592   C1216   1.392   .     S
C599   H601    1.084   .     S
C599   C608    1.397   .     A
C599   C183    1.370   1_565 S
C600   C607    1.397   .     A
C600   H602    1.084   .     S
C603   H605    1.084   .     S
C603   C607    1.397   .     A
C604   C608    1.397   .     A
C604   H606    1.084   .     S
C604   C180    1.370   1_565 S
C609   N618    1.366   .     A
C609   H611    1.081   .     S
C609   C473    1.415   1_655 S
C610   H612    1.081   .     S
C610   N617    1.366   .     A
C613   H615    1.081   .     S
C613   N617    1.366   .     A
C614   H616    1.081   .     S
C614   N618    1.367   .     A
C614   C470    1.416   1_655 S
N619   O620    1.299   .     A
N619   O621    1.301   .     A
N622   O623    1.301   .     A
N622   O624    1.301   .     A
N625   O626    1.301   .     A
N625   O627    1.301   .     A
N628   O630    1.302   .     A
N628   O629    1.302   .     A
O631   C635    1.284   .     A
O631   Zn643   1.999   .     S
O632   Zn644   1.999   .     S
O632   C636    1.284   .     A
O633   C635    1.284   .     A
O633   Zn644   1.999   .     S
O634   C636    1.284   .     A
O634   Zn643   1.999   .     S
C635   C678    1.419   .     S
C636   C677    1.419   .     S
O637   C641    1.291   .     A
O637   Zn643   1.946   .     S
O638   C642    1.291   .     A
O638   Zn644   1.946   .     S
O639   Zn644   1.891   .     S
O639   C641    1.300   .     A
O640   C642    1.300   .     A
O640   Zn643   1.891   .     S
C641   C645    1.469   .     S
C642   C646    1.470   .     S
Zn643  N687    2.011   .     S
Zn644  N688    2.011   .     S
C645   C651    1.397   .     A
C645   C649    1.416   .     A
C646   C650    1.419   .     A
C646   C652    1.393   .     A
C647   C655    1.400   .     A
C647   C649    1.398   .     A
C647   H667    1.085   .     S
C648   C656    1.401   .     A
C648   H668    1.084   .     S
C648   C650    1.402   .     A
C649   N692    1.433   .     S
C650   N689    1.436   .     S
C651   H666    1.080   .     S
C651   C653    1.396   .     A
C652   H665    1.081   .     S
C652   C654    1.397   .     A
C653   C657    1.418   .     A
C653   C655    1.412   .     A
C654   C656    1.410   .     A
C654   C658    1.417   .     A
C655   C31     1.389   1_556 S
C657   C660    1.429   .     A
C657   C28     1.417   1_556 S
C658   C659    1.427   .     A
C659   N695    1.434   .     S
C659   C661    1.395   .     A
C660   C662    1.398   .     A
C660   N698    1.438   .     S
C661   H663    1.083   .     S
C662   H664    1.084   .     S
C662   C26     1.392   1_556 S
C669   H671    1.084   .     S
C669   C678    1.397   .     A
C669   C883    1.370   .     S
C670   C677    1.397   .     A
C670   H672    1.084   .     S
C670   C1094   1.370   1_545 S
C673   H675    1.084   .     S
C673   C677    1.397   .     A
C673   C1089   1.370   1_545 S
C674   C678    1.397   .     A
C674   H676    1.084   .     S
C674   C880    1.370   .     S
C679   N688    1.366   .     A
C679   H681    1.081   .     S
C679   C753    1.415   .     S
C680   H682    1.081   .     S
C680   N687    1.366   .     A
C680   C824    1.416   1_455 S
C683   H685    1.081   .     S
C683   N687    1.366   .     A
C683   C819    1.415   1_455 S
C684   H686    1.081   .     S
C684   N688    1.367   .     A
C684   C750    1.416   .     S
N689   O690    1.299   .     A
N689   O691    1.301   .     A
N692   O693    1.301   .     A
N692   O694    1.301   .     A
N695   O696    1.301   .     A
N695   O697    1.301   .     A
N698   O700    1.302   .     A
N698   O699    1.302   .     A
O701   C705    1.284   .     A
O701   Zn713   1.999   .     S
O702   Zn714   1.999   .     S
O702   C706    1.284   .     A
O703   C705    1.284   .     A
O703   Zn714   1.999   .     S
O704   C706    1.284   .     A
O704   Zn713   1.999   .     S
C705   C748    1.419   .     S
C706   C747    1.419   .     S
O707   C711    1.291   .     A
O707   Zn713   1.946   .     S
O708   C712    1.291   .     A
O708   Zn714   1.946   .     S
O709   Zn714   1.891   .     S
O709   C711    1.300   .     A
O710   C712    1.300   .     A
O710   Zn713   1.891   .     S
C711   C715    1.469   .     S
C712   C716    1.470   .     S
Zn713  N757    2.011   .     S
Zn714  N758    2.011   .     S
C715   C721    1.397   .     A
C715   C719    1.416   .     A
C716   C720    1.419   .     A
C716   C722    1.393   .     A
C717   C725    1.400   .     A
C717   C719    1.398   .     A
C717   H737    1.085   .     S
C718   C726    1.401   .     A
C718   H738    1.084   .     S
C718   C720    1.402   .     A
C719   N762    1.433   .     S
C720   N759    1.436   .     S
C721   H736    1.080   .     S
C721   C723    1.396   .     A
C722   H735    1.081   .     S
C722   C724    1.397   .     A
C723   C727    1.418   .     A
C723   C725    1.412   .     A
C724   C726    1.410   .     A
C724   C728    1.417   .     A
C725   C101    1.389   1_556 S
C727   C730    1.429   .     A
C727   C98     1.417   1_556 S
C728   C729    1.427   .     A
C729   N765    1.434   .     S
C729   C731    1.395   .     A
C730   C732    1.398   .     A
C730   N768    1.438   .     S
C731   H733    1.083   .     S
C732   H734    1.084   .     S
C732   C96     1.392   1_556 S
C739   H741    1.084   .     S
C739   C748    1.397   .     A
C739   C953    1.370   .     S
C740   C747    1.397   .     A
C740   H742    1.084   .     S
C740   C1164   1.370   1_545 S
C743   H745    1.084   .     S
C743   C747    1.397   .     A
C743   C1159   1.370   1_545 S
C744   C748    1.397   .     A
C744   H746    1.084   .     S
C744   C950    1.370   .     S
C749   N758    1.366   .     A
C749   H751    1.081   .     S
C749   C823    1.415   .     S
C750   H752    1.081   .     S
C750   N757    1.366   .     A
C753   H755    1.081   .     S
C753   N757    1.366   .     A
C754   H756    1.081   .     S
C754   N758    1.367   .     A
C754   C820    1.416   .     S
N759   O760    1.299   .     A
N759   O761    1.301   .     A
N762   O763    1.301   .     A
N762   O764    1.301   .     A
N765   O766    1.301   .     A
N765   O767    1.301   .     A
N768   O770    1.302   .     A
N768   O769    1.302   .     A
O771   C775    1.284   .     A
O771   Zn783   1.999   .     S
O772   Zn784   1.999   .     S
O772   C776    1.284   .     A
O773   C775    1.284   .     A
O773   Zn784   1.999   .     S
O774   C776    1.284   .     A
O774   Zn783   1.999   .     S
C775   C818    1.419   .     S
C776   C817    1.419   .     S
O777   C781    1.291   .     A
O777   Zn783   1.946   .     S
O778   C782    1.291   .     A
O778   Zn784   1.946   .     S
O779   Zn784   1.891   .     S
O779   C781    1.300   .     A
O780   C782    1.300   .     A
O780   Zn783   1.891   .     S
C781   C785    1.469   .     S
C782   C786    1.470   .     S
Zn783  N827    2.011   .     S
Zn784  N828    2.011   .     S
C785   C791    1.397   .     A
C785   C789    1.416   .     A
C786   C790    1.419   .     A
C786   C792    1.393   .     A
C787   C795    1.400   .     A
C787   C789    1.398   .     A
C787   H807    1.085   .     S
C788   C796    1.401   .     A
C788   H808    1.084   .     S
C788   C790    1.402   .     A
C789   N832    1.433   .     S
C790   N829    1.436   .     S
C791   H806    1.080   .     S
C791   C793    1.396   .     A
C792   H805    1.081   .     S
C792   C794    1.397   .     A
C793   C797    1.418   .     A
C793   C795    1.412   .     A
C794   C796    1.410   .     A
C794   C798    1.417   .     A
C795   C171    1.389   1_556 S
C797   C800    1.429   .     A
C797   C168    1.417   1_556 S
C798   C799    1.427   .     A
C799   N835    1.434   .     S
C799   C801    1.395   .     A
C800   C802    1.398   .     A
C800   N838    1.438   .     S
C801   H803    1.083   .     S
C802   H804    1.084   .     S
C802   C166    1.392   1_556 S
C809   H811    1.084   .     S
C809   C818    1.397   .     A
C809   C1023   1.370   .     S
C810   C817    1.397   .     A
C810   H812    1.084   .     S
C810   C1234   1.370   1_545 S
C813   H815    1.084   .     S
C813   C817    1.397   .     A
C813   C1229   1.370   1_545 S
C814   C818    1.397   .     A
C814   H816    1.084   .     S
C814   C1020   1.370   .     S
C819   N828    1.366   .     A
C819   H821    1.081   .     S
C819   C683    1.415   1_655 S
C820   H822    1.081   .     S
C820   N827    1.366   .     A
C823   H825    1.081   .     S
C823   N827    1.366   .     A
C824   H826    1.081   .     S
C824   N828    1.367   .     A
C824   C680    1.416   1_655 S
N829   O830    1.299   .     A
N829   O831    1.301   .     A
N832   O833    1.301   .     A
N832   O834    1.301   .     A
N835   O836    1.301   .     A
N835   O837    1.301   .     A
N838   O840    1.302   .     A
N838   O839    1.302   .     A
O841   C845    1.284   .     A
O841   Zn853   1.999   .     S
O842   Zn854   1.999   .     S
O842   C846    1.284   .     A
O843   C845    1.284   .     A
O843   Zn854   1.999   .     S
O844   C846    1.284   .     A
O844   Zn853   1.999   .     S
C845   C888    1.419   .     S
C846   C887    1.419   .     S
O847   C851    1.291   .     A
O847   Zn853   1.946   .     S
O848   C852    1.291   .     A
O848   Zn854   1.946   .     S
O849   Zn854   1.891   .     S
O849   C851    1.300   .     A
O850   C852    1.300   .     A
O850   Zn853   1.891   .     S
C851   C855    1.469   .     S
C852   C856    1.470   .     S
Zn853  N897    2.011   .     S
Zn854  N898    2.011   .     S
C855   C861    1.397   .     A
C855   C859    1.416   .     A
C856   C860    1.419   .     A
C856   C862    1.393   .     A
C857   C865    1.400   .     A
C857   C859    1.398   .     A
C857   H877    1.085   .     S
C858   C866    1.401   .     A
C858   H878    1.084   .     S
C858   C860    1.402   .     A
C859   N902    1.433   .     S
C860   N899    1.436   .     S
C861   H876    1.080   .     S
C861   C863    1.396   .     A
C862   H875    1.081   .     S
C862   C864    1.397   .     A
C863   C867    1.418   .     A
C863   C865    1.412   .     A
C864   C866    1.410   .     A
C864   C868    1.417   .     A
C865   C241    1.389   1_556 S
C867   C870    1.429   .     A
C867   C238    1.417   1_556 S
C868   C869    1.427   .     A
C869   N905    1.434   .     S
C869   C871    1.395   .     A
C870   C872    1.398   .     A
C870   N908    1.438   .     S
C871   H873    1.083   .     S
C872   H874    1.084   .     S
C872   C236    1.392   1_556 S
C879   H881    1.084   .     S
C879   C888    1.397   .     A
C879   C1093   1.370   .     S
C880   C887    1.397   .     A
C880   H882    1.084   .     S
C883   H885    1.084   .     S
C883   C887    1.397   .     A
C884   C888    1.397   .     A
C884   H886    1.084   .     S
C884   C1090   1.370   .     S
C889   N898    1.366   .     A
C889   H891    1.081   .     S
C889   C963    1.415   .     S
C890   H892    1.081   .     S
C890   N897    1.366   .     A
C890   C1034   1.416   1_455 S
C893   H895    1.081   .     S
C893   N897    1.366   .     A
C893   C1029   1.415   1_455 S
C894   H896    1.081   .     S
C894   N898    1.367   .     A
C894   C960    1.416   .     S
N899   O900    1.299   .     A
N899   O901    1.301   .     A
N902   O903    1.301   .     A
N902   O904    1.301   .     A
N905   O906    1.301   .     A
N905   O907    1.301   .     A
N908   O910    1.302   .     A
N908   O909    1.302   .     A
O911   C915    1.284   .     A
O911   Zn923   1.999   .     S
O912   Zn924   1.999   .     S
O912   C916    1.284   .     A
O913   C915    1.284   .     A
O913   Zn924   1.999   .     S
O914   C916    1.284   .     A
O914   Zn923   1.999   .     S
C915   C958    1.419   .     S
C916   C957    1.419   .     S
O917   C921    1.291   .     A
O917   Zn923   1.946   .     S
O918   C922    1.291   .     A
O918   Zn924   1.946   .     S
O919   Zn924   1.891   .     S
O919   C921    1.300   .     A
O920   C922    1.300   .     A
O920   Zn923   1.891   .     S
C921   C925    1.469   .     S
C922   C926    1.470   .     S
Zn923  N967    2.011   .     S
Zn924  N968    2.011   .     S
C925   C931    1.397   .     A
C925   C929    1.416   .     A
C926   C930    1.419   .     A
C926   C932    1.393   .     A
C927   C935    1.400   .     A
C927   C929    1.398   .     A
C927   H947    1.085   .     S
C928   C936    1.401   .     A
C928   H948    1.084   .     S
C928   C930    1.402   .     A
C929   N972    1.433   .     S
C930   N969    1.436   .     S
C931   H946    1.080   .     S
C931   C933    1.396   .     A
C932   H945    1.081   .     S
C932   C934    1.397   .     A
C933   C937    1.418   .     A
C933   C935    1.412   .     A
C934   C936    1.410   .     A
C934   C938    1.417   .     A
C935   C311    1.389   1_556 S
C937   C940    1.429   .     A
C937   C308    1.417   1_556 S
C938   C939    1.427   .     A
C939   N975    1.434   .     S
C939   C941    1.395   .     A
C940   C942    1.398   .     A
C940   N978    1.438   .     S
C941   H943    1.083   .     S
C942   H944    1.084   .     S
C942   C306    1.392   1_556 S
C949   H951    1.084   .     S
C949   C958    1.397   .     A
C949   C1163   1.370   .     S
C950   C957    1.397   .     A
C950   H952    1.084   .     S
C953   H955    1.084   .     S
C953   C957    1.397   .     A
C954   C958    1.397   .     A
C954   H956    1.084   .     S
C954   C1160   1.370   .     S
C959   N968    1.366   .     A
C959   H961    1.081   .     S
C959   C1033   1.415   .     S
C960   H962    1.081   .     S
C960   N967    1.366   .     A
C963   H965    1.081   .     S
C963   N967    1.366   .     A
C964   H966    1.081   .     S
C964   N968    1.367   .     A
C964   C1030   1.416   .     S
N969   O970    1.299   .     A
N969   O971    1.301   .     A
N972   O973    1.301   .     A
N972   O974    1.301   .     A
N975   O976    1.301   .     A
N975   O977    1.301   .     A
N978   O980    1.302   .     A
N978   O979    1.302   .     A
O981   C985    1.284   .     A
O981   Zn993   1.999   .     S
O982   Zn994   1.999   .     S
O982   C986    1.284   .     A
O983   C985    1.284   .     A
O983   Zn994   1.999   .     S
O984   C986    1.284   .     A
O984   Zn993   1.999   .     S
C985   C1028   1.419   .     S
C986   C1027   1.419   .     S
O987   C991    1.291   .     A
O987   Zn993   1.946   .     S
O988   C992    1.291   .     A
O988   Zn994   1.946   .     S
O989   Zn994   1.891   .     S
O989   C991    1.300   .     A
O990   C992    1.300   .     A
O990   Zn993   1.891   .     S
C991   C995    1.469   .     S
C992   C996    1.470   .     S
Zn993  N1037   2.011   .     S
Zn994  N1038   2.011   .     S
C995   C1001   1.397   .     A
C995   C999    1.416   .     A
C996   C1000   1.419   .     A
C996   C1002   1.393   .     A
C997   C1005   1.400   .     A
C997   C999    1.398   .     A
C997   H1017   1.085   .     S
C998   C1006   1.401   .     A
C998   H1018   1.084   .     S
C998   C1000   1.402   .     A
C999   N1042   1.433   .     S
C1000  N1039   1.436   .     S
C1001  H1016   1.080   .     S
C1001  C1003   1.396   .     A
C1002  H1015   1.081   .     S
C1002  C1004   1.397   .     A
C1003  C1007   1.418   .     A
C1003  C1005   1.412   .     A
C1004  C1006   1.410   .     A
C1004  C1008   1.417   .     A
C1005  C381    1.389   1_556 S
C1007  C1010   1.429   .     A
C1007  C378    1.417   1_556 S
C1008  C1009   1.427   .     A
C1009  N1045   1.434   .     S
C1009  C1011   1.395   .     A
C1010  C1012   1.398   .     A
C1010  N1048   1.438   .     S
C1011  H1013   1.083   .     S
C1012  H1014   1.084   .     S
C1012  C376    1.392   1_556 S
C1019  H1021   1.084   .     S
C1019  C1028   1.397   .     A
C1019  C1233   1.370   .     S
C1020  C1027   1.397   .     A
C1020  H1022   1.084   .     S
C1023  H1025   1.084   .     S
C1023  C1027   1.397   .     A
C1024  C1028   1.397   .     A
C1024  H1026   1.084   .     S
C1024  C1230   1.370   .     S
C1029  N1038   1.366   .     A
C1029  H1031   1.081   .     S
C1029  C893    1.415   1_655 S
C1030  H1032   1.081   .     S
C1030  N1037   1.366   .     A
C1033  H1035   1.081   .     S
C1033  N1037   1.366   .     A
C1034  H1036   1.081   .     S
C1034  N1038   1.367   .     A
C1034  C890    1.416   1_655 S
N1039  O1040   1.299   .     A
N1039  O1041   1.301   .     A
N1042  O1043   1.301   .     A
N1042  O1044   1.301   .     A
N1045  O1046   1.301   .     A
N1045  O1047   1.301   .     A
N1048  O1050   1.302   .     A
N1048  O1049   1.302   .     A
O1051  C1055   1.284   .     A
O1051  Zn1063  1.999   .     S
O1052  Zn1064  1.999   .     S
O1052  C1056   1.284   .     A
O1053  C1055   1.284   .     A
O1053  Zn1064  1.999   .     S
O1054  C1056   1.284   .     A
O1054  Zn1063  1.999   .     S
C1055  C1098   1.419   .     S
C1056  C1097   1.419   .     S
O1057  C1061   1.291   .     A
O1057  Zn1063  1.946   .     S
O1058  C1062   1.291   .     A
O1058  Zn1064  1.946   .     S
O1059  Zn1064  1.891   .     S
O1059  C1061   1.300   .     A
O1060  C1062   1.300   .     A
O1060  Zn1063  1.891   .     S
C1061  C1065   1.469   .     S
C1062  C1066   1.470   .     S
Zn1063 N1107   2.011   .     S
Zn1064 N1108   2.011   .     S
C1065  C1071   1.397   .     A
C1065  C1069   1.416   .     A
C1066  C1070   1.419   .     A
C1066  C1072   1.393   .     A
C1067  C1075   1.400   .     A
C1067  C1069   1.398   .     A
C1067  H1087   1.085   .     S
C1068  C1076   1.401   .     A
C1068  H1088   1.084   .     S
C1068  C1070   1.402   .     A
C1069  N1112   1.433   .     S
C1070  N1109   1.436   .     S
C1071  H1086   1.080   .     S
C1071  C1073   1.396   .     A
C1072  H1085   1.081   .     S
C1072  C1074   1.397   .     A
C1073  C1077   1.418   .     A
C1073  C1075   1.412   .     A
C1074  C1076   1.410   .     A
C1074  C1078   1.417   .     A
C1075  C451    1.389   1_556 S
C1077  C1080   1.429   .     A
C1077  C448    1.417   1_556 S
C1078  C1079   1.427   .     A
C1079  N1115   1.434   .     S
C1079  C1081   1.395   .     A
C1080  C1082   1.398   .     A
C1080  N1118   1.438   .     S
C1081  H1083   1.083   .     S
C1082  H1084   1.084   .     S
C1082  C446    1.392   1_556 S
C1089  H1091   1.084   .     S
C1089  C1098   1.397   .     A
C1089  C673    1.370   1_565 S
C1090  C1097   1.397   .     A
C1090  H1092   1.084   .     S
C1093  H1095   1.084   .     S
C1093  C1097   1.397   .     A
C1094  C1098   1.397   .     A
C1094  H1096   1.084   .     S
C1094  C670    1.370   1_565 S
C1099  N1108   1.366   .     A
C1099  H1101   1.081   .     S
C1099  C1173   1.415   .     S
C1100  H1102   1.081   .     S
C1100  N1107   1.366   .     A
C1100  C1244   1.416   1_455 S
C1103  H1105   1.081   .     S
C1103  N1107   1.366   .     A
C1103  C1239   1.415   1_455 S
C1104  H1106   1.081   .     S
C1104  N1108   1.367   .     A
C1104  C1170   1.416   .     S
N1109  O1110   1.299   .     A
N1109  O1111   1.301   .     A
N1112  O1113   1.301   .     A
N1112  O1114   1.301   .     A
N1115  O1116   1.301   .     A
N1115  O1117   1.301   .     A
N1118  O1120   1.302   .     A
N1118  O1119   1.302   .     A
O1121  C1125   1.284   .     A
O1121  Zn1133  1.999   .     S
O1122  Zn1134  1.999   .     S
O1122  C1126   1.284   .     A
O1123  C1125   1.284   .     A
O1123  Zn1134  1.999   .     S
O1124  C1126   1.284   .     A
O1124  Zn1133  1.999   .     S
C1125  C1168   1.419   .     S
C1126  C1167   1.419   .     S
O1127  C1131   1.291   .     A
O1127  Zn1133  1.946   .     S
O1128  C1132   1.291   .     A
O1128  Zn1134  1.946   .     S
O1129  Zn1134  1.891   .     S
O1129  C1131   1.300   .     A
O1130  C1132   1.300   .     A
O1130  Zn1133  1.891   .     S
C1131  C1135   1.469   .     S
C1132  C1136   1.470   .     S
Zn1133 N1177   2.011   .     S
Zn1134 N1178   2.011   .     S
C1135  C1141   1.397   .     A
C1135  C1139   1.416   .     A
C1136  C1140   1.419   .     A
C1136  C1142   1.393   .     A
C1137  C1145   1.400   .     A
C1137  C1139   1.398   .     A
C1137  H1157   1.085   .     S
C1138  C1146   1.401   .     A
C1138  H1158   1.084   .     S
C1138  C1140   1.402   .     A
C1139  N1182   1.433   .     S
C1140  N1179   1.436   .     S
C1141  H1156   1.080   .     S
C1141  C1143   1.396   .     A
C1142  H1155   1.081   .     S
C1142  C1144   1.397   .     A
C1143  C1147   1.418   .     A
C1143  C1145   1.412   .     A
C1144  C1146   1.410   .     A
C1144  C1148   1.417   .     A
C1145  C521    1.389   1_556 S
C1147  C1150   1.429   .     A
C1147  C518    1.417   1_556 S
C1148  C1149   1.427   .     A
C1149  N1185   1.434   .     S
C1149  C1151   1.395   .     A
C1150  C1152   1.398   .     A
C1150  N1188   1.438   .     S
C1151  H1153   1.083   .     S
C1152  H1154   1.084   .     S
C1152  C516    1.392   1_556 S
C1159  H1161   1.084   .     S
C1159  C1168   1.397   .     A
C1159  C743    1.370   1_565 S
C1160  C1167   1.397   .     A
C1160  H1162   1.084   .     S
C1163  H1165   1.084   .     S
C1163  C1167   1.397   .     A
C1164  C1168   1.397   .     A
C1164  H1166   1.084   .     S
C1164  C740    1.370   1_565 S
C1169  N1178   1.366   .     A
C1169  H1171   1.081   .     S
C1169  C1243   1.415   .     S
C1170  H1172   1.081   .     S
C1170  N1177   1.366   .     A
C1173  H1175   1.081   .     S
C1173  N1177   1.366   .     A
C1174  H1176   1.081   .     S
C1174  N1178   1.367   .     A
C1174  C1240   1.416   .     S
N1179  O1180   1.299   .     A
N1179  O1181   1.301   .     A
N1182  O1183   1.301   .     A
N1182  O1184   1.301   .     A
N1185  O1186   1.301   .     A
N1185  O1187   1.301   .     A
N1188  O1190   1.302   .     A
N1188  O1189   1.302   .     A
O1191  C1195   1.284   .     A
O1191  Zn1203  1.999   .     S
O1192  Zn1204  1.999   .     S
O1192  C1196   1.284   .     A
O1193  C1195   1.284   .     A
O1193  Zn1204  1.999   .     S
O1194  C1196   1.284   .     A
O1194  Zn1203  1.999   .     S
C1195  C1238   1.419   .     S
C1196  C1237   1.419   .     S
O1197  C1201   1.291   .     A
O1197  Zn1203  1.946   .     S
O1198  C1202   1.291   .     A
O1198  Zn1204  1.946   .     S
O1199  Zn1204  1.891   .     S
O1199  C1201   1.300   .     A
O1200  C1202   1.300   .     A
O1200  Zn1203  1.891   .     S
C1201  C1205   1.469   .     S
C1202  C1206   1.470   .     S
Zn1203 N1247   2.011   .     S
Zn1204 N1248   2.011   .     S
C1205  C1211   1.397   .     A
C1205  C1209   1.416   .     A
C1206  C1210   1.419   .     A
C1206  C1212   1.393   .     A
C1207  C1215   1.400   .     A
C1207  C1209   1.398   .     A
C1207  H1227   1.085   .     S
C1208  C1216   1.401   .     A
C1208  H1228   1.084   .     S
C1208  C1210   1.402   .     A
C1209  N1252   1.433   .     S
C1210  N1249   1.436   .     S
C1211  H1226   1.080   .     S
C1211  C1213   1.396   .     A
C1212  H1225   1.081   .     S
C1212  C1214   1.397   .     A
C1213  C1217   1.418   .     A
C1213  C1215   1.412   .     A
C1214  C1216   1.410   .     A
C1214  C1218   1.417   .     A
C1215  C591    1.389   1_556 S
C1217  C1220   1.429   .     A
C1217  C588    1.417   1_556 S
C1218  C1219   1.427   .     A
C1219  N1255   1.434   .     S
C1219  C1221   1.395   .     A
C1220  C1222   1.398   .     A
C1220  N1258   1.438   .     S
C1221  H1223   1.083   .     S
C1222  H1224   1.084   .     S
C1222  C586    1.392   1_556 S
C1229  H1231   1.084   .     S
C1229  C1238   1.397   .     A
C1229  C813    1.370   1_565 S
C1230  C1237   1.397   .     A
C1230  H1232   1.084   .     S
C1233  H1235   1.084   .     S
C1233  C1237   1.397   .     A
C1234  C1238   1.397   .     A
C1234  H1236   1.084   .     S
C1234  C810    1.370   1_565 S
C1239  N1248   1.366   .     A
C1239  H1241   1.081   .     S
C1239  C1103   1.415   1_655 S
C1240  H1242   1.081   .     S
C1240  N1247   1.366   .     A
C1243  H1245   1.081   .     S
C1243  N1247   1.366   .     A
C1244  H1246   1.081   .     S
C1244  N1248   1.367   .     A
C1244  C1100   1.416   1_655 S
N1249  O1250   1.299   .     A
N1249  O1251   1.301   .     A
N1252  O1253   1.301   .     A
N1252  O1254   1.301   .     A
N1255  O1256   1.301   .     A
N1255  O1257   1.301   .     A
N1258  O1260   1.302   .     A
N1258  O1259   1.302   .     A
