data_str_m3_o1_o17_pcu_sym.79
_audit_creation_date              2020-01-03
_audit_creation_method            'Materials Studio'
_symmetry_space_group_name_H-M    'P1'
_symmetry_Int_Tables_number       1
_symmetry_cell_setting            triclinic
loop_
_symmetry_equiv_pos_as_xyz
  x,y,z
_cell_length_a                    32.2894
_cell_length_b                    29.8742
_cell_length_c                    29.8882
_cell_angle_alpha                 90.1492
_cell_angle_beta                  92.0152
_cell_angle_gamma                 90.1412
loop_
_atom_site_label
_atom_site_type_symbol
_atom_site_fract_x
_atom_site_fract_y
_atom_site_fract_z
_atom_site_U_iso_or_equiv
_atom_site_adp_type
_atom_site_occupancy
Br1    Br    0.08076   0.14377   0.36497   0.00000  Uiso   1.00
Br2    Br    0.25254   0.18123   0.12796   0.00000  Uiso   1.00
C3     C     0.08673   0.16664   0.25035   0.00000  Uiso   1.00
C4     C     0.04249   0.16664   0.25063   0.00000  Uiso   1.00
C5     C     0.18891   0.02403   0.28202   0.00000  Uiso   1.00
C6     C     0.14403   0.30938   0.21832   0.00000  Uiso   1.00
C7     C     0.14405   0.02381   0.21836   0.00000  Uiso   1.00
C8     C     0.18914   0.30956   0.28180   0.00000  Uiso   1.00
C9     C     0.16595   0.16656   0.16374   0.00000  Uiso   1.00
C10    C     0.16700   0.16668   0.33630   0.00000  Uiso   1.00
C11    C     0.20354   0.16889   0.40923   0.00000  Uiso   1.00
C12    C     0.12617   0.16242   0.09251   0.00000  Uiso   1.00
C13    C     0.16619   0.16618   0.38406   0.00000  Uiso   1.00
C14    C     0.24658   0.16669   0.24931   0.00000  Uiso   1.00
C15    C     0.16456   0.16581   0.11598   0.00000  Uiso   1.00
C16    C     0.12788   0.16038   0.40394   0.00000  Uiso   1.00
C17    C     0.20222   0.16401   0.09457   0.00000  Uiso   1.00
C18    C     0.12609   0.16295   0.45099   0.00000  Uiso   1.00
C19    C     0.20196   0.15574   0.04847   0.00000  Uiso   1.00
C20    C     0.16402   0.16127   0.47655   0.00000  Uiso   1.00
C21    C     0.16389   0.15944   0.02353   0.00000  Uiso   1.00
C22    C     0.20246   0.16174   0.45532   0.00000  Uiso   1.00
C23    C     0.12593   0.16200   0.04554   0.00000  Uiso   1.00
C24    C     0.08841   0.16656   0.47371   0.00000  Uiso   1.00
C25    C     0.08883   0.16613   0.02018   0.00000  Uiso   1.00
C26    C     0.23845   0.14537   0.02600   0.00000  Uiso   1.00
C27    C     0.24346   0.17970   0.38794   0.00000  Uiso   1.00
C28    C     0.08681   0.15998   0.11710   0.00000  Uiso   1.00
C29    C     0.04803   0.17490   0.45113   0.00000  Uiso   1.00
C30    C     0.27396   0.12105   0.04737   0.00000  Uiso   1.00
C31    C     0.21258   0.04785   0.31778   0.00000  Uiso   1.00
C32    C     0.11849   0.28593   0.18387   0.00000  Uiso   1.00
C33    C     0.11784   0.04737   0.18487   0.00000  Uiso   1.00
C34    C     0.21494   0.28595   0.31562   0.00000  Uiso   1.00
C35    C     0.23885   0.15154   0.48004   0.00000  Uiso   1.00
C36    C     0.02116   0.12597   0.25182   0.00000  Uiso   1.00
C37    C     0.31212   0.20733   0.24734   0.00000  Uiso   1.00
C38    C     0.31201   0.12594   0.25012   0.00000  Uiso   1.00
C39    C     0.02127   0.20734   0.24909   0.00000  Uiso   1.00
C40    C     0.29079   0.16666   0.24862   0.00000  Uiso   1.00
H41    H     0.05968   0.17115   0.03624   0.00000  Uiso   1.00
H42    H     0.00110   0.10496   0.04546   0.00000  Uiso   1.00
H43    H     0.26723   0.07451   0.33877   0.00000  Uiso   1.00
H44    H     0.06084   0.26745   0.16317   0.00000  Uiso   1.00
H45    H     0.06047   0.06906   0.16773   0.00000  Uiso   1.00
H46    H     0.27130   0.26126   0.33249   0.00000  Uiso   1.00
H47    H     0.26704   0.14453   0.46303   0.00000  Uiso   1.00
H48    H     0.03707   0.09424   0.25437   0.00000  Uiso   1.00
H49    H     0.29620   0.23908   0.24496   0.00000  Uiso   1.00
H50    H     0.29602   0.09410   0.25006   0.00000  Uiso   1.00
H51    H     0.03726   0.23915   0.24938   0.00000  Uiso   1.00
H52    H     0.29672   0.21516   0.39140   0.00000  Uiso   1.00
H53    H     0.03122   0.13032   0.12350   0.00000  Uiso   1.00
H54    H     0.32806   0.14804   0.42664   0.00000  Uiso   1.00
N55    N     0.16667   0.28573   0.25000   0.00000  Uiso   1.00
N56    N     0.16667   0.04760   0.25000   0.00000  Uiso   1.00
O57    O     0.10559   0.20487   0.24999   0.00000  Uiso   1.00
O58    O     0.27032   0.21104   0.40830   0.00000  Uiso   1.00
O59    O     0.08054   0.18601   0.14767   0.00000  Uiso   1.00
O60    O     0.05701   0.12771   0.10526   0.00000  Uiso   1.00
O61    O     0.04027   0.21180   0.43537   0.00000  Uiso   1.00
O62    O     0.01930   0.14001   0.44694   0.00000  Uiso   1.00
O63    O     0.26816   0.09454   0.07767   0.00000  Uiso   1.00
O64    O     0.31363   0.12616   0.03087   0.00000  Uiso   1.00
O65    O     0.19755   0.05267   0.35446   0.00000  Uiso   1.00
O66    O     0.25336   0.06089   0.31098   0.00000  Uiso   1.00
O67    O     0.13289   0.27758   0.14751   0.00000  Uiso   1.00
O68    O     0.22774   0.12846   0.25000   0.00000  Uiso   1.00
O69    O     0.07645   0.27913   0.19081   0.00000  Uiso   1.00
O70    O     0.13084   0.05481   0.14768   0.00000  Uiso   1.00
O71    O     0.07668   0.05628   0.19426   0.00000  Uiso   1.00
O72    O     0.20182   0.27944   0.35293   0.00000  Uiso   1.00
O73    O     0.25570   0.27524   0.30615   0.00000  Uiso   1.00
O74    O     0.22774   0.20487   0.25000   0.00000  Uiso   1.00
O75    O     0.10559   0.12846   0.24999   0.00000  Uiso   1.00
O76    O     0.16666   0.20489   0.18392   0.00000  Uiso   1.00
O77    O     0.16667   0.12844   0.31607   0.00000  Uiso   1.00
O78    O     0.16667   0.20489   0.31607   0.00000  Uiso   1.00
O79    O     0.16666   0.12844   0.18392   0.00000  Uiso   1.00
O80    O     0.25291   0.16131   0.35321   0.00000  Uiso   1.00
Zn81   Zn    0.16667   0.21771   0.25000   0.00000  Uiso   1.00
Zn82   Zn    0.16667   0.11563   0.25000   0.00000  Uiso   1.00
Br83   Br    0.41410   0.14377   0.36497   0.00000  Uiso   1.00
Br84   Br    0.58587   0.18123   0.12796   0.00000  Uiso   1.00
C85    C     0.42006   0.16664   0.25035   0.00000  Uiso   1.00
C86    C     0.37582   0.16664   0.25063   0.00000  Uiso   1.00
C87    C     0.52225   0.02403   0.28202   0.00000  Uiso   1.00
C88    C     0.47737   0.30938   0.21832   0.00000  Uiso   1.00
C89    C     0.47739   0.02381   0.21836   0.00000  Uiso   1.00
C90    C     0.52247   0.30956   0.28180   0.00000  Uiso   1.00
C91    C     0.49928   0.16656   0.16374   0.00000  Uiso   1.00
C92    C     0.50033   0.16668   0.33630   0.00000  Uiso   1.00
C93    C     0.53687   0.16889   0.40923   0.00000  Uiso   1.00
C94    C     0.45951   0.16242   0.09251   0.00000  Uiso   1.00
C95    C     0.49952   0.16618   0.38406   0.00000  Uiso   1.00
C96    C     0.57992   0.16669   0.24931   0.00000  Uiso   1.00
C97    C     0.49789   0.16581   0.11598   0.00000  Uiso   1.00
C98    C     0.46121   0.16038   0.40394   0.00000  Uiso   1.00
C99    C     0.53555   0.16401   0.09457   0.00000  Uiso   1.00
C100   C     0.45942   0.16295   0.45099   0.00000  Uiso   1.00
C101   C     0.53529   0.15574   0.04847   0.00000  Uiso   1.00
C102   C     0.49735   0.16127   0.47655   0.00000  Uiso   1.00
C103   C     0.49723   0.15944   0.02353   0.00000  Uiso   1.00
C104   C     0.53579   0.16174   0.45532   0.00000  Uiso   1.00
C105   C     0.45927   0.16200   0.04554   0.00000  Uiso   1.00
C106   C     0.42174   0.16656   0.47371   0.00000  Uiso   1.00
C107   C     0.42216   0.16613   0.02018   0.00000  Uiso   1.00
C108   C     0.57179   0.14537   0.02600   0.00000  Uiso   1.00
C109   C     0.57679   0.17970   0.38794   0.00000  Uiso   1.00
C110   C     0.42014   0.15998   0.11710   0.00000  Uiso   1.00
C111   C     0.38136   0.17490   0.45113   0.00000  Uiso   1.00
C112   C     0.60729   0.12105   0.04737   0.00000  Uiso   1.00
C113   C     0.54591   0.04785   0.31778   0.00000  Uiso   1.00
C114   C     0.45182   0.28593   0.18387   0.00000  Uiso   1.00
C115   C     0.45117   0.04737   0.18487   0.00000  Uiso   1.00
C116   C     0.54827   0.28595   0.31562   0.00000  Uiso   1.00
C117   C     0.57218   0.15154   0.48004   0.00000  Uiso   1.00
C118   C     0.35450   0.12597   0.25182   0.00000  Uiso   1.00
C119   C     0.64545   0.20733   0.24734   0.00000  Uiso   1.00
C120   C     0.64534   0.12594   0.25012   0.00000  Uiso   1.00
C121   C     0.35460   0.20734   0.24909   0.00000  Uiso   1.00
C122   C     0.62413   0.16666   0.24862   0.00000  Uiso   1.00
H123   H     0.39301   0.17115   0.03624   0.00000  Uiso   1.00
H124   H     0.33444   0.10496   0.04546   0.00000  Uiso   1.00
H125   H     0.60057   0.07451   0.33877   0.00000  Uiso   1.00
H126   H     0.39417   0.26745   0.16317   0.00000  Uiso   1.00
H127   H     0.39380   0.06906   0.16773   0.00000  Uiso   1.00
H128   H     0.60463   0.26126   0.33249   0.00000  Uiso   1.00
H129   H     0.60037   0.14453   0.46303   0.00000  Uiso   1.00
H130   H     0.37041   0.09424   0.25437   0.00000  Uiso   1.00
H131   H     0.62954   0.23908   0.24496   0.00000  Uiso   1.00
H132   H     0.62936   0.09410   0.25006   0.00000  Uiso   1.00
H133   H     0.37060   0.23915   0.24938   0.00000  Uiso   1.00
H134   H     0.63006   0.21516   0.39140   0.00000  Uiso   1.00
H135   H     0.36456   0.13032   0.12350   0.00000  Uiso   1.00
H136   H     0.66140   0.14804   0.42664   0.00000  Uiso   1.00
N137   N     0.50000   0.28573   0.25000   0.00000  Uiso   1.00
N138   N     0.50000   0.04760   0.25000   0.00000  Uiso   1.00
O139   O     0.43892   0.20487   0.24999   0.00000  Uiso   1.00
O140   O     0.60365   0.21104   0.40830   0.00000  Uiso   1.00
O141   O     0.41387   0.18601   0.14767   0.00000  Uiso   1.00
O142   O     0.39035   0.12771   0.10526   0.00000  Uiso   1.00
O143   O     0.37360   0.21180   0.43537   0.00000  Uiso   1.00
O144   O     0.35263   0.14001   0.44694   0.00000  Uiso   1.00
O145   O     0.60149   0.09454   0.07767   0.00000  Uiso   1.00
O146   O     0.64696   0.12616   0.03087   0.00000  Uiso   1.00
O147   O     0.53088   0.05267   0.35446   0.00000  Uiso   1.00
O148   O     0.58669   0.06089   0.31098   0.00000  Uiso   1.00
O149   O     0.46622   0.27758   0.14751   0.00000  Uiso   1.00
O150   O     0.56108   0.12846   0.25000   0.00000  Uiso   1.00
O151   O     0.40978   0.27913   0.19081   0.00000  Uiso   1.00
O152   O     0.46417   0.05481   0.14768   0.00000  Uiso   1.00
O153   O     0.41002   0.05628   0.19426   0.00000  Uiso   1.00
O154   O     0.53516   0.27944   0.35293   0.00000  Uiso   1.00
O155   O     0.58904   0.27524   0.30615   0.00000  Uiso   1.00
O156   O     0.56108   0.20487   0.25000   0.00000  Uiso   1.00
O157   O     0.43892   0.12846   0.24999   0.00000  Uiso   1.00
O158   O     0.49999   0.20489   0.18392   0.00000  Uiso   1.00
O159   O     0.50001   0.12844   0.31607   0.00000  Uiso   1.00
O160   O     0.50001   0.20489   0.31607   0.00000  Uiso   1.00
O161   O     0.49999   0.12844   0.18392   0.00000  Uiso   1.00
O162   O     0.58625   0.16131   0.35321   0.00000  Uiso   1.00
Zn163  Zn    0.50000   0.21771   0.25000   0.00000  Uiso   1.00
Zn164  Zn    0.50000   0.11563   0.25000   0.00000  Uiso   1.00
Br165  Br    0.74743   0.14377   0.36497   0.00000  Uiso   1.00
Br166  Br    0.91920   0.18123   0.12796   0.00000  Uiso   1.00
C167   C     0.75339   0.16664   0.25035   0.00000  Uiso   1.00
C168   C     0.70916   0.16664   0.25063   0.00000  Uiso   1.00
C169   C     0.85558   0.02403   0.28202   0.00000  Uiso   1.00
C170   C     0.81070   0.30938   0.21832   0.00000  Uiso   1.00
C171   C     0.81072   0.02381   0.21836   0.00000  Uiso   1.00
C172   C     0.85581   0.30956   0.28180   0.00000  Uiso   1.00
C173   C     0.83261   0.16656   0.16374   0.00000  Uiso   1.00
C174   C     0.83367   0.16668   0.33630   0.00000  Uiso   1.00
C175   C     0.87021   0.16889   0.40923   0.00000  Uiso   1.00
C176   C     0.79284   0.16242   0.09251   0.00000  Uiso   1.00
C177   C     0.83285   0.16618   0.38406   0.00000  Uiso   1.00
C178   C     0.91325   0.16669   0.24931   0.00000  Uiso   1.00
C179   C     0.83123   0.16581   0.11598   0.00000  Uiso   1.00
C180   C     0.79455   0.16038   0.40394   0.00000  Uiso   1.00
C181   C     0.86888   0.16401   0.09457   0.00000  Uiso   1.00
C182   C     0.79275   0.16295   0.45099   0.00000  Uiso   1.00
C183   C     0.86862   0.15574   0.04847   0.00000  Uiso   1.00
C184   C     0.83069   0.16127   0.47655   0.00000  Uiso   1.00
C185   C     0.83056   0.15944   0.02353   0.00000  Uiso   1.00
C186   C     0.86913   0.16174   0.45532   0.00000  Uiso   1.00
C187   C     0.79260   0.16200   0.04554   0.00000  Uiso   1.00
C188   C     0.75508   0.16656   0.47371   0.00000  Uiso   1.00
C189   C     0.75550   0.16613   0.02018   0.00000  Uiso   1.00
C190   C     0.90512   0.14537   0.02600   0.00000  Uiso   1.00
C191   C     0.91012   0.17970   0.38794   0.00000  Uiso   1.00
C192   C     0.75347   0.15998   0.11710   0.00000  Uiso   1.00
C193   C     0.71469   0.17490   0.45113   0.00000  Uiso   1.00
C194   C     0.94063   0.12105   0.04737   0.00000  Uiso   1.00
C195   C     0.87924   0.04785   0.31778   0.00000  Uiso   1.00
C196   C     0.78515   0.28593   0.18387   0.00000  Uiso   1.00
C197   C     0.78451   0.04737   0.18487   0.00000  Uiso   1.00
C198   C     0.88160   0.28595   0.31562   0.00000  Uiso   1.00
C199   C     0.90551   0.15154   0.48004   0.00000  Uiso   1.00
C200   C     0.68783   0.12597   0.25182   0.00000  Uiso   1.00
C201   C     0.97878   0.20733   0.24734   0.00000  Uiso   1.00
C202   C     0.97868   0.12594   0.25012   0.00000  Uiso   1.00
C203   C     0.68794   0.20734   0.24909   0.00000  Uiso   1.00
C204   C     0.95746   0.16666   0.24862   0.00000  Uiso   1.00
H205   H     0.72635   0.17115   0.03624   0.00000  Uiso   1.00
H206   H     0.66777   0.10496   0.04546   0.00000  Uiso   1.00
H207   H     0.93390   0.07451   0.33877   0.00000  Uiso   1.00
H208   H     0.72751   0.26745   0.16317   0.00000  Uiso   1.00
H209   H     0.72713   0.06906   0.16773   0.00000  Uiso   1.00
H210   H     0.93797   0.26126   0.33249   0.00000  Uiso   1.00
H211   H     0.93371   0.14453   0.46303   0.00000  Uiso   1.00
H212   H     0.70374   0.09424   0.25437   0.00000  Uiso   1.00
H213   H     0.96287   0.23908   0.24496   0.00000  Uiso   1.00
H214   H     0.96269   0.09410   0.25006   0.00000  Uiso   1.00
H215   H     0.70393   0.23915   0.24938   0.00000  Uiso   1.00
H216   H     0.96339   0.21516   0.39140   0.00000  Uiso   1.00
H217   H     0.69789   0.13032   0.12350   0.00000  Uiso   1.00
H218   H     0.99473   0.14804   0.42664   0.00000  Uiso   1.00
N219   N     0.83333   0.28573   0.25000   0.00000  Uiso   1.00
N220   N     0.83333   0.04760   0.25000   0.00000  Uiso   1.00
O221   O     0.77226   0.20487   0.24999   0.00000  Uiso   1.00
O222   O     0.93699   0.21104   0.40830   0.00000  Uiso   1.00
O223   O     0.74720   0.18601   0.14767   0.00000  Uiso   1.00
O224   O     0.72368   0.12771   0.10526   0.00000  Uiso   1.00
O225   O     0.70693   0.21180   0.43537   0.00000  Uiso   1.00
O226   O     0.68597   0.14001   0.44694   0.00000  Uiso   1.00
O227   O     0.93483   0.09454   0.07767   0.00000  Uiso   1.00
O228   O     0.98030   0.12616   0.03087   0.00000  Uiso   1.00
O229   O     0.86421   0.05267   0.35446   0.00000  Uiso   1.00
O230   O     0.92003   0.06089   0.31098   0.00000  Uiso   1.00
O231   O     0.79955   0.27758   0.14751   0.00000  Uiso   1.00
O232   O     0.89441   0.12846   0.25000   0.00000  Uiso   1.00
O233   O     0.74312   0.27913   0.19081   0.00000  Uiso   1.00
O234   O     0.79751   0.05481   0.14768   0.00000  Uiso   1.00
O235   O     0.74335   0.05628   0.19426   0.00000  Uiso   1.00
O236   O     0.86849   0.27944   0.35293   0.00000  Uiso   1.00
O237   O     0.92237   0.27524   0.30615   0.00000  Uiso   1.00
O238   O     0.89441   0.20487   0.25000   0.00000  Uiso   1.00
O239   O     0.77226   0.12846   0.24999   0.00000  Uiso   1.00
O240   O     0.83333   0.20489   0.18392   0.00000  Uiso   1.00
O241   O     0.83334   0.12844   0.31607   0.00000  Uiso   1.00
O242   O     0.83334   0.20489   0.31607   0.00000  Uiso   1.00
O243   O     0.83333   0.12844   0.18392   0.00000  Uiso   1.00
O244   O     0.91958   0.16131   0.35321   0.00000  Uiso   1.00
Zn245  Zn    0.83333   0.21771   0.25000   0.00000  Uiso   1.00
Zn246  Zn    0.83333   0.11563   0.25000   0.00000  Uiso   1.00
Br247  Br    0.08076   0.47710   0.36497   0.00000  Uiso   1.00
Br248  Br    0.25254   0.51456   0.12796   0.00000  Uiso   1.00
C249   C     0.08673   0.49997   0.25035   0.00000  Uiso   1.00
C250   C     0.04249   0.49997   0.25063   0.00000  Uiso   1.00
C251   C     0.18891   0.35736   0.28202   0.00000  Uiso   1.00
C252   C     0.14403   0.64271   0.21832   0.00000  Uiso   1.00
C253   C     0.14405   0.35714   0.21836   0.00000  Uiso   1.00
C254   C     0.18914   0.64289   0.28180   0.00000  Uiso   1.00
C255   C     0.16595   0.49989   0.16374   0.00000  Uiso   1.00
C256   C     0.16700   0.50001   0.33630   0.00000  Uiso   1.00
C257   C     0.20354   0.50223   0.40923   0.00000  Uiso   1.00
C258   C     0.12617   0.49576   0.09251   0.00000  Uiso   1.00
C259   C     0.16619   0.49951   0.38406   0.00000  Uiso   1.00
C260   C     0.24658   0.50002   0.24931   0.00000  Uiso   1.00
C261   C     0.16456   0.49914   0.11598   0.00000  Uiso   1.00
C262   C     0.12788   0.49372   0.40394   0.00000  Uiso   1.00
C263   C     0.20222   0.49735   0.09457   0.00000  Uiso   1.00
C264   C     0.12609   0.49629   0.45099   0.00000  Uiso   1.00
C265   C     0.20196   0.48907   0.04847   0.00000  Uiso   1.00
C266   C     0.16402   0.49460   0.47655   0.00000  Uiso   1.00
C267   C     0.16389   0.49277   0.02353   0.00000  Uiso   1.00
C268   C     0.20246   0.49507   0.45532   0.00000  Uiso   1.00
C269   C     0.12593   0.49533   0.04554   0.00000  Uiso   1.00
C270   C     0.08841   0.49989   0.47371   0.00000  Uiso   1.00
C271   C     0.08883   0.49947   0.02018   0.00000  Uiso   1.00
C272   C     0.23845   0.47870   0.02600   0.00000  Uiso   1.00
C273   C     0.24346   0.51303   0.38794   0.00000  Uiso   1.00
C274   C     0.08681   0.49332   0.11710   0.00000  Uiso   1.00
C275   C     0.04803   0.50823   0.45113   0.00000  Uiso   1.00
C276   C     0.27396   0.45438   0.04737   0.00000  Uiso   1.00
C277   C     0.21258   0.38118   0.31778   0.00000  Uiso   1.00
C278   C     0.11849   0.61926   0.18387   0.00000  Uiso   1.00
C279   C     0.11784   0.38071   0.18487   0.00000  Uiso   1.00
C280   C     0.21494   0.61929   0.31562   0.00000  Uiso   1.00
C281   C     0.23885   0.48487   0.48004   0.00000  Uiso   1.00
C282   C     0.02116   0.45930   0.25182   0.00000  Uiso   1.00
C283   C     0.31212   0.54066   0.24734   0.00000  Uiso   1.00
C284   C     0.31201   0.45927   0.25012   0.00000  Uiso   1.00
C285   C     0.02127   0.54067   0.24909   0.00000  Uiso   1.00
C286   C     0.29079   0.49999   0.24862   0.00000  Uiso   1.00
H287   H     0.05968   0.50449   0.03624   0.00000  Uiso   1.00
H288   H     0.00110   0.43830   0.04546   0.00000  Uiso   1.00
H289   H     0.26723   0.40784   0.33877   0.00000  Uiso   1.00
H290   H     0.06084   0.60079   0.16317   0.00000  Uiso   1.00
H291   H     0.06047   0.40239   0.16773   0.00000  Uiso   1.00
H292   H     0.27130   0.59459   0.33249   0.00000  Uiso   1.00
H293   H     0.26704   0.47786   0.46303   0.00000  Uiso   1.00
H294   H     0.03707   0.42757   0.25437   0.00000  Uiso   1.00
H295   H     0.29620   0.57241   0.24496   0.00000  Uiso   1.00
H296   H     0.29602   0.42744   0.25006   0.00000  Uiso   1.00
H297   H     0.03726   0.57249   0.24938   0.00000  Uiso   1.00
H298   H     0.29672   0.54849   0.39140   0.00000  Uiso   1.00
H299   H     0.03122   0.46365   0.12350   0.00000  Uiso   1.00
H300   H     0.32806   0.48138   0.42664   0.00000  Uiso   1.00
N301   N     0.16667   0.61907   0.25000   0.00000  Uiso   1.00
N302   N     0.16667   0.38093   0.25000   0.00000  Uiso   1.00
O303   O     0.10559   0.53821   0.24999   0.00000  Uiso   1.00
O304   O     0.27032   0.54438   0.40830   0.00000  Uiso   1.00
O305   O     0.08054   0.51935   0.14767   0.00000  Uiso   1.00
O306   O     0.05701   0.46104   0.10526   0.00000  Uiso   1.00
O307   O     0.04027   0.54513   0.43537   0.00000  Uiso   1.00
O308   O     0.01930   0.47334   0.44694   0.00000  Uiso   1.00
O309   O     0.26816   0.42787   0.07767   0.00000  Uiso   1.00
O310   O     0.31363   0.45950   0.03087   0.00000  Uiso   1.00
O311   O     0.19755   0.38600   0.35446   0.00000  Uiso   1.00
O312   O     0.25336   0.39422   0.31098   0.00000  Uiso   1.00
O313   O     0.13289   0.61091   0.14751   0.00000  Uiso   1.00
O314   O     0.22774   0.46179   0.25000   0.00000  Uiso   1.00
O315   O     0.07645   0.61246   0.19081   0.00000  Uiso   1.00
O316   O     0.13084   0.38814   0.14768   0.00000  Uiso   1.00
O317   O     0.07668   0.38961   0.19426   0.00000  Uiso   1.00
O318   O     0.20182   0.61278   0.35293   0.00000  Uiso   1.00
O319   O     0.25570   0.60858   0.30615   0.00000  Uiso   1.00
O320   O     0.22774   0.53821   0.25000   0.00000  Uiso   1.00
O321   O     0.10559   0.46179   0.24999   0.00000  Uiso   1.00
O322   O     0.16666   0.53823   0.18392   0.00000  Uiso   1.00
O323   O     0.16667   0.46177   0.31607   0.00000  Uiso   1.00
O324   O     0.16667   0.53823   0.31607   0.00000  Uiso   1.00
O325   O     0.16666   0.46177   0.18392   0.00000  Uiso   1.00
O326   O     0.25291   0.49464   0.35321   0.00000  Uiso   1.00
Zn327  Zn    0.16667   0.55104   0.25000   0.00000  Uiso   1.00
Zn328  Zn    0.16667   0.44896   0.25000   0.00000  Uiso   1.00
Br329  Br    0.41410   0.47710   0.36497   0.00000  Uiso   1.00
Br330  Br    0.58587   0.51456   0.12796   0.00000  Uiso   1.00
C331   C     0.42006   0.49997   0.25035   0.00000  Uiso   1.00
C332   C     0.37582   0.49997   0.25063   0.00000  Uiso   1.00
C333   C     0.52225   0.35736   0.28202   0.00000  Uiso   1.00
C334   C     0.47737   0.64271   0.21832   0.00000  Uiso   1.00
C335   C     0.47739   0.35714   0.21836   0.00000  Uiso   1.00
C336   C     0.52247   0.64289   0.28180   0.00000  Uiso   1.00
C337   C     0.49928   0.49989   0.16374   0.00000  Uiso   1.00
C338   C     0.50033   0.50001   0.33630   0.00000  Uiso   1.00
C339   C     0.53687   0.50223   0.40923   0.00000  Uiso   1.00
C340   C     0.45951   0.49576   0.09251   0.00000  Uiso   1.00
C341   C     0.49952   0.49951   0.38406   0.00000  Uiso   1.00
C342   C     0.57992   0.50002   0.24931   0.00000  Uiso   1.00
C343   C     0.49789   0.49914   0.11598   0.00000  Uiso   1.00
C344   C     0.46121   0.49372   0.40394   0.00000  Uiso   1.00
C345   C     0.53555   0.49735   0.09457   0.00000  Uiso   1.00
C346   C     0.45942   0.49629   0.45099   0.00000  Uiso   1.00
C347   C     0.53529   0.48907   0.04847   0.00000  Uiso   1.00
C348   C     0.49735   0.49460   0.47655   0.00000  Uiso   1.00
C349   C     0.49723   0.49277   0.02353   0.00000  Uiso   1.00
C350   C     0.53579   0.49507   0.45532   0.00000  Uiso   1.00
C351   C     0.45927   0.49533   0.04554   0.00000  Uiso   1.00
C352   C     0.42174   0.49989   0.47371   0.00000  Uiso   1.00
C353   C     0.42216   0.49947   0.02018   0.00000  Uiso   1.00
C354   C     0.57179   0.47870   0.02600   0.00000  Uiso   1.00
C355   C     0.57679   0.51303   0.38794   0.00000  Uiso   1.00
C356   C     0.42014   0.49332   0.11710   0.00000  Uiso   1.00
C357   C     0.38136   0.50823   0.45113   0.00000  Uiso   1.00
C358   C     0.60729   0.45438   0.04737   0.00000  Uiso   1.00
C359   C     0.54591   0.38118   0.31778   0.00000  Uiso   1.00
C360   C     0.45182   0.61926   0.18387   0.00000  Uiso   1.00
C361   C     0.45117   0.38071   0.18487   0.00000  Uiso   1.00
C362   C     0.54827   0.61929   0.31562   0.00000  Uiso   1.00
C363   C     0.57218   0.48487   0.48004   0.00000  Uiso   1.00
C364   C     0.35450   0.45930   0.25182   0.00000  Uiso   1.00
C365   C     0.64545   0.54066   0.24734   0.00000  Uiso   1.00
C366   C     0.64534   0.45927   0.25012   0.00000  Uiso   1.00
C367   C     0.35460   0.54067   0.24909   0.00000  Uiso   1.00
C368   C     0.62413   0.49999   0.24862   0.00000  Uiso   1.00
H369   H     0.39301   0.50449   0.03624   0.00000  Uiso   1.00
H370   H     0.33444   0.43830   0.04546   0.00000  Uiso   1.00
H371   H     0.60057   0.40784   0.33877   0.00000  Uiso   1.00
H372   H     0.39417   0.60079   0.16317   0.00000  Uiso   1.00
H373   H     0.39380   0.40239   0.16773   0.00000  Uiso   1.00
H374   H     0.60463   0.59459   0.33249   0.00000  Uiso   1.00
H375   H     0.60037   0.47786   0.46303   0.00000  Uiso   1.00
H376   H     0.37041   0.42757   0.25437   0.00000  Uiso   1.00
H377   H     0.62954   0.57241   0.24496   0.00000  Uiso   1.00
H378   H     0.62936   0.42744   0.25006   0.00000  Uiso   1.00
H379   H     0.37060   0.57249   0.24938   0.00000  Uiso   1.00
H380   H     0.63006   0.54849   0.39140   0.00000  Uiso   1.00
H381   H     0.36456   0.46365   0.12350   0.00000  Uiso   1.00
H382   H     0.66140   0.48138   0.42664   0.00000  Uiso   1.00
N383   N     0.50000   0.61907   0.25000   0.00000  Uiso   1.00
N384   N     0.50000   0.38093   0.25000   0.00000  Uiso   1.00
O385   O     0.43892   0.53821   0.24999   0.00000  Uiso   1.00
O386   O     0.60365   0.54438   0.40830   0.00000  Uiso   1.00
O387   O     0.41387   0.51935   0.14767   0.00000  Uiso   1.00
O388   O     0.39035   0.46104   0.10526   0.00000  Uiso   1.00
O389   O     0.37360   0.54513   0.43537   0.00000  Uiso   1.00
O390   O     0.35263   0.47334   0.44694   0.00000  Uiso   1.00
O391   O     0.60149   0.42787   0.07767   0.00000  Uiso   1.00
O392   O     0.64696   0.45950   0.03087   0.00000  Uiso   1.00
O393   O     0.53088   0.38600   0.35446   0.00000  Uiso   1.00
O394   O     0.58669   0.39422   0.31098   0.00000  Uiso   1.00
O395   O     0.46622   0.61091   0.14751   0.00000  Uiso   1.00
O396   O     0.56108   0.46179   0.25000   0.00000  Uiso   1.00
O397   O     0.40978   0.61246   0.19081   0.00000  Uiso   1.00
O398   O     0.46417   0.38814   0.14768   0.00000  Uiso   1.00
O399   O     0.41002   0.38961   0.19426   0.00000  Uiso   1.00
O400   O     0.53516   0.61278   0.35293   0.00000  Uiso   1.00
O401   O     0.58904   0.60858   0.30615   0.00000  Uiso   1.00
O402   O     0.56108   0.53821   0.25000   0.00000  Uiso   1.00
O403   O     0.43892   0.46179   0.24999   0.00000  Uiso   1.00
O404   O     0.49999   0.53823   0.18392   0.00000  Uiso   1.00
O405   O     0.50001   0.46177   0.31607   0.00000  Uiso   1.00
O406   O     0.50001   0.53823   0.31607   0.00000  Uiso   1.00
O407   O     0.49999   0.46177   0.18392   0.00000  Uiso   1.00
O408   O     0.58625   0.49464   0.35321   0.00000  Uiso   1.00
Zn409  Zn    0.50000   0.55104   0.25000   0.00000  Uiso   1.00
Zn410  Zn    0.50000   0.44896   0.25000   0.00000  Uiso   1.00
Br411  Br    0.74743   0.47710   0.36497   0.00000  Uiso   1.00
Br412  Br    0.91920   0.51456   0.12796   0.00000  Uiso   1.00
C413   C     0.75339   0.49997   0.25035   0.00000  Uiso   1.00
C414   C     0.70916   0.49997   0.25063   0.00000  Uiso   1.00
C415   C     0.85558   0.35736   0.28202   0.00000  Uiso   1.00
C416   C     0.81070   0.64271   0.21832   0.00000  Uiso   1.00
C417   C     0.81072   0.35714   0.21836   0.00000  Uiso   1.00
C418   C     0.85581   0.64289   0.28180   0.00000  Uiso   1.00
C419   C     0.83261   0.49989   0.16374   0.00000  Uiso   1.00
C420   C     0.83367   0.50001   0.33630   0.00000  Uiso   1.00
C421   C     0.87021   0.50223   0.40923   0.00000  Uiso   1.00
C422   C     0.79284   0.49576   0.09251   0.00000  Uiso   1.00
C423   C     0.83285   0.49951   0.38406   0.00000  Uiso   1.00
C424   C     0.91325   0.50002   0.24931   0.00000  Uiso   1.00
C425   C     0.83123   0.49914   0.11598   0.00000  Uiso   1.00
C426   C     0.79455   0.49372   0.40394   0.00000  Uiso   1.00
C427   C     0.86888   0.49735   0.09457   0.00000  Uiso   1.00
C428   C     0.79275   0.49629   0.45099   0.00000  Uiso   1.00
C429   C     0.86862   0.48907   0.04847   0.00000  Uiso   1.00
C430   C     0.83069   0.49460   0.47655   0.00000  Uiso   1.00
C431   C     0.83056   0.49277   0.02353   0.00000  Uiso   1.00
C432   C     0.86913   0.49507   0.45532   0.00000  Uiso   1.00
C433   C     0.79260   0.49533   0.04554   0.00000  Uiso   1.00
C434   C     0.75508   0.49989   0.47371   0.00000  Uiso   1.00
C435   C     0.75550   0.49947   0.02018   0.00000  Uiso   1.00
C436   C     0.90512   0.47870   0.02600   0.00000  Uiso   1.00
C437   C     0.91012   0.51303   0.38794   0.00000  Uiso   1.00
C438   C     0.75347   0.49332   0.11710   0.00000  Uiso   1.00
C439   C     0.71469   0.50823   0.45113   0.00000  Uiso   1.00
C440   C     0.94063   0.45438   0.04737   0.00000  Uiso   1.00
C441   C     0.87924   0.38118   0.31778   0.00000  Uiso   1.00
C442   C     0.78515   0.61926   0.18387   0.00000  Uiso   1.00
C443   C     0.78451   0.38071   0.18487   0.00000  Uiso   1.00
C444   C     0.88160   0.61929   0.31562   0.00000  Uiso   1.00
C445   C     0.90551   0.48487   0.48004   0.00000  Uiso   1.00
C446   C     0.68783   0.45930   0.25182   0.00000  Uiso   1.00
C447   C     0.97878   0.54066   0.24734   0.00000  Uiso   1.00
C448   C     0.97868   0.45927   0.25012   0.00000  Uiso   1.00
C449   C     0.68794   0.54067   0.24909   0.00000  Uiso   1.00
C450   C     0.95746   0.49999   0.24862   0.00000  Uiso   1.00
H451   H     0.72635   0.50449   0.03624   0.00000  Uiso   1.00
H452   H     0.66777   0.43830   0.04546   0.00000  Uiso   1.00
H453   H     0.93390   0.40784   0.33877   0.00000  Uiso   1.00
H454   H     0.72751   0.60079   0.16317   0.00000  Uiso   1.00
H455   H     0.72713   0.40239   0.16773   0.00000  Uiso   1.00
H456   H     0.93797   0.59459   0.33249   0.00000  Uiso   1.00
H457   H     0.93371   0.47786   0.46303   0.00000  Uiso   1.00
H458   H     0.70374   0.42757   0.25437   0.00000  Uiso   1.00
H459   H     0.96287   0.57241   0.24496   0.00000  Uiso   1.00
H460   H     0.96269   0.42744   0.25006   0.00000  Uiso   1.00
H461   H     0.70393   0.57249   0.24938   0.00000  Uiso   1.00
H462   H     0.96339   0.54849   0.39140   0.00000  Uiso   1.00
H463   H     0.69789   0.46365   0.12350   0.00000  Uiso   1.00
H464   H     0.99473   0.48138   0.42664   0.00000  Uiso   1.00
N465   N     0.83333   0.61907   0.25000   0.00000  Uiso   1.00
N466   N     0.83333   0.38093   0.25000   0.00000  Uiso   1.00
O467   O     0.77226   0.53821   0.24999   0.00000  Uiso   1.00
O468   O     0.93699   0.54438   0.40830   0.00000  Uiso   1.00
O469   O     0.74720   0.51935   0.14767   0.00000  Uiso   1.00
O470   O     0.72368   0.46104   0.10526   0.00000  Uiso   1.00
O471   O     0.70693   0.54513   0.43537   0.00000  Uiso   1.00
O472   O     0.68597   0.47334   0.44694   0.00000  Uiso   1.00
O473   O     0.93483   0.42787   0.07767   0.00000  Uiso   1.00
O474   O     0.98030   0.45950   0.03087   0.00000  Uiso   1.00
O475   O     0.86421   0.38600   0.35446   0.00000  Uiso   1.00
O476   O     0.92003   0.39422   0.31098   0.00000  Uiso   1.00
O477   O     0.79955   0.61091   0.14751   0.00000  Uiso   1.00
O478   O     0.89441   0.46179   0.25000   0.00000  Uiso   1.00
O479   O     0.74312   0.61246   0.19081   0.00000  Uiso   1.00
O480   O     0.79751   0.38814   0.14768   0.00000  Uiso   1.00
O481   O     0.74335   0.38961   0.19426   0.00000  Uiso   1.00
O482   O     0.86849   0.61278   0.35293   0.00000  Uiso   1.00
O483   O     0.92237   0.60858   0.30615   0.00000  Uiso   1.00
O484   O     0.89441   0.53821   0.25000   0.00000  Uiso   1.00
O485   O     0.77226   0.46179   0.24999   0.00000  Uiso   1.00
O486   O     0.83333   0.53823   0.18392   0.00000  Uiso   1.00
O487   O     0.83334   0.46177   0.31607   0.00000  Uiso   1.00
O488   O     0.83334   0.53823   0.31607   0.00000  Uiso   1.00
O489   O     0.83333   0.46177   0.18392   0.00000  Uiso   1.00
O490   O     0.91958   0.49464   0.35321   0.00000  Uiso   1.00
Zn491  Zn    0.83333   0.55104   0.25000   0.00000  Uiso   1.00
Zn492  Zn    0.83333   0.44896   0.25000   0.00000  Uiso   1.00
Br493  Br    0.08076   0.81043   0.36497   0.00000  Uiso   1.00
Br494  Br    0.25254   0.84790   0.12796   0.00000  Uiso   1.00
C495   C     0.08673   0.83331   0.25035   0.00000  Uiso   1.00
C496   C     0.04249   0.83331   0.25063   0.00000  Uiso   1.00
C497   C     0.18891   0.69069   0.28202   0.00000  Uiso   1.00
C498   C     0.14403   0.97605   0.21832   0.00000  Uiso   1.00
C499   C     0.14405   0.69048   0.21836   0.00000  Uiso   1.00
C500   C     0.18914   0.97623   0.28180   0.00000  Uiso   1.00
C501   C     0.16595   0.83322   0.16374   0.00000  Uiso   1.00
C502   C     0.16700   0.83334   0.33630   0.00000  Uiso   1.00
C503   C     0.20354   0.83556   0.40923   0.00000  Uiso   1.00
C504   C     0.12617   0.82909   0.09251   0.00000  Uiso   1.00
C505   C     0.16619   0.83284   0.38406   0.00000  Uiso   1.00
C506   C     0.24658   0.83336   0.24931   0.00000  Uiso   1.00
C507   C     0.16456   0.83248   0.11598   0.00000  Uiso   1.00
C508   C     0.12788   0.82705   0.40394   0.00000  Uiso   1.00
C509   C     0.20222   0.83068   0.09457   0.00000  Uiso   1.00
C510   C     0.12609   0.82962   0.45099   0.00000  Uiso   1.00
C511   C     0.20196   0.82241   0.04847   0.00000  Uiso   1.00
C512   C     0.16402   0.82794   0.47655   0.00000  Uiso   1.00
C513   C     0.16389   0.82610   0.02353   0.00000  Uiso   1.00
C514   C     0.20246   0.82840   0.45532   0.00000  Uiso   1.00
C515   C     0.12593   0.82867   0.04554   0.00000  Uiso   1.00
C516   C     0.08841   0.83323   0.47371   0.00000  Uiso   1.00
C517   C     0.08883   0.83280   0.02018   0.00000  Uiso   1.00
C518   C     0.23845   0.81204   0.02600   0.00000  Uiso   1.00
C519   C     0.24346   0.84636   0.38794   0.00000  Uiso   1.00
C520   C     0.08681   0.82665   0.11710   0.00000  Uiso   1.00
C521   C     0.04803   0.84157   0.45113   0.00000  Uiso   1.00
C522   C     0.27396   0.78771   0.04737   0.00000  Uiso   1.00
C523   C     0.21258   0.71451   0.31778   0.00000  Uiso   1.00
C524   C     0.11849   0.95260   0.18387   0.00000  Uiso   1.00
C525   C     0.11784   0.71404   0.18487   0.00000  Uiso   1.00
C526   C     0.21494   0.95262   0.31562   0.00000  Uiso   1.00
C527   C     0.23885   0.81821   0.48004   0.00000  Uiso   1.00
C528   C     0.02116   0.79263   0.25182   0.00000  Uiso   1.00
C529   C     0.31212   0.87400   0.24734   0.00000  Uiso   1.00
C530   C     0.31201   0.79261   0.25012   0.00000  Uiso   1.00
C531   C     0.02127   0.87401   0.24909   0.00000  Uiso   1.00
C532   C     0.29079   0.83332   0.24862   0.00000  Uiso   1.00
H533   H     0.05968   0.83782   0.03624   0.00000  Uiso   1.00
H534   H     0.00110   0.77163   0.04546   0.00000  Uiso   1.00
H535   H     0.26723   0.74118   0.33877   0.00000  Uiso   1.00
H536   H     0.06084   0.93412   0.16317   0.00000  Uiso   1.00
H537   H     0.06047   0.73573   0.16773   0.00000  Uiso   1.00
H538   H     0.27130   0.92793   0.33249   0.00000  Uiso   1.00
H539   H     0.26704   0.81119   0.46303   0.00000  Uiso   1.00
H540   H     0.03707   0.76090   0.25437   0.00000  Uiso   1.00
H541   H     0.29620   0.90575   0.24496   0.00000  Uiso   1.00
H542   H     0.29602   0.76077   0.25006   0.00000  Uiso   1.00
H543   H     0.03726   0.90582   0.24938   0.00000  Uiso   1.00
H544   H     0.29672   0.88183   0.39140   0.00000  Uiso   1.00
H545   H     0.03122   0.79699   0.12350   0.00000  Uiso   1.00
H546   H     0.32806   0.81471   0.42664   0.00000  Uiso   1.00
N547   N     0.16667   0.95240   0.25000   0.00000  Uiso   1.00
N548   N     0.16667   0.71427   0.25000   0.00000  Uiso   1.00
O549   O     0.10559   0.87154   0.24999   0.00000  Uiso   1.00
O550   O     0.27032   0.87771   0.40830   0.00000  Uiso   1.00
O551   O     0.08054   0.85268   0.14767   0.00000  Uiso   1.00
O552   O     0.05701   0.79438   0.10526   0.00000  Uiso   1.00
O553   O     0.04027   0.87846   0.43537   0.00000  Uiso   1.00
O554   O     0.01930   0.80668   0.44694   0.00000  Uiso   1.00
O555   O     0.26816   0.76120   0.07767   0.00000  Uiso   1.00
O556   O     0.31363   0.79283   0.03087   0.00000  Uiso   1.00
O557   O     0.19755   0.71934   0.35446   0.00000  Uiso   1.00
O558   O     0.25336   0.72756   0.31098   0.00000  Uiso   1.00
O559   O     0.13289   0.94425   0.14751   0.00000  Uiso   1.00
O560   O     0.22774   0.79513   0.25000   0.00000  Uiso   1.00
O561   O     0.07645   0.94579   0.19081   0.00000  Uiso   1.00
O562   O     0.13084   0.72147   0.14768   0.00000  Uiso   1.00
O563   O     0.07668   0.72295   0.19426   0.00000  Uiso   1.00
O564   O     0.20182   0.94611   0.35293   0.00000  Uiso   1.00
O565   O     0.25570   0.94191   0.30615   0.00000  Uiso   1.00
O566   O     0.22774   0.87154   0.25000   0.00000  Uiso   1.00
O567   O     0.10559   0.79513   0.24999   0.00000  Uiso   1.00
O568   O     0.16666   0.87156   0.18392   0.00000  Uiso   1.00
O569   O     0.16667   0.79511   0.31607   0.00000  Uiso   1.00
O570   O     0.16667   0.87156   0.31607   0.00000  Uiso   1.00
O571   O     0.16666   0.79511   0.18392   0.00000  Uiso   1.00
O572   O     0.25291   0.82798   0.35321   0.00000  Uiso   1.00
Zn573  Zn    0.16667   0.88437   0.25000   0.00000  Uiso   1.00
Zn574  Zn    0.16667   0.78229   0.25000   0.00000  Uiso   1.00
Br575  Br    0.41410   0.81043   0.36497   0.00000  Uiso   1.00
Br576  Br    0.58587   0.84790   0.12796   0.00000  Uiso   1.00
C577   C     0.42006   0.83331   0.25035   0.00000  Uiso   1.00
C578   C     0.37582   0.83331   0.25063   0.00000  Uiso   1.00
C579   C     0.52225   0.69069   0.28202   0.00000  Uiso   1.00
C580   C     0.47737   0.97605   0.21832   0.00000  Uiso   1.00
C581   C     0.47739   0.69048   0.21836   0.00000  Uiso   1.00
C582   C     0.52247   0.97623   0.28180   0.00000  Uiso   1.00
C583   C     0.49928   0.83322   0.16374   0.00000  Uiso   1.00
C584   C     0.50033   0.83334   0.33630   0.00000  Uiso   1.00
C585   C     0.53687   0.83556   0.40923   0.00000  Uiso   1.00
C586   C     0.45951   0.82909   0.09251   0.00000  Uiso   1.00
C587   C     0.49952   0.83284   0.38406   0.00000  Uiso   1.00
C588   C     0.57992   0.83336   0.24931   0.00000  Uiso   1.00
C589   C     0.49789   0.83248   0.11598   0.00000  Uiso   1.00
C590   C     0.46121   0.82705   0.40394   0.00000  Uiso   1.00
C591   C     0.53555   0.83068   0.09457   0.00000  Uiso   1.00
C592   C     0.45942   0.82962   0.45099   0.00000  Uiso   1.00
C593   C     0.53529   0.82241   0.04847   0.00000  Uiso   1.00
C594   C     0.49735   0.82794   0.47655   0.00000  Uiso   1.00
C595   C     0.49723   0.82610   0.02353   0.00000  Uiso   1.00
C596   C     0.53579   0.82840   0.45532   0.00000  Uiso   1.00
C597   C     0.45927   0.82867   0.04554   0.00000  Uiso   1.00
C598   C     0.42174   0.83323   0.47371   0.00000  Uiso   1.00
C599   C     0.42216   0.83280   0.02018   0.00000  Uiso   1.00
C600   C     0.57179   0.81204   0.02600   0.00000  Uiso   1.00
C601   C     0.57679   0.84636   0.38794   0.00000  Uiso   1.00
C602   C     0.42014   0.82665   0.11710   0.00000  Uiso   1.00
C603   C     0.38136   0.84157   0.45113   0.00000  Uiso   1.00
C604   C     0.60729   0.78771   0.04737   0.00000  Uiso   1.00
C605   C     0.54591   0.71451   0.31778   0.00000  Uiso   1.00
C606   C     0.45182   0.95260   0.18387   0.00000  Uiso   1.00
C607   C     0.45117   0.71404   0.18487   0.00000  Uiso   1.00
C608   C     0.54827   0.95262   0.31562   0.00000  Uiso   1.00
C609   C     0.57218   0.81821   0.48004   0.00000  Uiso   1.00
C610   C     0.35450   0.79263   0.25182   0.00000  Uiso   1.00
C611   C     0.64545   0.87400   0.24734   0.00000  Uiso   1.00
C612   C     0.64534   0.79261   0.25012   0.00000  Uiso   1.00
C613   C     0.35460   0.87401   0.24909   0.00000  Uiso   1.00
C614   C     0.62413   0.83332   0.24862   0.00000  Uiso   1.00
H615   H     0.39301   0.83782   0.03624   0.00000  Uiso   1.00
H616   H     0.33444   0.77163   0.04546   0.00000  Uiso   1.00
H617   H     0.60057   0.74118   0.33877   0.00000  Uiso   1.00
H618   H     0.39417   0.93412   0.16317   0.00000  Uiso   1.00
H619   H     0.39380   0.73573   0.16773   0.00000  Uiso   1.00
H620   H     0.60463   0.92793   0.33249   0.00000  Uiso   1.00
H621   H     0.60037   0.81119   0.46303   0.00000  Uiso   1.00
H622   H     0.37041   0.76090   0.25437   0.00000  Uiso   1.00
H623   H     0.62954   0.90575   0.24496   0.00000  Uiso   1.00
H624   H     0.62936   0.76077   0.25006   0.00000  Uiso   1.00
H625   H     0.37060   0.90582   0.24938   0.00000  Uiso   1.00
H626   H     0.63006   0.88183   0.39140   0.00000  Uiso   1.00
H627   H     0.36456   0.79699   0.12350   0.00000  Uiso   1.00
H628   H     0.66140   0.81471   0.42664   0.00000  Uiso   1.00
N629   N     0.50000   0.95240   0.25000   0.00000  Uiso   1.00
N630   N     0.50000   0.71427   0.25000   0.00000  Uiso   1.00
O631   O     0.43892   0.87154   0.24999   0.00000  Uiso   1.00
O632   O     0.60365   0.87771   0.40830   0.00000  Uiso   1.00
O633   O     0.41387   0.85268   0.14767   0.00000  Uiso   1.00
O634   O     0.39035   0.79438   0.10526   0.00000  Uiso   1.00
O635   O     0.37360   0.87846   0.43537   0.00000  Uiso   1.00
O636   O     0.35263   0.80668   0.44694   0.00000  Uiso   1.00
O637   O     0.60149   0.76120   0.07767   0.00000  Uiso   1.00
O638   O     0.64696   0.79283   0.03087   0.00000  Uiso   1.00
O639   O     0.53088   0.71934   0.35446   0.00000  Uiso   1.00
O640   O     0.58669   0.72756   0.31098   0.00000  Uiso   1.00
O641   O     0.46622   0.94425   0.14751   0.00000  Uiso   1.00
O642   O     0.56108   0.79513   0.25000   0.00000  Uiso   1.00
O643   O     0.40978   0.94579   0.19081   0.00000  Uiso   1.00
O644   O     0.46417   0.72147   0.14768   0.00000  Uiso   1.00
O645   O     0.41002   0.72295   0.19426   0.00000  Uiso   1.00
O646   O     0.53516   0.94611   0.35293   0.00000  Uiso   1.00
O647   O     0.58904   0.94191   0.30615   0.00000  Uiso   1.00
O648   O     0.56108   0.87154   0.25000   0.00000  Uiso   1.00
O649   O     0.43892   0.79513   0.24999   0.00000  Uiso   1.00
O650   O     0.49999   0.87156   0.18392   0.00000  Uiso   1.00
O651   O     0.50001   0.79511   0.31607   0.00000  Uiso   1.00
O652   O     0.50001   0.87156   0.31607   0.00000  Uiso   1.00
O653   O     0.49999   0.79511   0.18392   0.00000  Uiso   1.00
O654   O     0.58625   0.82798   0.35321   0.00000  Uiso   1.00
Zn655  Zn    0.50000   0.88437   0.25000   0.00000  Uiso   1.00
Zn656  Zn    0.50000   0.78229   0.25000   0.00000  Uiso   1.00
Br657  Br    0.74743   0.81043   0.36497   0.00000  Uiso   1.00
Br658  Br    0.91920   0.84790   0.12796   0.00000  Uiso   1.00
C659   C     0.75339   0.83331   0.25035   0.00000  Uiso   1.00
C660   C     0.70916   0.83331   0.25063   0.00000  Uiso   1.00
C661   C     0.85558   0.69069   0.28202   0.00000  Uiso   1.00
C662   C     0.81070   0.97605   0.21832   0.00000  Uiso   1.00
C663   C     0.81072   0.69048   0.21836   0.00000  Uiso   1.00
C664   C     0.85581   0.97623   0.28180   0.00000  Uiso   1.00
C665   C     0.83261   0.83322   0.16374   0.00000  Uiso   1.00
C666   C     0.83367   0.83334   0.33630   0.00000  Uiso   1.00
C667   C     0.87021   0.83556   0.40923   0.00000  Uiso   1.00
C668   C     0.79284   0.82909   0.09251   0.00000  Uiso   1.00
C669   C     0.83285   0.83284   0.38406   0.00000  Uiso   1.00
C670   C     0.91325   0.83336   0.24931   0.00000  Uiso   1.00
C671   C     0.83123   0.83248   0.11598   0.00000  Uiso   1.00
C672   C     0.79455   0.82705   0.40394   0.00000  Uiso   1.00
C673   C     0.86888   0.83068   0.09457   0.00000  Uiso   1.00
C674   C     0.79275   0.82962   0.45099   0.00000  Uiso   1.00
C675   C     0.86862   0.82241   0.04847   0.00000  Uiso   1.00
C676   C     0.83069   0.82794   0.47655   0.00000  Uiso   1.00
C677   C     0.83056   0.82610   0.02353   0.00000  Uiso   1.00
C678   C     0.86913   0.82840   0.45532   0.00000  Uiso   1.00
C679   C     0.79260   0.82867   0.04554   0.00000  Uiso   1.00
C680   C     0.75508   0.83323   0.47371   0.00000  Uiso   1.00
C681   C     0.75550   0.83280   0.02018   0.00000  Uiso   1.00
C682   C     0.90512   0.81204   0.02600   0.00000  Uiso   1.00
C683   C     0.91012   0.84636   0.38794   0.00000  Uiso   1.00
C684   C     0.75347   0.82665   0.11710   0.00000  Uiso   1.00
C685   C     0.71469   0.84157   0.45113   0.00000  Uiso   1.00
C686   C     0.94063   0.78771   0.04737   0.00000  Uiso   1.00
C687   C     0.87924   0.71451   0.31778   0.00000  Uiso   1.00
C688   C     0.78515   0.95260   0.18387   0.00000  Uiso   1.00
C689   C     0.78451   0.71404   0.18487   0.00000  Uiso   1.00
C690   C     0.88160   0.95262   0.31562   0.00000  Uiso   1.00
C691   C     0.90551   0.81821   0.48004   0.00000  Uiso   1.00
C692   C     0.68783   0.79263   0.25182   0.00000  Uiso   1.00
C693   C     0.97878   0.87400   0.24734   0.00000  Uiso   1.00
C694   C     0.97868   0.79261   0.25012   0.00000  Uiso   1.00
C695   C     0.68794   0.87401   0.24909   0.00000  Uiso   1.00
C696   C     0.95746   0.83332   0.24862   0.00000  Uiso   1.00
H697   H     0.72635   0.83782   0.03624   0.00000  Uiso   1.00
H698   H     0.66777   0.77163   0.04546   0.00000  Uiso   1.00
H699   H     0.93390   0.74118   0.33877   0.00000  Uiso   1.00
H700   H     0.72751   0.93412   0.16317   0.00000  Uiso   1.00
H701   H     0.72713   0.73573   0.16773   0.00000  Uiso   1.00
H702   H     0.93797   0.92793   0.33249   0.00000  Uiso   1.00
H703   H     0.93371   0.81119   0.46303   0.00000  Uiso   1.00
H704   H     0.70374   0.76090   0.25437   0.00000  Uiso   1.00
H705   H     0.96287   0.90575   0.24496   0.00000  Uiso   1.00
H706   H     0.96269   0.76077   0.25006   0.00000  Uiso   1.00
H707   H     0.70393   0.90582   0.24938   0.00000  Uiso   1.00
H708   H     0.96339   0.88183   0.39140   0.00000  Uiso   1.00
H709   H     0.69789   0.79699   0.12350   0.00000  Uiso   1.00
H710   H     0.99473   0.81471   0.42664   0.00000  Uiso   1.00
N711   N     0.83333   0.95240   0.25000   0.00000  Uiso   1.00
N712   N     0.83333   0.71427   0.25000   0.00000  Uiso   1.00
O713   O     0.77226   0.87154   0.24999   0.00000  Uiso   1.00
O714   O     0.93699   0.87771   0.40830   0.00000  Uiso   1.00
O715   O     0.74720   0.85268   0.14767   0.00000  Uiso   1.00
O716   O     0.72368   0.79438   0.10526   0.00000  Uiso   1.00
O717   O     0.70693   0.87846   0.43537   0.00000  Uiso   1.00
O718   O     0.68597   0.80668   0.44694   0.00000  Uiso   1.00
O719   O     0.93483   0.76120   0.07767   0.00000  Uiso   1.00
O720   O     0.98030   0.79283   0.03087   0.00000  Uiso   1.00
O721   O     0.86421   0.71934   0.35446   0.00000  Uiso   1.00
O722   O     0.92003   0.72756   0.31098   0.00000  Uiso   1.00
O723   O     0.79955   0.94425   0.14751   0.00000  Uiso   1.00
O724   O     0.89441   0.79513   0.25000   0.00000  Uiso   1.00
O725   O     0.74312   0.94579   0.19081   0.00000  Uiso   1.00
O726   O     0.79751   0.72147   0.14768   0.00000  Uiso   1.00
O727   O     0.74335   0.72295   0.19426   0.00000  Uiso   1.00
O728   O     0.86849   0.94611   0.35293   0.00000  Uiso   1.00
O729   O     0.92237   0.94191   0.30615   0.00000  Uiso   1.00
O730   O     0.89441   0.87154   0.25000   0.00000  Uiso   1.00
O731   O     0.77226   0.79513   0.24999   0.00000  Uiso   1.00
O732   O     0.83333   0.87156   0.18392   0.00000  Uiso   1.00
O733   O     0.83334   0.79511   0.31607   0.00000  Uiso   1.00
O734   O     0.83334   0.87156   0.31607   0.00000  Uiso   1.00
O735   O     0.83333   0.79511   0.18392   0.00000  Uiso   1.00
O736   O     0.91958   0.82798   0.35321   0.00000  Uiso   1.00
Zn737  Zn    0.83333   0.88437   0.25000   0.00000  Uiso   1.00
Zn738  Zn    0.83333   0.78229   0.25000   0.00000  Uiso   1.00
Br739  Br    0.08076   0.14377   0.86497   0.00000  Uiso   1.00
Br740  Br    0.25254   0.18123   0.62796   0.00000  Uiso   1.00
C741   C     0.08673   0.16664   0.75035   0.00000  Uiso   1.00
C742   C     0.04249   0.16664   0.75063   0.00000  Uiso   1.00
C743   C     0.18891   0.02403   0.78202   0.00000  Uiso   1.00
C744   C     0.14403   0.30938   0.71832   0.00000  Uiso   1.00
C745   C     0.14405   0.02381   0.71836   0.00000  Uiso   1.00
C746   C     0.18914   0.30956   0.78180   0.00000  Uiso   1.00
C747   C     0.16595   0.16656   0.66374   0.00000  Uiso   1.00
C748   C     0.16700   0.16668   0.83630   0.00000  Uiso   1.00
C749   C     0.20354   0.16889   0.90923   0.00000  Uiso   1.00
C750   C     0.12617   0.16242   0.59251   0.00000  Uiso   1.00
C751   C     0.16619   0.16618   0.88406   0.00000  Uiso   1.00
C752   C     0.24658   0.16669   0.74931   0.00000  Uiso   1.00
C753   C     0.16456   0.16581   0.61598   0.00000  Uiso   1.00
C754   C     0.12788   0.16038   0.90394   0.00000  Uiso   1.00
C755   C     0.20222   0.16401   0.59457   0.00000  Uiso   1.00
C756   C     0.12609   0.16295   0.95099   0.00000  Uiso   1.00
C757   C     0.20196   0.15574   0.54847   0.00000  Uiso   1.00
C758   C     0.16402   0.16127   0.97655   0.00000  Uiso   1.00
C759   C     0.16389   0.15944   0.52353   0.00000  Uiso   1.00
C760   C     0.20246   0.16174   0.95532   0.00000  Uiso   1.00
C761   C     0.12593   0.16200   0.54554   0.00000  Uiso   1.00
C762   C     0.08841   0.16656   0.97371   0.00000  Uiso   1.00
C763   C     0.08883   0.16613   0.52018   0.00000  Uiso   1.00
C764   C     0.23845   0.14537   0.52600   0.00000  Uiso   1.00
C765   C     0.24346   0.17970   0.88794   0.00000  Uiso   1.00
C766   C     0.08681   0.15998   0.61710   0.00000  Uiso   1.00
C767   C     0.04803   0.17490   0.95113   0.00000  Uiso   1.00
C768   C     0.27396   0.12105   0.54737   0.00000  Uiso   1.00
C769   C     0.21258   0.04785   0.81778   0.00000  Uiso   1.00
C770   C     0.11849   0.28593   0.68387   0.00000  Uiso   1.00
C771   C     0.11784   0.04737   0.68487   0.00000  Uiso   1.00
C772   C     0.21494   0.28595   0.81562   0.00000  Uiso   1.00
C773   C     0.23885   0.15154   0.98004   0.00000  Uiso   1.00
C774   C     0.02116   0.12597   0.75182   0.00000  Uiso   1.00
C775   C     0.31212   0.20733   0.74734   0.00000  Uiso   1.00
C776   C     0.31201   0.12594   0.75012   0.00000  Uiso   1.00
C777   C     0.02127   0.20734   0.74909   0.00000  Uiso   1.00
C778   C     0.29079   0.16666   0.74862   0.00000  Uiso   1.00
H779   H     0.05968   0.17115   0.53624   0.00000  Uiso   1.00
H780   H     0.00110   0.10496   0.54546   0.00000  Uiso   1.00
H781   H     0.26723   0.07451   0.83877   0.00000  Uiso   1.00
H782   H     0.06084   0.26745   0.66317   0.00000  Uiso   1.00
H783   H     0.06047   0.06906   0.66773   0.00000  Uiso   1.00
H784   H     0.27130   0.26126   0.83249   0.00000  Uiso   1.00
H785   H     0.26704   0.14453   0.96303   0.00000  Uiso   1.00
H786   H     0.03707   0.09424   0.75437   0.00000  Uiso   1.00
H787   H     0.29620   0.23908   0.74496   0.00000  Uiso   1.00
H788   H     0.29602   0.09410   0.75006   0.00000  Uiso   1.00
H789   H     0.03726   0.23915   0.74938   0.00000  Uiso   1.00
H790   H     0.29672   0.21516   0.89140   0.00000  Uiso   1.00
H791   H     0.03122   0.13032   0.62350   0.00000  Uiso   1.00
H792   H     0.32806   0.14804   0.92664   0.00000  Uiso   1.00
N793   N     0.16667   0.28573   0.75000   0.00000  Uiso   1.00
N794   N     0.16667   0.04760   0.75000   0.00000  Uiso   1.00
O795   O     0.10559   0.20487   0.74999   0.00000  Uiso   1.00
O796   O     0.27032   0.21104   0.90830   0.00000  Uiso   1.00
O797   O     0.08054   0.18601   0.64767   0.00000  Uiso   1.00
O798   O     0.05701   0.12771   0.60526   0.00000  Uiso   1.00
O799   O     0.04027   0.21180   0.93537   0.00000  Uiso   1.00
O800   O     0.01930   0.14001   0.94694   0.00000  Uiso   1.00
O801   O     0.26816   0.09454   0.57767   0.00000  Uiso   1.00
O802   O     0.31363   0.12616   0.53087   0.00000  Uiso   1.00
O803   O     0.19755   0.05267   0.85446   0.00000  Uiso   1.00
O804   O     0.25336   0.06089   0.81098   0.00000  Uiso   1.00
O805   O     0.13289   0.27758   0.64751   0.00000  Uiso   1.00
O806   O     0.22774   0.12846   0.75000   0.00000  Uiso   1.00
O807   O     0.07645   0.27913   0.69081   0.00000  Uiso   1.00
O808   O     0.13084   0.05481   0.64768   0.00000  Uiso   1.00
O809   O     0.07668   0.05628   0.69426   0.00000  Uiso   1.00
O810   O     0.20182   0.27944   0.85293   0.00000  Uiso   1.00
O811   O     0.25570   0.27524   0.80615   0.00000  Uiso   1.00
O812   O     0.22774   0.20487   0.75000   0.00000  Uiso   1.00
O813   O     0.10559   0.12846   0.74999   0.00000  Uiso   1.00
O814   O     0.16666   0.20489   0.68392   0.00000  Uiso   1.00
O815   O     0.16667   0.12844   0.81607   0.00000  Uiso   1.00
O816   O     0.16667   0.20489   0.81607   0.00000  Uiso   1.00
O817   O     0.16666   0.12844   0.68392   0.00000  Uiso   1.00
O818   O     0.25291   0.16131   0.85321   0.00000  Uiso   1.00
Zn819  Zn    0.16667   0.21771   0.75000   0.00000  Uiso   1.00
Zn820  Zn    0.16667   0.11563   0.75000   0.00000  Uiso   1.00
Br821  Br    0.41410   0.14377   0.86497   0.00000  Uiso   1.00
Br822  Br    0.58587   0.18123   0.62796   0.00000  Uiso   1.00
C823   C     0.42006   0.16664   0.75035   0.00000  Uiso   1.00
C824   C     0.37582   0.16664   0.75063   0.00000  Uiso   1.00
C825   C     0.52225   0.02403   0.78202   0.00000  Uiso   1.00
C826   C     0.47737   0.30938   0.71832   0.00000  Uiso   1.00
C827   C     0.47739   0.02381   0.71836   0.00000  Uiso   1.00
C828   C     0.52247   0.30956   0.78180   0.00000  Uiso   1.00
C829   C     0.49928   0.16656   0.66374   0.00000  Uiso   1.00
C830   C     0.50033   0.16668   0.83630   0.00000  Uiso   1.00
C831   C     0.53687   0.16889   0.90923   0.00000  Uiso   1.00
C832   C     0.45951   0.16242   0.59251   0.00000  Uiso   1.00
C833   C     0.49952   0.16618   0.88406   0.00000  Uiso   1.00
C834   C     0.57992   0.16669   0.74931   0.00000  Uiso   1.00
C835   C     0.49789   0.16581   0.61598   0.00000  Uiso   1.00
C836   C     0.46121   0.16038   0.90394   0.00000  Uiso   1.00
C837   C     0.53555   0.16401   0.59457   0.00000  Uiso   1.00
C838   C     0.45942   0.16295   0.95099   0.00000  Uiso   1.00
C839   C     0.53529   0.15574   0.54847   0.00000  Uiso   1.00
C840   C     0.49735   0.16127   0.97655   0.00000  Uiso   1.00
C841   C     0.49723   0.15944   0.52353   0.00000  Uiso   1.00
C842   C     0.53579   0.16174   0.95532   0.00000  Uiso   1.00
C843   C     0.45927   0.16200   0.54554   0.00000  Uiso   1.00
C844   C     0.42174   0.16656   0.97371   0.00000  Uiso   1.00
C845   C     0.42216   0.16613   0.52018   0.00000  Uiso   1.00
C846   C     0.57179   0.14537   0.52600   0.00000  Uiso   1.00
C847   C     0.57679   0.17970   0.88794   0.00000  Uiso   1.00
C848   C     0.42014   0.15998   0.61710   0.00000  Uiso   1.00
C849   C     0.38136   0.17490   0.95113   0.00000  Uiso   1.00
C850   C     0.60729   0.12105   0.54737   0.00000  Uiso   1.00
C851   C     0.54591   0.04785   0.81778   0.00000  Uiso   1.00
C852   C     0.45182   0.28593   0.68387   0.00000  Uiso   1.00
C853   C     0.45117   0.04737   0.68487   0.00000  Uiso   1.00
C854   C     0.54827   0.28595   0.81562   0.00000  Uiso   1.00
C855   C     0.57218   0.15154   0.98004   0.00000  Uiso   1.00
C856   C     0.35450   0.12597   0.75182   0.00000  Uiso   1.00
C857   C     0.64545   0.20733   0.74734   0.00000  Uiso   1.00
C858   C     0.64534   0.12594   0.75012   0.00000  Uiso   1.00
C859   C     0.35460   0.20734   0.74909   0.00000  Uiso   1.00
C860   C     0.62413   0.16666   0.74862   0.00000  Uiso   1.00
H861   H     0.39301   0.17115   0.53624   0.00000  Uiso   1.00
H862   H     0.33444   0.10496   0.54546   0.00000  Uiso   1.00
H863   H     0.60057   0.07451   0.83877   0.00000  Uiso   1.00
H864   H     0.39417   0.26745   0.66317   0.00000  Uiso   1.00
H865   H     0.39380   0.06906   0.66773   0.00000  Uiso   1.00
H866   H     0.60463   0.26126   0.83249   0.00000  Uiso   1.00
H867   H     0.60037   0.14453   0.96303   0.00000  Uiso   1.00
H868   H     0.37041   0.09424   0.75437   0.00000  Uiso   1.00
H869   H     0.62954   0.23908   0.74496   0.00000  Uiso   1.00
H870   H     0.62936   0.09410   0.75006   0.00000  Uiso   1.00
H871   H     0.37060   0.23915   0.74938   0.00000  Uiso   1.00
H872   H     0.63006   0.21516   0.89140   0.00000  Uiso   1.00
H873   H     0.36456   0.13032   0.62350   0.00000  Uiso   1.00
H874   H     0.66140   0.14804   0.92664   0.00000  Uiso   1.00
N875   N     0.50000   0.28573   0.75000   0.00000  Uiso   1.00
N876   N     0.50000   0.04760   0.75000   0.00000  Uiso   1.00
O877   O     0.43892   0.20487   0.74999   0.00000  Uiso   1.00
O878   O     0.60365   0.21104   0.90830   0.00000  Uiso   1.00
O879   O     0.41387   0.18601   0.64767   0.00000  Uiso   1.00
O880   O     0.39035   0.12771   0.60526   0.00000  Uiso   1.00
O881   O     0.37360   0.21180   0.93537   0.00000  Uiso   1.00
O882   O     0.35263   0.14001   0.94694   0.00000  Uiso   1.00
O883   O     0.60149   0.09454   0.57767   0.00000  Uiso   1.00
O884   O     0.64696   0.12616   0.53087   0.00000  Uiso   1.00
O885   O     0.53088   0.05267   0.85446   0.00000  Uiso   1.00
O886   O     0.58669   0.06089   0.81098   0.00000  Uiso   1.00
O887   O     0.46622   0.27758   0.64751   0.00000  Uiso   1.00
O888   O     0.56108   0.12846   0.75000   0.00000  Uiso   1.00
O889   O     0.40978   0.27913   0.69081   0.00000  Uiso   1.00
O890   O     0.46417   0.05481   0.64768   0.00000  Uiso   1.00
O891   O     0.41002   0.05628   0.69426   0.00000  Uiso   1.00
O892   O     0.53516   0.27944   0.85293   0.00000  Uiso   1.00
O893   O     0.58904   0.27524   0.80615   0.00000  Uiso   1.00
O894   O     0.56108   0.20487   0.75000   0.00000  Uiso   1.00
O895   O     0.43892   0.12846   0.74999   0.00000  Uiso   1.00
O896   O     0.49999   0.20489   0.68392   0.00000  Uiso   1.00
O897   O     0.50001   0.12844   0.81607   0.00000  Uiso   1.00
O898   O     0.50001   0.20489   0.81607   0.00000  Uiso   1.00
O899   O     0.49999   0.12844   0.68392   0.00000  Uiso   1.00
O900   O     0.58625   0.16131   0.85321   0.00000  Uiso   1.00
Zn901  Zn    0.50000   0.21771   0.75000   0.00000  Uiso   1.00
Zn902  Zn    0.50000   0.11563   0.75000   0.00000  Uiso   1.00
Br903  Br    0.74743   0.14377   0.86497   0.00000  Uiso   1.00
Br904  Br    0.91920   0.18123   0.62796   0.00000  Uiso   1.00
C905   C     0.75339   0.16664   0.75035   0.00000  Uiso   1.00
C906   C     0.70916   0.16664   0.75063   0.00000  Uiso   1.00
C907   C     0.85558   0.02403   0.78202   0.00000  Uiso   1.00
C908   C     0.81070   0.30938   0.71832   0.00000  Uiso   1.00
C909   C     0.81072   0.02381   0.71836   0.00000  Uiso   1.00
C910   C     0.85581   0.30956   0.78180   0.00000  Uiso   1.00
C911   C     0.83261   0.16656   0.66374   0.00000  Uiso   1.00
C912   C     0.83367   0.16668   0.83630   0.00000  Uiso   1.00
C913   C     0.87021   0.16889   0.90923   0.00000  Uiso   1.00
C914   C     0.79284   0.16242   0.59251   0.00000  Uiso   1.00
C915   C     0.83285   0.16618   0.88406   0.00000  Uiso   1.00
C916   C     0.91325   0.16669   0.74931   0.00000  Uiso   1.00
C917   C     0.83123   0.16581   0.61598   0.00000  Uiso   1.00
C918   C     0.79455   0.16038   0.90394   0.00000  Uiso   1.00
C919   C     0.86888   0.16401   0.59457   0.00000  Uiso   1.00
C920   C     0.79275   0.16295   0.95099   0.00000  Uiso   1.00
C921   C     0.86862   0.15574   0.54847   0.00000  Uiso   1.00
C922   C     0.83069   0.16127   0.97655   0.00000  Uiso   1.00
C923   C     0.83056   0.15944   0.52353   0.00000  Uiso   1.00
C924   C     0.86913   0.16174   0.95532   0.00000  Uiso   1.00
C925   C     0.79260   0.16200   0.54554   0.00000  Uiso   1.00
C926   C     0.75508   0.16656   0.97371   0.00000  Uiso   1.00
C927   C     0.75550   0.16613   0.52018   0.00000  Uiso   1.00
C928   C     0.90512   0.14537   0.52600   0.00000  Uiso   1.00
C929   C     0.91012   0.17970   0.88794   0.00000  Uiso   1.00
C930   C     0.75347   0.15998   0.61710   0.00000  Uiso   1.00
C931   C     0.71469   0.17490   0.95113   0.00000  Uiso   1.00
C932   C     0.94063   0.12105   0.54737   0.00000  Uiso   1.00
C933   C     0.87924   0.04785   0.81778   0.00000  Uiso   1.00
C934   C     0.78515   0.28593   0.68387   0.00000  Uiso   1.00
C935   C     0.78451   0.04737   0.68487   0.00000  Uiso   1.00
C936   C     0.88160   0.28595   0.81562   0.00000  Uiso   1.00
C937   C     0.90551   0.15154   0.98004   0.00000  Uiso   1.00
C938   C     0.68783   0.12597   0.75182   0.00000  Uiso   1.00
C939   C     0.97878   0.20733   0.74734   0.00000  Uiso   1.00
C940   C     0.97868   0.12594   0.75012   0.00000  Uiso   1.00
C941   C     0.68794   0.20734   0.74909   0.00000  Uiso   1.00
C942   C     0.95746   0.16666   0.74862   0.00000  Uiso   1.00
H943   H     0.72635   0.17115   0.53624   0.00000  Uiso   1.00
H944   H     0.66777   0.10496   0.54546   0.00000  Uiso   1.00
H945   H     0.93390   0.07451   0.83877   0.00000  Uiso   1.00
H946   H     0.72751   0.26745   0.66317   0.00000  Uiso   1.00
H947   H     0.72713   0.06906   0.66773   0.00000  Uiso   1.00
H948   H     0.93797   0.26126   0.83249   0.00000  Uiso   1.00
H949   H     0.93371   0.14453   0.96303   0.00000  Uiso   1.00
H950   H     0.70374   0.09424   0.75437   0.00000  Uiso   1.00
H951   H     0.96287   0.23908   0.74496   0.00000  Uiso   1.00
H952   H     0.96269   0.09410   0.75006   0.00000  Uiso   1.00
H953   H     0.70393   0.23915   0.74938   0.00000  Uiso   1.00
H954   H     0.96339   0.21516   0.89140   0.00000  Uiso   1.00
H955   H     0.69789   0.13032   0.62350   0.00000  Uiso   1.00
H956   H     0.99473   0.14804   0.92664   0.00000  Uiso   1.00
N957   N     0.83333   0.28573   0.75000   0.00000  Uiso   1.00
N958   N     0.83333   0.04760   0.75000   0.00000  Uiso   1.00
O959   O     0.77226   0.20487   0.74999   0.00000  Uiso   1.00
O960   O     0.93699   0.21104   0.90830   0.00000  Uiso   1.00
O961   O     0.74720   0.18601   0.64767   0.00000  Uiso   1.00
O962   O     0.72368   0.12771   0.60526   0.00000  Uiso   1.00
O963   O     0.70693   0.21180   0.93537   0.00000  Uiso   1.00
O964   O     0.68597   0.14001   0.94694   0.00000  Uiso   1.00
O965   O     0.93483   0.09454   0.57767   0.00000  Uiso   1.00
O966   O     0.98030   0.12616   0.53087   0.00000  Uiso   1.00
O967   O     0.86421   0.05267   0.85446   0.00000  Uiso   1.00
O968   O     0.92003   0.06089   0.81098   0.00000  Uiso   1.00
O969   O     0.79955   0.27758   0.64751   0.00000  Uiso   1.00
O970   O     0.89441   0.12846   0.75000   0.00000  Uiso   1.00
O971   O     0.74312   0.27913   0.69081   0.00000  Uiso   1.00
O972   O     0.79751   0.05481   0.64768   0.00000  Uiso   1.00
O973   O     0.74335   0.05628   0.69426   0.00000  Uiso   1.00
O974   O     0.86849   0.27944   0.85293   0.00000  Uiso   1.00
O975   O     0.92237   0.27524   0.80615   0.00000  Uiso   1.00
O976   O     0.89441   0.20487   0.75000   0.00000  Uiso   1.00
O977   O     0.77226   0.12846   0.74999   0.00000  Uiso   1.00
O978   O     0.83333   0.20489   0.68392   0.00000  Uiso   1.00
O979   O     0.83334   0.12844   0.81607   0.00000  Uiso   1.00
O980   O     0.83334   0.20489   0.81607   0.00000  Uiso   1.00
O981   O     0.83333   0.12844   0.68392   0.00000  Uiso   1.00
O982   O     0.91958   0.16131   0.85321   0.00000  Uiso   1.00
Zn983  Zn    0.83333   0.21771   0.75000   0.00000  Uiso   1.00
Zn984  Zn    0.83333   0.11563   0.75000   0.00000  Uiso   1.00
Br985  Br    0.08076   0.47710   0.86497   0.00000  Uiso   1.00
Br986  Br    0.25254   0.51456   0.62796   0.00000  Uiso   1.00
C987   C     0.08673   0.49997   0.75035   0.00000  Uiso   1.00
C988   C     0.04249   0.49997   0.75063   0.00000  Uiso   1.00
C989   C     0.18891   0.35736   0.78202   0.00000  Uiso   1.00
C990   C     0.14403   0.64271   0.71832   0.00000  Uiso   1.00
C991   C     0.14405   0.35714   0.71836   0.00000  Uiso   1.00
C992   C     0.18914   0.64289   0.78180   0.00000  Uiso   1.00
C993   C     0.16595   0.49989   0.66374   0.00000  Uiso   1.00
C994   C     0.16700   0.50001   0.83630   0.00000  Uiso   1.00
C995   C     0.20354   0.50223   0.90923   0.00000  Uiso   1.00
C996   C     0.12617   0.49576   0.59251   0.00000  Uiso   1.00
C997   C     0.16619   0.49951   0.88406   0.00000  Uiso   1.00
C998   C     0.24658   0.50002   0.74931   0.00000  Uiso   1.00
C999   C     0.16456   0.49914   0.61598   0.00000  Uiso   1.00
C1000  C     0.12788   0.49372   0.90394   0.00000  Uiso   1.00
C1001  C     0.20222   0.49735   0.59457   0.00000  Uiso   1.00
C1002  C     0.12609   0.49629   0.95099   0.00000  Uiso   1.00
C1003  C     0.20196   0.48907   0.54847   0.00000  Uiso   1.00
C1004  C     0.16402   0.49460   0.97655   0.00000  Uiso   1.00
C1005  C     0.16389   0.49277   0.52353   0.00000  Uiso   1.00
C1006  C     0.20246   0.49507   0.95532   0.00000  Uiso   1.00
C1007  C     0.12593   0.49533   0.54554   0.00000  Uiso   1.00
C1008  C     0.08841   0.49989   0.97371   0.00000  Uiso   1.00
C1009  C     0.08883   0.49947   0.52018   0.00000  Uiso   1.00
C1010  C     0.23845   0.47870   0.52600   0.00000  Uiso   1.00
C1011  C     0.24346   0.51303   0.88794   0.00000  Uiso   1.00
C1012  C     0.08681   0.49332   0.61710   0.00000  Uiso   1.00
C1013  C     0.04803   0.50823   0.95113   0.00000  Uiso   1.00
C1014  C     0.27396   0.45438   0.54737   0.00000  Uiso   1.00
C1015  C     0.21258   0.38118   0.81778   0.00000  Uiso   1.00
C1016  C     0.11849   0.61926   0.68387   0.00000  Uiso   1.00
C1017  C     0.11784   0.38071   0.68487   0.00000  Uiso   1.00
C1018  C     0.21494   0.61929   0.81562   0.00000  Uiso   1.00
C1019  C     0.23885   0.48487   0.98004   0.00000  Uiso   1.00
C1020  C     0.02116   0.45930   0.75182   0.00000  Uiso   1.00
C1021  C     0.31212   0.54066   0.74734   0.00000  Uiso   1.00
C1022  C     0.31201   0.45927   0.75012   0.00000  Uiso   1.00
C1023  C     0.02127   0.54067   0.74909   0.00000  Uiso   1.00
C1024  C     0.29079   0.49999   0.74862   0.00000  Uiso   1.00
H1025  H     0.05968   0.50449   0.53624   0.00000  Uiso   1.00
H1026  H     0.00110   0.43830   0.54546   0.00000  Uiso   1.00
H1027  H     0.26723   0.40784   0.83877   0.00000  Uiso   1.00
H1028  H     0.06084   0.60079   0.66317   0.00000  Uiso   1.00
H1029  H     0.06047   0.40239   0.66773   0.00000  Uiso   1.00
H1030  H     0.27130   0.59459   0.83249   0.00000  Uiso   1.00
H1031  H     0.26704   0.47786   0.96303   0.00000  Uiso   1.00
H1032  H     0.03707   0.42757   0.75437   0.00000  Uiso   1.00
H1033  H     0.29620   0.57241   0.74496   0.00000  Uiso   1.00
H1034  H     0.29602   0.42744   0.75006   0.00000  Uiso   1.00
H1035  H     0.03726   0.57249   0.74938   0.00000  Uiso   1.00
H1036  H     0.29672   0.54849   0.89140   0.00000  Uiso   1.00
H1037  H     0.03122   0.46365   0.62350   0.00000  Uiso   1.00
H1038  H     0.32806   0.48138   0.92664   0.00000  Uiso   1.00
N1039  N     0.16667   0.61907   0.75000   0.00000  Uiso   1.00
N1040  N     0.16667   0.38093   0.75000   0.00000  Uiso   1.00
O1041  O     0.10559   0.53821   0.74999   0.00000  Uiso   1.00
O1042  O     0.27032   0.54438   0.90830   0.00000  Uiso   1.00
O1043  O     0.08054   0.51935   0.64767   0.00000  Uiso   1.00
O1044  O     0.05701   0.46104   0.60526   0.00000  Uiso   1.00
O1045  O     0.04027   0.54513   0.93537   0.00000  Uiso   1.00
O1046  O     0.01930   0.47334   0.94694   0.00000  Uiso   1.00
O1047  O     0.26816   0.42787   0.57767   0.00000  Uiso   1.00
O1048  O     0.31363   0.45950   0.53087   0.00000  Uiso   1.00
O1049  O     0.19755   0.38600   0.85446   0.00000  Uiso   1.00
O1050  O     0.25336   0.39422   0.81098   0.00000  Uiso   1.00
O1051  O     0.13289   0.61091   0.64751   0.00000  Uiso   1.00
O1052  O     0.22774   0.46179   0.75000   0.00000  Uiso   1.00
O1053  O     0.07645   0.61246   0.69081   0.00000  Uiso   1.00
O1054  O     0.13084   0.38814   0.64768   0.00000  Uiso   1.00
O1055  O     0.07668   0.38961   0.69426   0.00000  Uiso   1.00
O1056  O     0.20182   0.61278   0.85293   0.00000  Uiso   1.00
O1057  O     0.25570   0.60858   0.80615   0.00000  Uiso   1.00
O1058  O     0.22774   0.53821   0.75000   0.00000  Uiso   1.00
O1059  O     0.10559   0.46179   0.74999   0.00000  Uiso   1.00
O1060  O     0.16666   0.53823   0.68392   0.00000  Uiso   1.00
O1061  O     0.16667   0.46177   0.81607   0.00000  Uiso   1.00
O1062  O     0.16667   0.53823   0.81607   0.00000  Uiso   1.00
O1063  O     0.16666   0.46177   0.68392   0.00000  Uiso   1.00
O1064  O     0.25291   0.49464   0.85321   0.00000  Uiso   1.00
Zn1065 Zn    0.16667   0.55104   0.75000   0.00000  Uiso   1.00
Zn1066 Zn    0.16667   0.44896   0.75000   0.00000  Uiso   1.00
Br1067 Br    0.41410   0.47710   0.86497   0.00000  Uiso   1.00
Br1068 Br    0.58587   0.51456   0.62796   0.00000  Uiso   1.00
C1069  C     0.42006   0.49997   0.75035   0.00000  Uiso   1.00
C1070  C     0.37582   0.49997   0.75063   0.00000  Uiso   1.00
C1071  C     0.52225   0.35736   0.78202   0.00000  Uiso   1.00
C1072  C     0.47737   0.64271   0.71832   0.00000  Uiso   1.00
C1073  C     0.47739   0.35714   0.71836   0.00000  Uiso   1.00
C1074  C     0.52247   0.64289   0.78180   0.00000  Uiso   1.00
C1075  C     0.49928   0.49989   0.66374   0.00000  Uiso   1.00
C1076  C     0.50033   0.50001   0.83630   0.00000  Uiso   1.00
C1077  C     0.53687   0.50223   0.90923   0.00000  Uiso   1.00
C1078  C     0.45951   0.49576   0.59251   0.00000  Uiso   1.00
C1079  C     0.49952   0.49951   0.88406   0.00000  Uiso   1.00
C1080  C     0.57992   0.50002   0.74931   0.00000  Uiso   1.00
C1081  C     0.49789   0.49914   0.61598   0.00000  Uiso   1.00
C1082  C     0.46121   0.49372   0.90394   0.00000  Uiso   1.00
C1083  C     0.53555   0.49735   0.59457   0.00000  Uiso   1.00
C1084  C     0.45942   0.49629   0.95099   0.00000  Uiso   1.00
C1085  C     0.53529   0.48907   0.54847   0.00000  Uiso   1.00
C1086  C     0.49735   0.49460   0.97655   0.00000  Uiso   1.00
C1087  C     0.49723   0.49277   0.52353   0.00000  Uiso   1.00
C1088  C     0.53579   0.49507   0.95532   0.00000  Uiso   1.00
C1089  C     0.45927   0.49533   0.54554   0.00000  Uiso   1.00
C1090  C     0.42174   0.49989   0.97371   0.00000  Uiso   1.00
C1091  C     0.42216   0.49947   0.52018   0.00000  Uiso   1.00
C1092  C     0.57179   0.47870   0.52600   0.00000  Uiso   1.00
C1093  C     0.57679   0.51303   0.88794   0.00000  Uiso   1.00
C1094  C     0.42014   0.49332   0.61710   0.00000  Uiso   1.00
C1095  C     0.38136   0.50823   0.95113   0.00000  Uiso   1.00
C1096  C     0.60729   0.45438   0.54737   0.00000  Uiso   1.00
C1097  C     0.54591   0.38118   0.81778   0.00000  Uiso   1.00
C1098  C     0.45182   0.61926   0.68387   0.00000  Uiso   1.00
C1099  C     0.45117   0.38071   0.68487   0.00000  Uiso   1.00
C1100  C     0.54827   0.61929   0.81562   0.00000  Uiso   1.00
C1101  C     0.57218   0.48487   0.98004   0.00000  Uiso   1.00
C1102  C     0.35450   0.45930   0.75182   0.00000  Uiso   1.00
C1103  C     0.64545   0.54066   0.74734   0.00000  Uiso   1.00
C1104  C     0.64534   0.45927   0.75012   0.00000  Uiso   1.00
C1105  C     0.35460   0.54067   0.74909   0.00000  Uiso   1.00
C1106  C     0.62413   0.49999   0.74862   0.00000  Uiso   1.00
H1107  H     0.39301   0.50449   0.53624   0.00000  Uiso   1.00
H1108  H     0.33444   0.43830   0.54546   0.00000  Uiso   1.00
H1109  H     0.60057   0.40784   0.83877   0.00000  Uiso   1.00
H1110  H     0.39417   0.60079   0.66317   0.00000  Uiso   1.00
H1111  H     0.39380   0.40239   0.66773   0.00000  Uiso   1.00
H1112  H     0.60463   0.59459   0.83249   0.00000  Uiso   1.00
H1113  H     0.60037   0.47786   0.96303   0.00000  Uiso   1.00
H1114  H     0.37041   0.42757   0.75437   0.00000  Uiso   1.00
H1115  H     0.62954   0.57241   0.74496   0.00000  Uiso   1.00
H1116  H     0.62936   0.42744   0.75006   0.00000  Uiso   1.00
H1117  H     0.37060   0.57249   0.74938   0.00000  Uiso   1.00
H1118  H     0.63006   0.54849   0.89140   0.00000  Uiso   1.00
H1119  H     0.36456   0.46365   0.62350   0.00000  Uiso   1.00
H1120  H     0.66140   0.48138   0.92664   0.00000  Uiso   1.00
N1121  N     0.50000   0.61907   0.75000   0.00000  Uiso   1.00
N1122  N     0.50000   0.38093   0.75000   0.00000  Uiso   1.00
O1123  O     0.43892   0.53821   0.74999   0.00000  Uiso   1.00
O1124  O     0.60365   0.54438   0.90830   0.00000  Uiso   1.00
O1125  O     0.41387   0.51935   0.64767   0.00000  Uiso   1.00
O1126  O     0.39035   0.46104   0.60526   0.00000  Uiso   1.00
O1127  O     0.37360   0.54513   0.93537   0.00000  Uiso   1.00
O1128  O     0.35263   0.47334   0.94694   0.00000  Uiso   1.00
O1129  O     0.60149   0.42787   0.57767   0.00000  Uiso   1.00
O1130  O     0.64696   0.45950   0.53087   0.00000  Uiso   1.00
O1131  O     0.53088   0.38600   0.85446   0.00000  Uiso   1.00
O1132  O     0.58669   0.39422   0.81098   0.00000  Uiso   1.00
O1133  O     0.46622   0.61091   0.64751   0.00000  Uiso   1.00
O1134  O     0.56108   0.46179   0.75000   0.00000  Uiso   1.00
O1135  O     0.40978   0.61246   0.69081   0.00000  Uiso   1.00
O1136  O     0.46417   0.38814   0.64768   0.00000  Uiso   1.00
O1137  O     0.41002   0.38961   0.69426   0.00000  Uiso   1.00
O1138  O     0.53516   0.61278   0.85293   0.00000  Uiso   1.00
O1139  O     0.58904   0.60858   0.80615   0.00000  Uiso   1.00
O1140  O     0.56108   0.53821   0.75000   0.00000  Uiso   1.00
O1141  O     0.43892   0.46179   0.74999   0.00000  Uiso   1.00
O1142  O     0.49999   0.53823   0.68392   0.00000  Uiso   1.00
O1143  O     0.50001   0.46177   0.81607   0.00000  Uiso   1.00
O1144  O     0.50001   0.53823   0.81607   0.00000  Uiso   1.00
O1145  O     0.49999   0.46177   0.68392   0.00000  Uiso   1.00
O1146  O     0.58625   0.49464   0.85321   0.00000  Uiso   1.00
Zn1147 Zn    0.50000   0.55104   0.75000   0.00000  Uiso   1.00
Zn1148 Zn    0.50000   0.44896   0.75000   0.00000  Uiso   1.00
Br1149 Br    0.74743   0.47710   0.86497   0.00000  Uiso   1.00
Br1150 Br    0.91920   0.51456   0.62796   0.00000  Uiso   1.00
C1151  C     0.75339   0.49997   0.75035   0.00000  Uiso   1.00
C1152  C     0.70916   0.49997   0.75063   0.00000  Uiso   1.00
C1153  C     0.85558   0.35736   0.78202   0.00000  Uiso   1.00
C1154  C     0.81070   0.64271   0.71832   0.00000  Uiso   1.00
C1155  C     0.81072   0.35714   0.71836   0.00000  Uiso   1.00
C1156  C     0.85581   0.64289   0.78180   0.00000  Uiso   1.00
C1157  C     0.83261   0.49989   0.66374   0.00000  Uiso   1.00
C1158  C     0.83367   0.50001   0.83630   0.00000  Uiso   1.00
C1159  C     0.87021   0.50223   0.90923   0.00000  Uiso   1.00
C1160  C     0.79284   0.49576   0.59251   0.00000  Uiso   1.00
C1161  C     0.83285   0.49951   0.88406   0.00000  Uiso   1.00
C1162  C     0.91325   0.50002   0.74931   0.00000  Uiso   1.00
C1163  C     0.83123   0.49914   0.61598   0.00000  Uiso   1.00
C1164  C     0.79455   0.49372   0.90394   0.00000  Uiso   1.00
C1165  C     0.86888   0.49735   0.59457   0.00000  Uiso   1.00
C1166  C     0.79275   0.49629   0.95099   0.00000  Uiso   1.00
C1167  C     0.86862   0.48907   0.54847   0.00000  Uiso   1.00
C1168  C     0.83069   0.49460   0.97655   0.00000  Uiso   1.00
C1169  C     0.83056   0.49277   0.52353   0.00000  Uiso   1.00
C1170  C     0.86913   0.49507   0.95532   0.00000  Uiso   1.00
C1171  C     0.79260   0.49533   0.54554   0.00000  Uiso   1.00
C1172  C     0.75508   0.49989   0.97371   0.00000  Uiso   1.00
C1173  C     0.75550   0.49947   0.52018   0.00000  Uiso   1.00
C1174  C     0.90512   0.47870   0.52600   0.00000  Uiso   1.00
C1175  C     0.91012   0.51303   0.88794   0.00000  Uiso   1.00
C1176  C     0.75347   0.49332   0.61710   0.00000  Uiso   1.00
C1177  C     0.71469   0.50823   0.95113   0.00000  Uiso   1.00
C1178  C     0.94063   0.45438   0.54737   0.00000  Uiso   1.00
C1179  C     0.87924   0.38118   0.81778   0.00000  Uiso   1.00
C1180  C     0.78515   0.61926   0.68387   0.00000  Uiso   1.00
C1181  C     0.78451   0.38071   0.68487   0.00000  Uiso   1.00
C1182  C     0.88160   0.61929   0.81562   0.00000  Uiso   1.00
C1183  C     0.90551   0.48487   0.98004   0.00000  Uiso   1.00
C1184  C     0.68783   0.45930   0.75182   0.00000  Uiso   1.00
C1185  C     0.97878   0.54066   0.74734   0.00000  Uiso   1.00
C1186  C     0.97868   0.45927   0.75012   0.00000  Uiso   1.00
C1187  C     0.68794   0.54067   0.74909   0.00000  Uiso   1.00
C1188  C     0.95746   0.49999   0.74862   0.00000  Uiso   1.00
H1189  H     0.72635   0.50449   0.53624   0.00000  Uiso   1.00
H1190  H     0.66777   0.43830   0.54546   0.00000  Uiso   1.00
H1191  H     0.93390   0.40784   0.83877   0.00000  Uiso   1.00
H1192  H     0.72751   0.60079   0.66317   0.00000  Uiso   1.00
H1193  H     0.72713   0.40239   0.66773   0.00000  Uiso   1.00
H1194  H     0.93797   0.59459   0.83249   0.00000  Uiso   1.00
H1195  H     0.93371   0.47786   0.96303   0.00000  Uiso   1.00
H1196  H     0.70374   0.42757   0.75437   0.00000  Uiso   1.00
H1197  H     0.96287   0.57241   0.74496   0.00000  Uiso   1.00
H1198  H     0.96269   0.42744   0.75006   0.00000  Uiso   1.00
H1199  H     0.70393   0.57249   0.74938   0.00000  Uiso   1.00
H1200  H     0.96339   0.54849   0.89140   0.00000  Uiso   1.00
H1201  H     0.69789   0.46365   0.62350   0.00000  Uiso   1.00
H1202  H     0.99473   0.48138   0.92664   0.00000  Uiso   1.00
N1203  N     0.83333   0.61907   0.75000   0.00000  Uiso   1.00
N1204  N     0.83333   0.38093   0.75000   0.00000  Uiso   1.00
O1205  O     0.77226   0.53821   0.74999   0.00000  Uiso   1.00
O1206  O     0.93699   0.54438   0.90830   0.00000  Uiso   1.00
O1207  O     0.74720   0.51935   0.64767   0.00000  Uiso   1.00
O1208  O     0.72368   0.46104   0.60526   0.00000  Uiso   1.00
O1209  O     0.70693   0.54513   0.93537   0.00000  Uiso   1.00
O1210  O     0.68597   0.47334   0.94694   0.00000  Uiso   1.00
O1211  O     0.93483   0.42787   0.57767   0.00000  Uiso   1.00
O1212  O     0.98030   0.45950   0.53087   0.00000  Uiso   1.00
O1213  O     0.86421   0.38600   0.85446   0.00000  Uiso   1.00
O1214  O     0.92003   0.39422   0.81098   0.00000  Uiso   1.00
O1215  O     0.79955   0.61091   0.64751   0.00000  Uiso   1.00
O1216  O     0.89441   0.46179   0.75000   0.00000  Uiso   1.00
O1217  O     0.74312   0.61246   0.69081   0.00000  Uiso   1.00
O1218  O     0.79751   0.38814   0.64768   0.00000  Uiso   1.00
O1219  O     0.74335   0.38961   0.69426   0.00000  Uiso   1.00
O1220  O     0.86849   0.61278   0.85293   0.00000  Uiso   1.00
O1221  O     0.92237   0.60858   0.80615   0.00000  Uiso   1.00
O1222  O     0.89441   0.53821   0.75000   0.00000  Uiso   1.00
O1223  O     0.77226   0.46179   0.74999   0.00000  Uiso   1.00
O1224  O     0.83333   0.53823   0.68392   0.00000  Uiso   1.00
O1225  O     0.83334   0.46177   0.81607   0.00000  Uiso   1.00
O1226  O     0.83334   0.53823   0.81607   0.00000  Uiso   1.00
O1227  O     0.83333   0.46177   0.68392   0.00000  Uiso   1.00
O1228  O     0.91958   0.49464   0.85321   0.00000  Uiso   1.00
Zn1229 Zn    0.83333   0.55104   0.75000   0.00000  Uiso   1.00
Zn1230 Zn    0.83333   0.44896   0.75000   0.00000  Uiso   1.00
Br1231 Br    0.08076   0.81043   0.86497   0.00000  Uiso   1.00
Br1232 Br    0.25254   0.84790   0.62796   0.00000  Uiso   1.00
C1233  C     0.08673   0.83331   0.75035   0.00000  Uiso   1.00
C1234  C     0.04249   0.83331   0.75063   0.00000  Uiso   1.00
C1235  C     0.18891   0.69069   0.78202   0.00000  Uiso   1.00
C1236  C     0.14403   0.97605   0.71832   0.00000  Uiso   1.00
C1237  C     0.14405   0.69048   0.71836   0.00000  Uiso   1.00
C1238  C     0.18914   0.97623   0.78180   0.00000  Uiso   1.00
C1239  C     0.16595   0.83322   0.66374   0.00000  Uiso   1.00
C1240  C     0.16700   0.83334   0.83630   0.00000  Uiso   1.00
C1241  C     0.20354   0.83556   0.90923   0.00000  Uiso   1.00
C1242  C     0.12617   0.82909   0.59251   0.00000  Uiso   1.00
C1243  C     0.16619   0.83284   0.88406   0.00000  Uiso   1.00
C1244  C     0.24658   0.83336   0.74931   0.00000  Uiso   1.00
C1245  C     0.16456   0.83248   0.61598   0.00000  Uiso   1.00
C1246  C     0.12788   0.82705   0.90394   0.00000  Uiso   1.00
C1247  C     0.20222   0.83068   0.59457   0.00000  Uiso   1.00
C1248  C     0.12609   0.82962   0.95099   0.00000  Uiso   1.00
C1249  C     0.20196   0.82241   0.54847   0.00000  Uiso   1.00
C1250  C     0.16402   0.82794   0.97655   0.00000  Uiso   1.00
C1251  C     0.16389   0.82610   0.52353   0.00000  Uiso   1.00
C1252  C     0.20246   0.82840   0.95532   0.00000  Uiso   1.00
C1253  C     0.12593   0.82867   0.54554   0.00000  Uiso   1.00
C1254  C     0.08841   0.83323   0.97371   0.00000  Uiso   1.00
C1255  C     0.08883   0.83280   0.52018   0.00000  Uiso   1.00
C1256  C     0.23845   0.81204   0.52600   0.00000  Uiso   1.00
C1257  C     0.24346   0.84636   0.88794   0.00000  Uiso   1.00
C1258  C     0.08681   0.82665   0.61710   0.00000  Uiso   1.00
C1259  C     0.04803   0.84157   0.95113   0.00000  Uiso   1.00
C1260  C     0.27396   0.78771   0.54737   0.00000  Uiso   1.00
C1261  C     0.21258   0.71451   0.81778   0.00000  Uiso   1.00
C1262  C     0.11849   0.95260   0.68387   0.00000  Uiso   1.00
C1263  C     0.11784   0.71404   0.68487   0.00000  Uiso   1.00
C1264  C     0.21494   0.95262   0.81562   0.00000  Uiso   1.00
C1265  C     0.23885   0.81821   0.98004   0.00000  Uiso   1.00
C1266  C     0.02116   0.79263   0.75182   0.00000  Uiso   1.00
C1267  C     0.31212   0.87400   0.74734   0.00000  Uiso   1.00
C1268  C     0.31201   0.79261   0.75012   0.00000  Uiso   1.00
C1269  C     0.02127   0.87401   0.74909   0.00000  Uiso   1.00
C1270  C     0.29079   0.83332   0.74862   0.00000  Uiso   1.00
H1271  H     0.05968   0.83782   0.53624   0.00000  Uiso   1.00
H1272  H     0.00110   0.77163   0.54546   0.00000  Uiso   1.00
H1273  H     0.26723   0.74118   0.83877   0.00000  Uiso   1.00
H1274  H     0.06084   0.93412   0.66317   0.00000  Uiso   1.00
H1275  H     0.06047   0.73573   0.66773   0.00000  Uiso   1.00
H1276  H     0.27130   0.92793   0.83249   0.00000  Uiso   1.00
H1277  H     0.26704   0.81119   0.96303   0.00000  Uiso   1.00
H1278  H     0.03707   0.76090   0.75437   0.00000  Uiso   1.00
H1279  H     0.29620   0.90575   0.74496   0.00000  Uiso   1.00
H1280  H     0.29602   0.76077   0.75006   0.00000  Uiso   1.00
H1281  H     0.03726   0.90582   0.74938   0.00000  Uiso   1.00
H1282  H     0.29672   0.88183   0.89140   0.00000  Uiso   1.00
H1283  H     0.03122   0.79699   0.62350   0.00000  Uiso   1.00
H1284  H     0.32806   0.81471   0.92664   0.00000  Uiso   1.00
N1285  N     0.16667   0.95240   0.75000   0.00000  Uiso   1.00
N1286  N     0.16667   0.71427   0.75000   0.00000  Uiso   1.00
O1287  O     0.10559   0.87154   0.74999   0.00000  Uiso   1.00
O1288  O     0.27032   0.87771   0.90830   0.00000  Uiso   1.00
O1289  O     0.08054   0.85268   0.64767   0.00000  Uiso   1.00
O1290  O     0.05701   0.79438   0.60526   0.00000  Uiso   1.00
O1291  O     0.04027   0.87846   0.93537   0.00000  Uiso   1.00
O1292  O     0.01930   0.80668   0.94694   0.00000  Uiso   1.00
O1293  O     0.26816   0.76120   0.57767   0.00000  Uiso   1.00
O1294  O     0.31363   0.79283   0.53087   0.00000  Uiso   1.00
O1295  O     0.19755   0.71934   0.85446   0.00000  Uiso   1.00
O1296  O     0.25336   0.72756   0.81098   0.00000  Uiso   1.00
O1297  O     0.13289   0.94425   0.64751   0.00000  Uiso   1.00
O1298  O     0.22774   0.79513   0.75000   0.00000  Uiso   1.00
O1299  O     0.07645   0.94579   0.69081   0.00000  Uiso   1.00
O1300  O     0.13084   0.72147   0.64768   0.00000  Uiso   1.00
O1301  O     0.07668   0.72295   0.69426   0.00000  Uiso   1.00
O1302  O     0.20182   0.94611   0.85293   0.00000  Uiso   1.00
O1303  O     0.25570   0.94191   0.80615   0.00000  Uiso   1.00
O1304  O     0.22774   0.87154   0.75000   0.00000  Uiso   1.00
O1305  O     0.10559   0.79513   0.74999   0.00000  Uiso   1.00
O1306  O     0.16666   0.87156   0.68392   0.00000  Uiso   1.00
O1307  O     0.16667   0.79511   0.81607   0.00000  Uiso   1.00
O1308  O     0.16667   0.87156   0.81607   0.00000  Uiso   1.00
O1309  O     0.16666   0.79511   0.68392   0.00000  Uiso   1.00
O1310  O     0.25291   0.82798   0.85321   0.00000  Uiso   1.00
Zn1311 Zn    0.16667   0.88437   0.75000   0.00000  Uiso   1.00
Zn1312 Zn    0.16667   0.78229   0.75000   0.00000  Uiso   1.00
Br1313 Br    0.41410   0.81043   0.86497   0.00000  Uiso   1.00
Br1314 Br    0.58587   0.84790   0.62796   0.00000  Uiso   1.00
C1315  C     0.42006   0.83331   0.75035   0.00000  Uiso   1.00
C1316  C     0.37582   0.83331   0.75063   0.00000  Uiso   1.00
C1317  C     0.52225   0.69069   0.78202   0.00000  Uiso   1.00
C1318  C     0.47737   0.97605   0.71832   0.00000  Uiso   1.00
C1319  C     0.47739   0.69048   0.71836   0.00000  Uiso   1.00
C1320  C     0.52247   0.97623   0.78180   0.00000  Uiso   1.00
C1321  C     0.49928   0.83322   0.66374   0.00000  Uiso   1.00
C1322  C     0.50033   0.83334   0.83630   0.00000  Uiso   1.00
C1323  C     0.53687   0.83556   0.90923   0.00000  Uiso   1.00
C1324  C     0.45951   0.82909   0.59251   0.00000  Uiso   1.00
C1325  C     0.49952   0.83284   0.88406   0.00000  Uiso   1.00
C1326  C     0.57992   0.83336   0.74931   0.00000  Uiso   1.00
C1327  C     0.49789   0.83248   0.61598   0.00000  Uiso   1.00
C1328  C     0.46121   0.82705   0.90394   0.00000  Uiso   1.00
C1329  C     0.53555   0.83068   0.59457   0.00000  Uiso   1.00
C1330  C     0.45942   0.82962   0.95099   0.00000  Uiso   1.00
C1331  C     0.53529   0.82241   0.54847   0.00000  Uiso   1.00
C1332  C     0.49735   0.82794   0.97655   0.00000  Uiso   1.00
C1333  C     0.49723   0.82610   0.52353   0.00000  Uiso   1.00
C1334  C     0.53579   0.82840   0.95532   0.00000  Uiso   1.00
C1335  C     0.45927   0.82867   0.54554   0.00000  Uiso   1.00
C1336  C     0.42174   0.83323   0.97371   0.00000  Uiso   1.00
C1337  C     0.42216   0.83280   0.52018   0.00000  Uiso   1.00
C1338  C     0.57179   0.81204   0.52600   0.00000  Uiso   1.00
C1339  C     0.57679   0.84636   0.88794   0.00000  Uiso   1.00
C1340  C     0.42014   0.82665   0.61710   0.00000  Uiso   1.00
C1341  C     0.38136   0.84157   0.95113   0.00000  Uiso   1.00
C1342  C     0.60729   0.78771   0.54737   0.00000  Uiso   1.00
C1343  C     0.54591   0.71451   0.81778   0.00000  Uiso   1.00
C1344  C     0.45182   0.95260   0.68387   0.00000  Uiso   1.00
C1345  C     0.45117   0.71404   0.68487   0.00000  Uiso   1.00
C1346  C     0.54827   0.95262   0.81562   0.00000  Uiso   1.00
C1347  C     0.57218   0.81821   0.98004   0.00000  Uiso   1.00
C1348  C     0.35450   0.79263   0.75182   0.00000  Uiso   1.00
C1349  C     0.64545   0.87400   0.74734   0.00000  Uiso   1.00
C1350  C     0.64534   0.79261   0.75012   0.00000  Uiso   1.00
C1351  C     0.35460   0.87401   0.74909   0.00000  Uiso   1.00
C1352  C     0.62413   0.83332   0.74862   0.00000  Uiso   1.00
H1353  H     0.39301   0.83782   0.53624   0.00000  Uiso   1.00
H1354  H     0.33444   0.77163   0.54546   0.00000  Uiso   1.00
H1355  H     0.60057   0.74118   0.83877   0.00000  Uiso   1.00
H1356  H     0.39417   0.93412   0.66317   0.00000  Uiso   1.00
H1357  H     0.39380   0.73573   0.66773   0.00000  Uiso   1.00
H1358  H     0.60463   0.92793   0.83249   0.00000  Uiso   1.00
H1359  H     0.60037   0.81119   0.96303   0.00000  Uiso   1.00
H1360  H     0.37041   0.76090   0.75437   0.00000  Uiso   1.00
H1361  H     0.62954   0.90575   0.74496   0.00000  Uiso   1.00
H1362  H     0.62936   0.76077   0.75006   0.00000  Uiso   1.00
H1363  H     0.37060   0.90582   0.74938   0.00000  Uiso   1.00
H1364  H     0.63006   0.88183   0.89140   0.00000  Uiso   1.00
H1365  H     0.36456   0.79699   0.62350   0.00000  Uiso   1.00
H1366  H     0.66140   0.81471   0.92664   0.00000  Uiso   1.00
N1367  N     0.50000   0.95240   0.75000   0.00000  Uiso   1.00
N1368  N     0.50000   0.71427   0.75000   0.00000  Uiso   1.00
O1369  O     0.43892   0.87154   0.74999   0.00000  Uiso   1.00
O1370  O     0.60365   0.87771   0.90830   0.00000  Uiso   1.00
O1371  O     0.41387   0.85268   0.64767   0.00000  Uiso   1.00
O1372  O     0.39035   0.79438   0.60526   0.00000  Uiso   1.00
O1373  O     0.37360   0.87846   0.93537   0.00000  Uiso   1.00
O1374  O     0.35263   0.80668   0.94694   0.00000  Uiso   1.00
O1375  O     0.60149   0.76120   0.57767   0.00000  Uiso   1.00
O1376  O     0.64696   0.79283   0.53087   0.00000  Uiso   1.00
O1377  O     0.53088   0.71934   0.85446   0.00000  Uiso   1.00
O1378  O     0.58669   0.72756   0.81098   0.00000  Uiso   1.00
O1379  O     0.46622   0.94425   0.64751   0.00000  Uiso   1.00
O1380  O     0.56108   0.79513   0.75000   0.00000  Uiso   1.00
O1381  O     0.40978   0.94579   0.69081   0.00000  Uiso   1.00
O1382  O     0.46417   0.72147   0.64768   0.00000  Uiso   1.00
O1383  O     0.41002   0.72295   0.69426   0.00000  Uiso   1.00
O1384  O     0.53516   0.94611   0.85293   0.00000  Uiso   1.00
O1385  O     0.58904   0.94191   0.80615   0.00000  Uiso   1.00
O1386  O     0.56108   0.87154   0.75000   0.00000  Uiso   1.00
O1387  O     0.43892   0.79513   0.74999   0.00000  Uiso   1.00
O1388  O     0.49999   0.87156   0.68392   0.00000  Uiso   1.00
O1389  O     0.50001   0.79511   0.81607   0.00000  Uiso   1.00
O1390  O     0.50001   0.87156   0.81607   0.00000  Uiso   1.00
O1391  O     0.49999   0.79511   0.68392   0.00000  Uiso   1.00
O1392  O     0.58625   0.82798   0.85321   0.00000  Uiso   1.00
Zn1393 Zn    0.50000   0.88437   0.75000   0.00000  Uiso   1.00
Zn1394 Zn    0.50000   0.78229   0.75000   0.00000  Uiso   1.00
Br1395 Br    0.74743   0.81043   0.86497   0.00000  Uiso   1.00
Br1396 Br    0.91920   0.84790   0.62796   0.00000  Uiso   1.00
C1397  C     0.75339   0.83331   0.75035   0.00000  Uiso   1.00
C1398  C     0.70916   0.83331   0.75063   0.00000  Uiso   1.00
C1399  C     0.85558   0.69069   0.78202   0.00000  Uiso   1.00
C1400  C     0.81070   0.97605   0.71832   0.00000  Uiso   1.00
C1401  C     0.81072   0.69048   0.71836   0.00000  Uiso   1.00
C1402  C     0.85581   0.97623   0.78180   0.00000  Uiso   1.00
C1403  C     0.83261   0.83322   0.66374   0.00000  Uiso   1.00
C1404  C     0.83367   0.83334   0.83630   0.00000  Uiso   1.00
C1405  C     0.87021   0.83556   0.90923   0.00000  Uiso   1.00
C1406  C     0.79284   0.82909   0.59251   0.00000  Uiso   1.00
C1407  C     0.83285   0.83284   0.88406   0.00000  Uiso   1.00
C1408  C     0.91325   0.83336   0.74931   0.00000  Uiso   1.00
C1409  C     0.83123   0.83248   0.61598   0.00000  Uiso   1.00
C1410  C     0.79455   0.82705   0.90394   0.00000  Uiso   1.00
C1411  C     0.86888   0.83068   0.59457   0.00000  Uiso   1.00
C1412  C     0.79275   0.82962   0.95099   0.00000  Uiso   1.00
C1413  C     0.86862   0.82241   0.54847   0.00000  Uiso   1.00
C1414  C     0.83069   0.82794   0.97655   0.00000  Uiso   1.00
C1415  C     0.83056   0.82610   0.52353   0.00000  Uiso   1.00
C1416  C     0.86913   0.82840   0.95532   0.00000  Uiso   1.00
C1417  C     0.79260   0.82867   0.54554   0.00000  Uiso   1.00
C1418  C     0.75508   0.83323   0.97371   0.00000  Uiso   1.00
C1419  C     0.75550   0.83280   0.52018   0.00000  Uiso   1.00
C1420  C     0.90512   0.81204   0.52600   0.00000  Uiso   1.00
C1421  C     0.91012   0.84636   0.88794   0.00000  Uiso   1.00
C1422  C     0.75347   0.82665   0.61710   0.00000  Uiso   1.00
C1423  C     0.71469   0.84157   0.95113   0.00000  Uiso   1.00
C1424  C     0.94063   0.78771   0.54737   0.00000  Uiso   1.00
C1425  C     0.87924   0.71451   0.81778   0.00000  Uiso   1.00
C1426  C     0.78515   0.95260   0.68387   0.00000  Uiso   1.00
C1427  C     0.78451   0.71404   0.68487   0.00000  Uiso   1.00
C1428  C     0.88160   0.95262   0.81562   0.00000  Uiso   1.00
C1429  C     0.90551   0.81821   0.98004   0.00000  Uiso   1.00
C1430  C     0.68783   0.79263   0.75182   0.00000  Uiso   1.00
C1431  C     0.97878   0.87400   0.74734   0.00000  Uiso   1.00
C1432  C     0.97868   0.79261   0.75012   0.00000  Uiso   1.00
C1433  C     0.68794   0.87401   0.74909   0.00000  Uiso   1.00
C1434  C     0.95746   0.83332   0.74862   0.00000  Uiso   1.00
H1435  H     0.72635   0.83782   0.53624   0.00000  Uiso   1.00
H1436  H     0.66777   0.77163   0.54546   0.00000  Uiso   1.00
H1437  H     0.93390   0.74118   0.83877   0.00000  Uiso   1.00
H1438  H     0.72751   0.93412   0.66317   0.00000  Uiso   1.00
H1439  H     0.72713   0.73573   0.66773   0.00000  Uiso   1.00
H1440  H     0.93797   0.92793   0.83249   0.00000  Uiso   1.00
H1441  H     0.93371   0.81119   0.96303   0.00000  Uiso   1.00
H1442  H     0.70374   0.76090   0.75437   0.00000  Uiso   1.00
H1443  H     0.96287   0.90575   0.74496   0.00000  Uiso   1.00
H1444  H     0.96269   0.76077   0.75006   0.00000  Uiso   1.00
H1445  H     0.70393   0.90582   0.74938   0.00000  Uiso   1.00
H1446  H     0.96339   0.88183   0.89140   0.00000  Uiso   1.00
H1447  H     0.69789   0.79699   0.62350   0.00000  Uiso   1.00
H1448  H     0.99473   0.81471   0.92664   0.00000  Uiso   1.00
N1449  N     0.83333   0.95240   0.75000   0.00000  Uiso   1.00
N1450  N     0.83333   0.71427   0.75000   0.00000  Uiso   1.00
O1451  O     0.77226   0.87154   0.74999   0.00000  Uiso   1.00
O1452  O     0.93699   0.87771   0.90830   0.00000  Uiso   1.00
O1453  O     0.74720   0.85268   0.64767   0.00000  Uiso   1.00
O1454  O     0.72368   0.79438   0.60526   0.00000  Uiso   1.00
O1455  O     0.70693   0.87846   0.93537   0.00000  Uiso   1.00
O1456  O     0.68597   0.80668   0.94694   0.00000  Uiso   1.00
O1457  O     0.93483   0.76120   0.57767   0.00000  Uiso   1.00
O1458  O     0.98030   0.79283   0.53087   0.00000  Uiso   1.00
O1459  O     0.86421   0.71934   0.85446   0.00000  Uiso   1.00
O1460  O     0.92003   0.72756   0.81098   0.00000  Uiso   1.00
O1461  O     0.79955   0.94425   0.64751   0.00000  Uiso   1.00
O1462  O     0.89441   0.79513   0.75000   0.00000  Uiso   1.00
O1463  O     0.74312   0.94579   0.69081   0.00000  Uiso   1.00
O1464  O     0.79751   0.72147   0.64768   0.00000  Uiso   1.00
O1465  O     0.74335   0.72295   0.69426   0.00000  Uiso   1.00
O1466  O     0.86849   0.94611   0.85293   0.00000  Uiso   1.00
O1467  O     0.92237   0.94191   0.80615   0.00000  Uiso   1.00
O1468  O     0.89441   0.87154   0.75000   0.00000  Uiso   1.00
O1469  O     0.77226   0.79513   0.74999   0.00000  Uiso   1.00
O1470  O     0.83333   0.87156   0.68392   0.00000  Uiso   1.00
O1471  O     0.83334   0.79511   0.81607   0.00000  Uiso   1.00
O1472  O     0.83334   0.87156   0.81607   0.00000  Uiso   1.00
O1473  O     0.83333   0.79511   0.68392   0.00000  Uiso   1.00
O1474  O     0.91958   0.82798   0.85321   0.00000  Uiso   1.00
Zn1475 Zn    0.83333   0.88437   0.75000   0.00000  Uiso   1.00
Zn1476 Zn    0.83333   0.78229   0.75000   0.00000  Uiso   1.00
loop_
_geom_bond_atom_site_label_1
_geom_bond_atom_site_label_2
_geom_bond_distance
_geom_bond_site_symmetry_2
_ccdc_geom_bond_type
Br1    C16     1.946   .     S
Br2    C17     1.944   .     S
C3     O75     1.295   .     A
C3     O57     1.293   .     A
C3     C4      1.429   .     S
C4     C36     1.396   .     A
C4     C39     1.397   .     A
C5     N56     1.373   .     A
C5     C31     1.473   .     S
C5     C500    1.428   1_545 S
C6     C32     1.471   .     S
C6     N55     1.374   .     A
C6     C253    1.427   .     S
C7     C33     1.470   .     S
C7     N56     1.370   .     A
C7     C498    1.427   1_545 S
C8     N55     1.372   .     A
C8     C34     1.470   .     S
C8     C251    1.428   .     S
C9     O79     1.290   .     A
C9     O76     1.293   .     A
C9     C15     1.427   .     S
C10    O78     1.293   .     A
C10    O77     1.291   .     A
C10    C13     1.429   .     S
C11    C27     1.492   .     S
C11    C22     1.396   .     A
C11    C13     1.401   .     A
C12    C23     1.404   .     A
C12    C28     1.492   .     S
C12    C15     1.406   .     A
C13    C16     1.401   .     A
C14    O74     1.295   .     A
C14    C40     1.428   .     S
C14    O68     1.293   .     A
C15    C17     1.395   .     A
C16    C18     1.411   .     A
C17    C19     1.399   .     A
C18    C24     1.418   .     A
C18    C20     1.422   .     A
C19    C21     1.420   .     A
C19    C26     1.411   .     A
C20    C22     1.414   .     A
C20    C759    1.406   .     S
C21    C23     1.413   .     A
C21    C758    1.406   1_554 S
C22    C35     1.400   .     A
C23    C25     1.401   .     A
C24    C29     1.469   .     S
C24    C763    1.388   .     S
C25    H41     1.082   .     S
C25    C762    1.388   1_554 S
C26    C30     1.485   .     S
C26    C773    1.387   1_554 S
C27    O80     1.222   .     D
C27    O58     1.398   .     S
C28    O60     1.396   .     S
C28    O59     1.221   .     D
C29    O61     1.223   .     D
C29    O62     1.396   .     S
C30    O64     1.397   .     S
C30    O63     1.223   .     D
C31    O66     1.394   .     S
C31    O65     1.223   .     D
C32    O69     1.395   .     S
C32    O67     1.222   .     D
C33    O70     1.222   .     D
C33    O71     1.394   .     S
C34    O72     1.222   .     D
C34    O73     1.394   .     S
C35    H47     1.079   .     S
C35    C764    1.387   .     S
C36    H48     1.081   .     S
C36    C202    1.371   1_455 S
C37    C40     1.396   .     A
C37    H49     1.081   .     S
C37    C121    1.371   .     S
C38    H50     1.081   .     S
C38    C40     1.398   .     A
C38    C118    1.371   .     S
C39    H51     1.080   .     S
C39    C201    1.371   1_455 S
H42    O228    1.013   1_455 S
H43    O66     1.013   .     S
H44    O69     1.013   .     S
H45    O71     1.011   .     S
H46    O73     1.011   .     S
H52    O58     1.013   .     S
H53    O60     1.014   .     S
H54    O144    1.011   .     S
N55    Zn81    2.032   .     S
N56    Zn82    2.032   .     S
O57    Zn81    2.008   .     S
O62    H218    1.011   1_455 S
O64    H124    1.013   .     S
O68    Zn82    2.008   .     S
O74    Zn81    2.010   .     S
O75    Zn82    2.010   .     S
O76    Zn81    2.011   .     S
O77    Zn82    2.011   .     S
O78    Zn81    2.013   .     S
O79    Zn82    2.013   .     S
Br83   C98     1.946   .     S
Br84   C99     1.944   .     S
C85    O157    1.295   .     A
C85    O139    1.293   .     A
C85    C86     1.429   .     S
C86    C118    1.396   .     A
C86    C121    1.397   .     A
C87    N138    1.373   .     A
C87    C113    1.473   .     S
C87    C582    1.428   1_545 S
C88    C114    1.471   .     S
C88    N137    1.374   .     A
C88    C335    1.427   .     S
C89    C115    1.470   .     S
C89    N138    1.370   .     A
C89    C580    1.427   1_545 S
C90    N137    1.372   .     A
C90    C116    1.470   .     S
C90    C333    1.428   .     S
C91    O161    1.290   .     A
C91    O158    1.293   .     A
C91    C97     1.427   .     S
C92    O160    1.293   .     A
C92    O159    1.291   .     A
C92    C95     1.429   .     S
C93    C109    1.492   .     S
C93    C104    1.396   .     A
C93    C95     1.401   .     A
C94    C105    1.404   .     A
C94    C110    1.492   .     S
C94    C97     1.406   .     A
C95    C98     1.401   .     A
C96    O156    1.295   .     A
C96    C122    1.428   .     S
C96    O150    1.293   .     A
C97    C99     1.395   .     A
C98    C100    1.411   .     A
C99    C101    1.399   .     A
C100   C106    1.418   .     A
C100   C102    1.422   .     A
C101   C103    1.420   .     A
C101   C108    1.411   .     A
C102   C104    1.414   .     A
C102   C841    1.406   .     S
C103   C105    1.413   .     A
C103   C840    1.406   1_554 S
C104   C117    1.400   .     A
C105   C107    1.401   .     A
C106   C111    1.469   .     S
C106   C845    1.388   .     S
C107   H123    1.082   .     S
C107   C844    1.388   1_554 S
C108   C112    1.485   .     S
C108   C855    1.387   1_554 S
C109   O162    1.222   .     D
C109   O140    1.398   .     S
C110   O142    1.396   .     S
C110   O141    1.221   .     D
C111   O143    1.223   .     D
C111   O144    1.396   .     S
C112   O146    1.397   .     S
C112   O145    1.223   .     D
C113   O148    1.394   .     S
C113   O147    1.223   .     D
C114   O151    1.395   .     S
C114   O149    1.222   .     D
C115   O152    1.222   .     D
C115   O153    1.394   .     S
C116   O154    1.222   .     D
C116   O155    1.394   .     S
C117   H129    1.079   .     S
C117   C846    1.387   .     S
C118   H130    1.081   .     S
C119   C122    1.396   .     A
C119   H131    1.081   .     S
C119   C203    1.371   .     S
C120   H132    1.081   .     S
C120   C122    1.398   .     A
C120   C200    1.371   .     S
C121   H133    1.080   .     S
H125   O148    1.013   .     S
H126   O151    1.013   .     S
H127   O153    1.011   .     S
H128   O155    1.011   .     S
H134   O140    1.013   .     S
H135   O142    1.014   .     S
H136   O226    1.011   .     S
N137   Zn163   2.032   .     S
N138   Zn164   2.032   .     S
O139   Zn163   2.008   .     S
O146   H206    1.013   .     S
O150   Zn164   2.008   .     S
O156   Zn163   2.010   .     S
O157   Zn164   2.010   .     S
O158   Zn163   2.011   .     S
O159   Zn164   2.011   .     S
O160   Zn163   2.013   .     S
O161   Zn164   2.013   .     S
Br165  C180    1.946   .     S
Br166  C181    1.944   .     S
C167   O239    1.295   .     A
C167   O221    1.293   .     A
C167   C168    1.429   .     S
C168   C200    1.396   .     A
C168   C203    1.397   .     A
C169   N220    1.373   .     A
C169   C195    1.473   .     S
C169   C664    1.428   1_545 S
C170   C196    1.471   .     S
C170   N219    1.374   .     A
C170   C417    1.427   .     S
C171   C197    1.470   .     S
C171   N220    1.370   .     A
C171   C662    1.427   1_545 S
C172   N219    1.372   .     A
C172   C198    1.470   .     S
C172   C415    1.428   .     S
C173   O243    1.290   .     A
C173   O240    1.293   .     A
C173   C179    1.427   .     S
C174   O242    1.293   .     A
C174   O241    1.291   .     A
C174   C177    1.429   .     S
C175   C191    1.492   .     S
C175   C186    1.396   .     A
C175   C177    1.401   .     A
C176   C187    1.404   .     A
C176   C192    1.492   .     S
C176   C179    1.406   .     A
C177   C180    1.401   .     A
C178   O238    1.295   .     A
C178   C204    1.428   .     S
C178   O232    1.293   .     A
C179   C181    1.395   .     A
C180   C182    1.411   .     A
C181   C183    1.399   .     A
C182   C188    1.418   .     A
C182   C184    1.422   .     A
C183   C185    1.420   .     A
C183   C190    1.411   .     A
C184   C186    1.414   .     A
C184   C923    1.406   .     S
C185   C187    1.413   .     A
C185   C922    1.406   1_554 S
C186   C199    1.400   .     A
C187   C189    1.401   .     A
C188   C193    1.469   .     S
C188   C927    1.388   .     S
C189   H205    1.082   .     S
C189   C926    1.388   1_554 S
C190   C194    1.485   .     S
C190   C937    1.387   1_554 S
C191   O244    1.222   .     D
C191   O222    1.398   .     S
C192   O224    1.396   .     S
C192   O223    1.221   .     D
C193   O225    1.223   .     D
C193   O226    1.396   .     S
C194   O228    1.397   .     S
C194   O227    1.223   .     D
C195   O230    1.394   .     S
C195   O229    1.223   .     D
C196   O233    1.395   .     S
C196   O231    1.222   .     D
C197   O234    1.222   .     D
C197   O235    1.394   .     S
C198   O236    1.222   .     D
C198   O237    1.394   .     S
C199   H211    1.079   .     S
C199   C928    1.387   .     S
C200   H212    1.081   .     S
C201   C204    1.396   .     A
C201   H213    1.081   .     S
C201   C39     1.371   1_655 S
C202   H214    1.081   .     S
C202   C204    1.398   .     A
C202   C36     1.371   1_655 S
C203   H215    1.080   .     S
H207   O230    1.013   .     S
H208   O233    1.013   .     S
H209   O235    1.011   .     S
H210   O237    1.011   .     S
H216   O222    1.013   .     S
H217   O224    1.014   .     S
H218   O62     1.011   1_655 S
N219   Zn245   2.032   .     S
N220   Zn246   2.032   .     S
O221   Zn245   2.008   .     S
O228   H42     1.013   1_655 S
O232   Zn246   2.008   .     S
O238   Zn245   2.010   .     S
O239   Zn246   2.010   .     S
O240   Zn245   2.011   .     S
O241   Zn246   2.011   .     S
O242   Zn245   2.013   .     S
O243   Zn246   2.013   .     S
Br247  C262    1.946   .     S
Br248  C263    1.944   .     S
C249   O321    1.295   .     A
C249   O303    1.293   .     A
C249   C250    1.429   .     S
C250   C282    1.396   .     A
C250   C285    1.397   .     A
C251   N302    1.373   .     A
C251   C277    1.473   .     S
C252   C278    1.471   .     S
C252   N301    1.374   .     A
C252   C499    1.427   .     S
C253   C279    1.470   .     S
C253   N302    1.370   .     A
C254   N301    1.372   .     A
C254   C280    1.470   .     S
C254   C497    1.428   .     S
C255   O325    1.290   .     A
C255   O322    1.293   .     A
C255   C261    1.427   .     S
C256   O324    1.293   .     A
C256   O323    1.291   .     A
C256   C259    1.429   .     S
C257   C273    1.492   .     S
C257   C268    1.396   .     A
C257   C259    1.401   .     A
C258   C269    1.404   .     A
C258   C274    1.492   .     S
C258   C261    1.406   .     A
C259   C262    1.401   .     A
C260   O320    1.295   .     A
C260   C286    1.428   .     S
C260   O314    1.293   .     A
C261   C263    1.395   .     A
C262   C264    1.411   .     A
C263   C265    1.399   .     A
C264   C270    1.418   .     A
C264   C266    1.422   .     A
C265   C267    1.420   .     A
C265   C272    1.411   .     A
C266   C268    1.414   .     A
C266   C1005   1.406   .     S
C267   C269    1.413   .     A
C267   C1004   1.406   1_554 S
C268   C281    1.400   .     A
C269   C271    1.401   .     A
C270   C275    1.469   .     S
C270   C1009   1.388   .     S
C271   H287    1.082   .     S
C271   C1008   1.388   1_554 S
C272   C276    1.485   .     S
C272   C1019   1.387   1_554 S
C273   O326    1.222   .     D
C273   O304    1.398   .     S
C274   O306    1.396   .     S
C274   O305    1.221   .     D
C275   O307    1.223   .     D
C275   O308    1.396   .     S
C276   O310    1.397   .     S
C276   O309    1.223   .     D
C277   O312    1.394   .     S
C277   O311    1.223   .     D
C278   O315    1.395   .     S
C278   O313    1.222   .     D
C279   O316    1.222   .     D
C279   O317    1.394   .     S
C280   O318    1.222   .     D
C280   O319    1.394   .     S
C281   H293    1.079   .     S
C281   C1010   1.387   .     S
C282   H294    1.081   .     S
C282   C448    1.371   1_455 S
C283   C286    1.396   .     A
C283   H295    1.081   .     S
C283   C367    1.371   .     S
C284   H296    1.081   .     S
C284   C286    1.398   .     A
C284   C364    1.371   .     S
C285   H297    1.080   .     S
C285   C447    1.371   1_455 S
H288   O474    1.013   1_455 S
H289   O312    1.013   .     S
H290   O315    1.013   .     S
H291   O317    1.011   .     S
H292   O319    1.011   .     S
H298   O304    1.013   .     S
H299   O306    1.014   .     S
H300   O390    1.011   .     S
N301   Zn327   2.032   .     S
N302   Zn328   2.032   .     S
O303   Zn327   2.008   .     S
O308   H464    1.011   1_455 S
O310   H370    1.013   .     S
O314   Zn328   2.008   .     S
O320   Zn327   2.010   .     S
O321   Zn328   2.010   .     S
O322   Zn327   2.011   .     S
O323   Zn328   2.011   .     S
O324   Zn327   2.013   .     S
O325   Zn328   2.013   .     S
Br329  C344    1.946   .     S
Br330  C345    1.944   .     S
C331   O403    1.295   .     A
C331   O385    1.293   .     A
C331   C332    1.429   .     S
C332   C364    1.396   .     A
C332   C367    1.397   .     A
C333   N384    1.373   .     A
C333   C359    1.473   .     S
C334   C360    1.471   .     S
C334   N383    1.374   .     A
C334   C581    1.427   .     S
C335   C361    1.470   .     S
C335   N384    1.370   .     A
C336   N383    1.372   .     A
C336   C362    1.470   .     S
C336   C579    1.428   .     S
C337   O407    1.290   .     A
C337   O404    1.293   .     A
C337   C343    1.427   .     S
C338   O406    1.293   .     A
C338   O405    1.291   .     A
C338   C341    1.429   .     S
C339   C355    1.492   .     S
C339   C350    1.396   .     A
C339   C341    1.401   .     A
C340   C351    1.404   .     A
C340   C356    1.492   .     S
C340   C343    1.406   .     A
C341   C344    1.401   .     A
C342   O402    1.295   .     A
C342   C368    1.428   .     S
C342   O396    1.293   .     A
C343   C345    1.395   .     A
C344   C346    1.411   .     A
C345   C347    1.399   .     A
C346   C352    1.418   .     A
C346   C348    1.422   .     A
C347   C349    1.420   .     A
C347   C354    1.411   .     A
C348   C350    1.414   .     A
C348   C1087   1.406   .     S
C349   C351    1.413   .     A
C349   C1086   1.406   1_554 S
C350   C363    1.400   .     A
C351   C353    1.401   .     A
C352   C357    1.469   .     S
C352   C1091   1.388   .     S
C353   H369    1.082   .     S
C353   C1090   1.388   1_554 S
C354   C358    1.485   .     S
C354   C1101   1.387   1_554 S
C355   O408    1.222   .     D
C355   O386    1.398   .     S
C356   O388    1.396   .     S
C356   O387    1.221   .     D
C357   O389    1.223   .     D
C357   O390    1.396   .     S
C358   O392    1.397   .     S
C358   O391    1.223   .     D
C359   O394    1.394   .     S
C359   O393    1.223   .     D
C360   O397    1.395   .     S
C360   O395    1.222   .     D
C361   O398    1.222   .     D
C361   O399    1.394   .     S
C362   O400    1.222   .     D
C362   O401    1.394   .     S
C363   H375    1.079   .     S
C363   C1092   1.387   .     S
C364   H376    1.081   .     S
C365   C368    1.396   .     A
C365   H377    1.081   .     S
C365   C449    1.371   .     S
C366   H378    1.081   .     S
C366   C368    1.398   .     A
C366   C446    1.371   .     S
C367   H379    1.080   .     S
H371   O394    1.013   .     S
H372   O397    1.013   .     S
H373   O399    1.011   .     S
H374   O401    1.011   .     S
H380   O386    1.013   .     S
H381   O388    1.014   .     S
H382   O472    1.011   .     S
N383   Zn409   2.032   .     S
N384   Zn410   2.032   .     S
O385   Zn409   2.008   .     S
O392   H452    1.013   .     S
O396   Zn410   2.008   .     S
O402   Zn409   2.010   .     S
O403   Zn410   2.010   .     S
O404   Zn409   2.011   .     S
O405   Zn410   2.011   .     S
O406   Zn409   2.013   .     S
O407   Zn410   2.013   .     S
Br411  C426    1.946   .     S
Br412  C427    1.944   .     S
C413   O485    1.295   .     A
C413   O467    1.293   .     A
C413   C414    1.429   .     S
C414   C446    1.396   .     A
C414   C449    1.397   .     A
C415   N466    1.373   .     A
C415   C441    1.473   .     S
C416   C442    1.471   .     S
C416   N465    1.374   .     A
C416   C663    1.427   .     S
C417   C443    1.470   .     S
C417   N466    1.370   .     A
C418   N465    1.372   .     A
C418   C444    1.470   .     S
C418   C661    1.428   .     S
C419   O489    1.290   .     A
C419   O486    1.293   .     A
C419   C425    1.427   .     S
C420   O488    1.293   .     A
C420   O487    1.291   .     A
C420   C423    1.429   .     S
C421   C437    1.492   .     S
C421   C432    1.396   .     A
C421   C423    1.401   .     A
C422   C433    1.404   .     A
C422   C438    1.492   .     S
C422   C425    1.406   .     A
C423   C426    1.401   .     A
C424   O484    1.295   .     A
C424   C450    1.428   .     S
C424   O478    1.293   .     A
C425   C427    1.395   .     A
C426   C428    1.411   .     A
C427   C429    1.399   .     A
C428   C434    1.418   .     A
C428   C430    1.422   .     A
C429   C431    1.420   .     A
C429   C436    1.411   .     A
C430   C432    1.414   .     A
C430   C1169   1.406   .     S
C431   C433    1.413   .     A
C431   C1168   1.406   1_554 S
C432   C445    1.400   .     A
C433   C435    1.401   .     A
C434   C439    1.469   .     S
C434   C1173   1.388   .     S
C435   H451    1.082   .     S
C435   C1172   1.388   1_554 S
C436   C440    1.485   .     S
C436   C1183   1.387   1_554 S
C437   O490    1.222   .     D
C437   O468    1.398   .     S
C438   O470    1.396   .     S
C438   O469    1.221   .     D
C439   O471    1.223   .     D
C439   O472    1.396   .     S
C440   O474    1.397   .     S
C440   O473    1.223   .     D
C441   O476    1.394   .     S
C441   O475    1.223   .     D
C442   O479    1.395   .     S
C442   O477    1.222   .     D
C443   O480    1.222   .     D
C443   O481    1.394   .     S
C444   O482    1.222   .     D
C444   O483    1.394   .     S
C445   H457    1.079   .     S
C445   C1174   1.387   .     S
C446   H458    1.081   .     S
C447   C450    1.396   .     A
C447   H459    1.081   .     S
C447   C285    1.371   1_655 S
C448   H460    1.081   .     S
C448   C450    1.398   .     A
C448   C282    1.371   1_655 S
C449   H461    1.080   .     S
H453   O476    1.013   .     S
H454   O479    1.013   .     S
H455   O481    1.011   .     S
H456   O483    1.011   .     S
H462   O468    1.013   .     S
H463   O470    1.014   .     S
H464   O308    1.011   1_655 S
N465   Zn491   2.032   .     S
N466   Zn492   2.032   .     S
O467   Zn491   2.008   .     S
O474   H288    1.013   1_655 S
O478   Zn492   2.008   .     S
O484   Zn491   2.010   .     S
O485   Zn492   2.010   .     S
O486   Zn491   2.011   .     S
O487   Zn492   2.011   .     S
O488   Zn491   2.013   .     S
O489   Zn492   2.013   .     S
Br493  C508    1.946   .     S
Br494  C509    1.944   .     S
C495   O567    1.295   .     A
C495   O549    1.293   .     A
C495   C496    1.429   .     S
C496   C528    1.396   .     A
C496   C531    1.397   .     A
C497   N548    1.373   .     A
C497   C523    1.473   .     S
C498   C524    1.471   .     S
C498   N547    1.374   .     A
C498   C7      1.427   1_565 S
C499   C525    1.470   .     S
C499   N548    1.370   .     A
C500   N547    1.372   .     A
C500   C526    1.470   .     S
C500   C5      1.428   1_565 S
C501   O571    1.290   .     A
C501   O568    1.293   .     A
C501   C507    1.427   .     S
C502   O570    1.293   .     A
C502   O569    1.291   .     A
C502   C505    1.429   .     S
C503   C519    1.492   .     S
C503   C514    1.396   .     A
C503   C505    1.401   .     A
C504   C515    1.404   .     A
C504   C520    1.492   .     S
C504   C507    1.406   .     A
C505   C508    1.401   .     A
C506   O566    1.295   .     A
C506   C532    1.428   .     S
C506   O560    1.293   .     A
C507   C509    1.395   .     A
C508   C510    1.411   .     A
C509   C511    1.399   .     A
C510   C516    1.418   .     A
C510   C512    1.422   .     A
C511   C513    1.420   .     A
C511   C518    1.411   .     A
C512   C514    1.414   .     A
C512   C1251   1.406   .     S
C513   C515    1.413   .     A
C513   C1250   1.406   1_554 S
C514   C527    1.400   .     A
C515   C517    1.401   .     A
C516   C521    1.469   .     S
C516   C1255   1.388   .     S
C517   H533    1.082   .     S
C517   C1254   1.388   1_554 S
C518   C522    1.485   .     S
C518   C1265   1.387   1_554 S
C519   O572    1.222   .     D
C519   O550    1.398   .     S
C520   O552    1.396   .     S
C520   O551    1.221   .     D
C521   O553    1.223   .     D
C521   O554    1.396   .     S
C522   O556    1.397   .     S
C522   O555    1.223   .     D
C523   O558    1.394   .     S
C523   O557    1.223   .     D
C524   O561    1.395   .     S
C524   O559    1.222   .     D
C525   O562    1.222   .     D
C525   O563    1.394   .     S
C526   O564    1.222   .     D
C526   O565    1.394   .     S
C527   H539    1.079   .     S
C527   C1256   1.387   .     S
C528   H540    1.081   .     S
C528   C694    1.371   1_455 S
C529   C532    1.396   .     A
C529   H541    1.081   .     S
C529   C613    1.371   .     S
C530   H542    1.081   .     S
C530   C532    1.398   .     A
C530   C610    1.371   .     S
C531   H543    1.080   .     S
C531   C693    1.371   1_455 S
H534   O720    1.013   1_455 S
H535   O558    1.013   .     S
H536   O561    1.013   .     S
H537   O563    1.011   .     S
H538   O565    1.011   .     S
H544   O550    1.013   .     S
H545   O552    1.014   .     S
H546   O636    1.011   .     S
N547   Zn573   2.032   .     S
N548   Zn574   2.032   .     S
O549   Zn573   2.008   .     S
O554   H710    1.011   1_455 S
O556   H616    1.013   .     S
O560   Zn574   2.008   .     S
O566   Zn573   2.010   .     S
O567   Zn574   2.010   .     S
O568   Zn573   2.011   .     S
O569   Zn574   2.011   .     S
O570   Zn573   2.013   .     S
O571   Zn574   2.013   .     S
Br575  C590    1.946   .     S
Br576  C591    1.944   .     S
C577   O649    1.295   .     A
C577   O631    1.293   .     A
C577   C578    1.429   .     S
C578   C610    1.396   .     A
C578   C613    1.397   .     A
C579   N630    1.373   .     A
C579   C605    1.473   .     S
C580   C606    1.471   .     S
C580   N629    1.374   .     A
C580   C89     1.427   1_565 S
C581   C607    1.470   .     S
C581   N630    1.370   .     A
C582   N629    1.372   .     A
C582   C608    1.470   .     S
C582   C87     1.428   1_565 S
C583   O653    1.290   .     A
C583   O650    1.293   .     A
C583   C589    1.427   .     S
C584   O652    1.293   .     A
C584   O651    1.291   .     A
C584   C587    1.429   .     S
C585   C601    1.492   .     S
C585   C596    1.396   .     A
C585   C587    1.401   .     A
C586   C597    1.404   .     A
C586   C602    1.492   .     S
C586   C589    1.406   .     A
C587   C590    1.401   .     A
C588   O648    1.295   .     A
C588   C614    1.428   .     S
C588   O642    1.293   .     A
C589   C591    1.395   .     A
C590   C592    1.411   .     A
C591   C593    1.399   .     A
C592   C598    1.418   .     A
C592   C594    1.422   .     A
C593   C595    1.420   .     A
C593   C600    1.411   .     A
C594   C596    1.414   .     A
C594   C1333   1.406   .     S
C595   C597    1.413   .     A
C595   C1332   1.406   1_554 S
C596   C609    1.400   .     A
C597   C599    1.401   .     A
C598   C603    1.469   .     S
C598   C1337   1.388   .     S
C599   H615    1.082   .     S
C599   C1336   1.388   1_554 S
C600   C604    1.485   .     S
C600   C1347   1.387   1_554 S
C601   O654    1.222   .     D
C601   O632    1.398   .     S
C602   O634    1.396   .     S
C602   O633    1.221   .     D
C603   O635    1.223   .     D
C603   O636    1.396   .     S
C604   O638    1.397   .     S
C604   O637    1.223   .     D
C605   O640    1.394   .     S
C605   O639    1.223   .     D
C606   O643    1.395   .     S
C606   O641    1.222   .     D
C607   O644    1.222   .     D
C607   O645    1.394   .     S
C608   O646    1.222   .     D
C608   O647    1.394   .     S
C609   H621    1.079   .     S
C609   C1338   1.387   .     S
C610   H622    1.081   .     S
C611   C614    1.396   .     A
C611   H623    1.081   .     S
C611   C695    1.371   .     S
C612   H624    1.081   .     S
C612   C614    1.398   .     A
C612   C692    1.371   .     S
C613   H625    1.080   .     S
H617   O640    1.013   .     S
H618   O643    1.013   .     S
H619   O645    1.011   .     S
H620   O647    1.011   .     S
H626   O632    1.013   .     S
H627   O634    1.014   .     S
H628   O718    1.011   .     S
N629   Zn655   2.032   .     S
N630   Zn656   2.032   .     S
O631   Zn655   2.008   .     S
O638   H698    1.013   .     S
O642   Zn656   2.008   .     S
O648   Zn655   2.010   .     S
O649   Zn656   2.010   .     S
O650   Zn655   2.011   .     S
O651   Zn656   2.011   .     S
O652   Zn655   2.013   .     S
O653   Zn656   2.013   .     S
Br657  C672    1.946   .     S
Br658  C673    1.944   .     S
C659   O731    1.295   .     A
C659   O713    1.293   .     A
C659   C660    1.429   .     S
C660   C692    1.396   .     A
C660   C695    1.397   .     A
C661   N712    1.373   .     A
C661   C687    1.473   .     S
C662   C688    1.471   .     S
C662   N711    1.374   .     A
C662   C171    1.427   1_565 S
C663   C689    1.470   .     S
C663   N712    1.370   .     A
C664   N711    1.372   .     A
C664   C690    1.470   .     S
C664   C169    1.428   1_565 S
C665   O735    1.290   .     A
C665   O732    1.293   .     A
C665   C671    1.427   .     S
C666   O734    1.293   .     A
C666   O733    1.291   .     A
C666   C669    1.429   .     S
C667   C683    1.492   .     S
C667   C678    1.396   .     A
C667   C669    1.401   .     A
C668   C679    1.404   .     A
C668   C684    1.492   .     S
C668   C671    1.406   .     A
C669   C672    1.401   .     A
C670   O730    1.295   .     A
C670   C696    1.428   .     S
C670   O724    1.293   .     A
C671   C673    1.395   .     A
C672   C674    1.411   .     A
C673   C675    1.399   .     A
C674   C680    1.418   .     A
C674   C676    1.422   .     A
C675   C677    1.420   .     A
C675   C682    1.411   .     A
C676   C678    1.414   .     A
C676   C1415   1.406   .     S
C677   C679    1.413   .     A
C677   C1414   1.406   1_554 S
C678   C691    1.400   .     A
C679   C681    1.401   .     A
C680   C685    1.469   .     S
C680   C1419   1.388   .     S
C681   H697    1.082   .     S
C681   C1418   1.388   1_554 S
C682   C686    1.485   .     S
C682   C1429   1.387   1_554 S
C683   O736    1.222   .     D
C683   O714    1.398   .     S
C684   O716    1.396   .     S
C684   O715    1.221   .     D
C685   O717    1.223   .     D
C685   O718    1.396   .     S
C686   O720    1.397   .     S
C686   O719    1.223   .     D
C687   O722    1.394   .     S
C687   O721    1.223   .     D
C688   O725    1.395   .     S
C688   O723    1.222   .     D
C689   O726    1.222   .     D
C689   O727    1.394   .     S
C690   O728    1.222   .     D
C690   O729    1.394   .     S
C691   H703    1.079   .     S
C691   C1420   1.387   .     S
C692   H704    1.081   .     S
C693   C696    1.396   .     A
C693   H705    1.081   .     S
C693   C531    1.371   1_655 S
C694   H706    1.081   .     S
C694   C696    1.398   .     A
C694   C528    1.371   1_655 S
C695   H707    1.080   .     S
H699   O722    1.013   .     S
H700   O725    1.013   .     S
H701   O727    1.011   .     S
H702   O729    1.011   .     S
H708   O714    1.013   .     S
H709   O716    1.014   .     S
H710   O554    1.011   1_655 S
N711   Zn737   2.032   .     S
N712   Zn738   2.032   .     S
O713   Zn737   2.008   .     S
O720   H534    1.013   1_655 S
O724   Zn738   2.008   .     S
O730   Zn737   2.010   .     S
O731   Zn738   2.010   .     S
O732   Zn737   2.011   .     S
O733   Zn738   2.011   .     S
O734   Zn737   2.013   .     S
O735   Zn738   2.013   .     S
Br739  C754    1.946   .     S
Br740  C755    1.944   .     S
C741   O813    1.295   .     A
C741   O795    1.293   .     A
C741   C742    1.429   .     S
C742   C774    1.396   .     A
C742   C777    1.397   .     A
C743   N794    1.373   .     A
C743   C769    1.473   .     S
C743   C1238   1.428   1_545 S
C744   C770    1.471   .     S
C744   N793    1.374   .     A
C744   C991    1.427   .     S
C745   C771    1.470   .     S
C745   N794    1.370   .     A
C745   C1236   1.427   1_545 S
C746   N793    1.372   .     A
C746   C772    1.470   .     S
C746   C989    1.428   .     S
C747   O817    1.290   .     A
C747   O814    1.293   .     A
C747   C753    1.427   .     S
C748   O816    1.293   .     A
C748   O815    1.291   .     A
C748   C751    1.429   .     S
C749   C765    1.492   .     S
C749   C760    1.396   .     A
C749   C751    1.401   .     A
C750   C761    1.404   .     A
C750   C766    1.492   .     S
C750   C753    1.406   .     A
C751   C754    1.401   .     A
C752   O812    1.295   .     A
C752   C778    1.428   .     S
C752   O806    1.293   .     A
C753   C755    1.395   .     A
C754   C756    1.411   .     A
C755   C757    1.399   .     A
C756   C762    1.418   .     A
C756   C758    1.422   .     A
C757   C759    1.420   .     A
C757   C764    1.411   .     A
C758   C760    1.414   .     A
C758   C21     1.406   1_556 S
C759   C761    1.413   .     A
C760   C773    1.400   .     A
C761   C763    1.401   .     A
C762   C767    1.469   .     S
C762   C25     1.388   1_556 S
C763   H779    1.082   .     S
C764   C768    1.485   .     S
C765   O818    1.222   .     D
C765   O796    1.398   .     S
C766   O798    1.396   .     S
C766   O797    1.221   .     D
C767   O799    1.223   .     D
C767   O800    1.396   .     S
C768   O802    1.397   .     S
C768   O801    1.223   .     D
C769   O804    1.394   .     S
C769   O803    1.223   .     D
C770   O807    1.395   .     S
C770   O805    1.222   .     D
C771   O808    1.222   .     D
C771   O809    1.394   .     S
C772   O810    1.222   .     D
C772   O811    1.394   .     S
C773   H785    1.079   .     S
C773   C26     1.387   1_556 S
C774   H786    1.081   .     S
C774   C940    1.371   1_455 S
C775   C778    1.396   .     A
C775   H787    1.081   .     S
C775   C859    1.371   .     S
C776   H788    1.081   .     S
C776   C778    1.398   .     A
C776   C856    1.371   .     S
C777   H789    1.080   .     S
C777   C939    1.371   1_455 S
H780   O966    1.013   1_455 S
H781   O804    1.013   .     S
H782   O807    1.013   .     S
H783   O809    1.011   .     S
H784   O811    1.011   .     S
H790   O796    1.013   .     S
H791   O798    1.014   .     S
H792   O882    1.011   .     S
N793   Zn819   2.032   .     S
N794   Zn820   2.032   .     S
O795   Zn819   2.008   .     S
O800   H956    1.011   1_455 S
O802   H862    1.013   .     S
O806   Zn820   2.008   .     S
O812   Zn819   2.010   .     S
O813   Zn820   2.010   .     S
O814   Zn819   2.011   .     S
O815   Zn820   2.011   .     S
O816   Zn819   2.013   .     S
O817   Zn820   2.013   .     S
Br821  C836    1.946   .     S
Br822  C837    1.944   .     S
C823   O895    1.295   .     A
C823   O877    1.293   .     A
C823   C824    1.429   .     S
C824   C856    1.396   .     A
C824   C859    1.397   .     A
C825   N876    1.373   .     A
C825   C851    1.473   .     S
C825   C1320   1.428   1_545 S
C826   C852    1.471   .     S
C826   N875    1.374   .     A
C826   C1073   1.427   .     S
C827   C853    1.470   .     S
C827   N876    1.370   .     A
C827   C1318   1.427   1_545 S
C828   N875    1.372   .     A
C828   C854    1.470   .     S
C828   C1071   1.428   .     S
C829   O899    1.290   .     A
C829   O896    1.293   .     A
C829   C835    1.427   .     S
C830   O898    1.293   .     A
C830   O897    1.291   .     A
C830   C833    1.429   .     S
C831   C847    1.492   .     S
C831   C842    1.396   .     A
C831   C833    1.401   .     A
C832   C843    1.404   .     A
C832   C848    1.492   .     S
C832   C835    1.406   .     A
C833   C836    1.401   .     A
C834   O894    1.295   .     A
C834   C860    1.428   .     S
C834   O888    1.293   .     A
C835   C837    1.395   .     A
C836   C838    1.411   .     A
C837   C839    1.399   .     A
C838   C844    1.418   .     A
C838   C840    1.422   .     A
C839   C841    1.420   .     A
C839   C846    1.411   .     A
C840   C842    1.414   .     A
C840   C103    1.406   1_556 S
C841   C843    1.413   .     A
C842   C855    1.400   .     A
C843   C845    1.401   .     A
C844   C849    1.469   .     S
C844   C107    1.388   1_556 S
C845   H861    1.082   .     S
C846   C850    1.485   .     S
C847   O900    1.222   .     D
C847   O878    1.398   .     S
C848   O880    1.396   .     S
C848   O879    1.221   .     D
C849   O881    1.223   .     D
C849   O882    1.396   .     S
C850   O884    1.397   .     S
C850   O883    1.223   .     D
C851   O886    1.394   .     S
C851   O885    1.223   .     D
C852   O889    1.395   .     S
C852   O887    1.222   .     D
C853   O890    1.222   .     D
C853   O891    1.394   .     S
C854   O892    1.222   .     D
C854   O893    1.394   .     S
C855   H867    1.079   .     S
C855   C108    1.387   1_556 S
C856   H868    1.081   .     S
C857   C860    1.396   .     A
C857   H869    1.081   .     S
C857   C941    1.371   .     S
C858   H870    1.081   .     S
C858   C860    1.398   .     A
C858   C938    1.371   .     S
C859   H871    1.080   .     S
H863   O886    1.013   .     S
H864   O889    1.013   .     S
H865   O891    1.011   .     S
H866   O893    1.011   .     S
H872   O878    1.013   .     S
H873   O880    1.014   .     S
H874   O964    1.011   .     S
N875   Zn901   2.032   .     S
N876   Zn902   2.032   .     S
O877   Zn901   2.008   .     S
O884   H944    1.013   .     S
O888   Zn902   2.008   .     S
O894   Zn901   2.010   .     S
O895   Zn902   2.010   .     S
O896   Zn901   2.011   .     S
O897   Zn902   2.011   .     S
O898   Zn901   2.013   .     S
O899   Zn902   2.013   .     S
Br903  C918    1.946   .     S
Br904  C919    1.944   .     S
C905   O977    1.295   .     A
C905   O959    1.293   .     A
C905   C906    1.429   .     S
C906   C938    1.396   .     A
C906   C941    1.397   .     A
C907   N958    1.373   .     A
C907   C933    1.473   .     S
C907   C1402   1.428   1_545 S
C908   C934    1.471   .     S
C908   N957    1.374   .     A
C908   C1155   1.427   .     S
C909   C935    1.470   .     S
C909   N958    1.370   .     A
C909   C1400   1.427   1_545 S
C910   N957    1.372   .     A
C910   C936    1.470   .     S
C910   C1153   1.428   .     S
C911   O981    1.290   .     A
C911   O978    1.293   .     A
C911   C917    1.427   .     S
C912   O980    1.293   .     A
C912   O979    1.291   .     A
C912   C915    1.429   .     S
C913   C929    1.492   .     S
C913   C924    1.396   .     A
C913   C915    1.401   .     A
C914   C925    1.404   .     A
C914   C930    1.492   .     S
C914   C917    1.406   .     A
C915   C918    1.401   .     A
C916   O976    1.295   .     A
C916   C942    1.428   .     S
C916   O970    1.293   .     A
C917   C919    1.395   .     A
C918   C920    1.411   .     A
C919   C921    1.399   .     A
C920   C926    1.418   .     A
C920   C922    1.422   .     A
C921   C923    1.420   .     A
C921   C928    1.411   .     A
C922   C924    1.414   .     A
C922   C185    1.406   1_556 S
C923   C925    1.413   .     A
C924   C937    1.400   .     A
C925   C927    1.401   .     A
C926   C931    1.469   .     S
C926   C189    1.388   1_556 S
C927   H943    1.082   .     S
C928   C932    1.485   .     S
C929   O982    1.222   .     D
C929   O960    1.398   .     S
C930   O962    1.396   .     S
C930   O961    1.221   .     D
C931   O963    1.223   .     D
C931   O964    1.396   .     S
C932   O966    1.397   .     S
C932   O965    1.223   .     D
C933   O968    1.394   .     S
C933   O967    1.223   .     D
C934   O971    1.395   .     S
C934   O969    1.222   .     D
C935   O972    1.222   .     D
C935   O973    1.394   .     S
C936   O974    1.222   .     D
C936   O975    1.394   .     S
C937   H949    1.079   .     S
C937   C190    1.387   1_556 S
C938   H950    1.081   .     S
C939   C942    1.396   .     A
C939   H951    1.081   .     S
C939   C777    1.371   1_655 S
C940   H952    1.081   .     S
C940   C942    1.398   .     A
C940   C774    1.371   1_655 S
C941   H953    1.080   .     S
H945   O968    1.013   .     S
H946   O971    1.013   .     S
H947   O973    1.011   .     S
H948   O975    1.011   .     S
H954   O960    1.013   .     S
H955   O962    1.014   .     S
H956   O800    1.011   1_655 S
N957   Zn983   2.032   .     S
N958   Zn984   2.032   .     S
O959   Zn983   2.008   .     S
O966   H780    1.013   1_655 S
O970   Zn984   2.008   .     S
O976   Zn983   2.010   .     S
O977   Zn984   2.010   .     S
O978   Zn983   2.011   .     S
O979   Zn984   2.011   .     S
O980   Zn983   2.013   .     S
O981   Zn984   2.013   .     S
Br985  C1000   1.946   .     S
Br986  C1001   1.944   .     S
C987   O1059   1.295   .     A
C987   O1041   1.293   .     A
C987   C988    1.429   .     S
C988   C1020   1.396   .     A
C988   C1023   1.397   .     A
C989   N1040   1.373   .     A
C989   C1015   1.473   .     S
C990   C1016   1.471   .     S
C990   N1039   1.374   .     A
C990   C1237   1.427   .     S
C991   C1017   1.470   .     S
C991   N1040   1.370   .     A
C992   N1039   1.372   .     A
C992   C1018   1.470   .     S
C992   C1235   1.428   .     S
C993   O1063   1.290   .     A
C993   O1060   1.293   .     A
C993   C999    1.427   .     S
C994   O1062   1.293   .     A
C994   O1061   1.291   .     A
C994   C997    1.429   .     S
C995   C1011   1.492   .     S
C995   C1006   1.396   .     A
C995   C997    1.401   .     A
C996   C1007   1.404   .     A
C996   C1012   1.492   .     S
C996   C999    1.406   .     A
C997   C1000   1.401   .     A
C998   O1058   1.295   .     A
C998   C1024   1.428   .     S
C998   O1052   1.293   .     A
C999   C1001   1.395   .     A
C1000  C1002   1.411   .     A
C1001  C1003   1.399   .     A
C1002  C1008   1.418   .     A
C1002  C1004   1.422   .     A
C1003  C1005   1.420   .     A
C1003  C1010   1.411   .     A
C1004  C1006   1.414   .     A
C1004  C267    1.406   1_556 S
C1005  C1007   1.413   .     A
C1006  C1019   1.400   .     A
C1007  C1009   1.401   .     A
C1008  C1013   1.469   .     S
C1008  C271    1.388   1_556 S
C1009  H1025   1.082   .     S
C1010  C1014   1.485   .     S
C1011  O1064   1.222   .     D
C1011  O1042   1.398   .     S
C1012  O1044   1.396   .     S
C1012  O1043   1.221   .     D
C1013  O1045   1.223   .     D
C1013  O1046   1.396   .     S
C1014  O1048   1.397   .     S
C1014  O1047   1.223   .     D
C1015  O1050   1.394   .     S
C1015  O1049   1.223   .     D
C1016  O1053   1.395   .     S
C1016  O1051   1.222   .     D
C1017  O1054   1.222   .     D
C1017  O1055   1.394   .     S
C1018  O1056   1.222   .     D
C1018  O1057   1.394   .     S
C1019  H1031   1.079   .     S
C1019  C272    1.387   1_556 S
C1020  H1032   1.081   .     S
C1020  C1186   1.371   1_455 S
C1021  C1024   1.396   .     A
C1021  H1033   1.081   .     S
C1021  C1105   1.371   .     S
C1022  H1034   1.081   .     S
C1022  C1024   1.398   .     A
C1022  C1102   1.371   .     S
C1023  H1035   1.080   .     S
C1023  C1185   1.371   1_455 S
H1026  O1212   1.013   1_455 S
H1027  O1050   1.013   .     S
H1028  O1053   1.013   .     S
H1029  O1055   1.011   .     S
H1030  O1057   1.011   .     S
H1036  O1042   1.013   .     S
H1037  O1044   1.014   .     S
H1038  O1128   1.011   .     S
N1039  Zn1065  2.032   .     S
N1040  Zn1066  2.032   .     S
O1041  Zn1065  2.008   .     S
O1046  H1202   1.011   1_455 S
O1048  H1108   1.013   .     S
O1052  Zn1066  2.008   .     S
O1058  Zn1065  2.010   .     S
O1059  Zn1066  2.010   .     S
O1060  Zn1065  2.011   .     S
O1061  Zn1066  2.011   .     S
O1062  Zn1065  2.013   .     S
O1063  Zn1066  2.013   .     S
Br1067 C1082   1.946   .     S
Br1068 C1083   1.944   .     S
C1069  O1141   1.295   .     A
C1069  O1123   1.293   .     A
C1069  C1070   1.429   .     S
C1070  C1102   1.396   .     A
C1070  C1105   1.397   .     A
C1071  N1122   1.373   .     A
C1071  C1097   1.473   .     S
C1072  C1098   1.471   .     S
C1072  N1121   1.374   .     A
C1072  C1319   1.427   .     S
C1073  C1099   1.470   .     S
C1073  N1122   1.370   .     A
C1074  N1121   1.372   .     A
C1074  C1100   1.470   .     S
C1074  C1317   1.428   .     S
C1075  O1145   1.290   .     A
C1075  O1142   1.293   .     A
C1075  C1081   1.427   .     S
C1076  O1144   1.293   .     A
C1076  O1143   1.291   .     A
C1076  C1079   1.429   .     S
C1077  C1093   1.492   .     S
C1077  C1088   1.396   .     A
C1077  C1079   1.401   .     A
C1078  C1089   1.404   .     A
C1078  C1094   1.492   .     S
C1078  C1081   1.406   .     A
C1079  C1082   1.401   .     A
C1080  O1140   1.295   .     A
C1080  C1106   1.428   .     S
C1080  O1134   1.293   .     A
C1081  C1083   1.395   .     A
C1082  C1084   1.411   .     A
C1083  C1085   1.399   .     A
C1084  C1090   1.418   .     A
C1084  C1086   1.422   .     A
C1085  C1087   1.420   .     A
C1085  C1092   1.411   .     A
C1086  C1088   1.414   .     A
C1086  C349    1.406   1_556 S
C1087  C1089   1.413   .     A
C1088  C1101   1.400   .     A
C1089  C1091   1.401   .     A
C1090  C1095   1.469   .     S
C1090  C353    1.388   1_556 S
C1091  H1107   1.082   .     S
C1092  C1096   1.485   .     S
C1093  O1146   1.222   .     D
C1093  O1124   1.398   .     S
C1094  O1126   1.396   .     S
C1094  O1125   1.221   .     D
C1095  O1127   1.223   .     D
C1095  O1128   1.396   .     S
C1096  O1130   1.397   .     S
C1096  O1129   1.223   .     D
C1097  O1132   1.394   .     S
C1097  O1131   1.223   .     D
C1098  O1135   1.395   .     S
C1098  O1133   1.222   .     D
C1099  O1136   1.222   .     D
C1099  O1137   1.394   .     S
C1100  O1138   1.222   .     D
C1100  O1139   1.394   .     S
C1101  H1113   1.079   .     S
C1101  C354    1.387   1_556 S
C1102  H1114   1.081   .     S
C1103  C1106   1.396   .     A
C1103  H1115   1.081   .     S
C1103  C1187   1.371   .     S
C1104  H1116   1.081   .     S
C1104  C1106   1.398   .     A
C1104  C1184   1.371   .     S
C1105  H1117   1.080   .     S
H1109  O1132   1.013   .     S
H1110  O1135   1.013   .     S
H1111  O1137   1.011   .     S
H1112  O1139   1.011   .     S
H1118  O1124   1.013   .     S
H1119  O1126   1.014   .     S
H1120  O1210   1.011   .     S
N1121  Zn1147  2.032   .     S
N1122  Zn1148  2.032   .     S
O1123  Zn1147  2.008   .     S
O1130  H1190   1.013   .     S
O1134  Zn1148  2.008   .     S
O1140  Zn1147  2.010   .     S
O1141  Zn1148  2.010   .     S
O1142  Zn1147  2.011   .     S
O1143  Zn1148  2.011   .     S
O1144  Zn1147  2.013   .     S
O1145  Zn1148  2.013   .     S
Br1149 C1164   1.946   .     S
Br1150 C1165   1.944   .     S
C1151  O1223   1.295   .     A
C1151  O1205   1.293   .     A
C1151  C1152   1.429   .     S
C1152  C1184   1.396   .     A
C1152  C1187   1.397   .     A
C1153  N1204   1.373   .     A
C1153  C1179   1.473   .     S
C1154  C1180   1.471   .     S
C1154  N1203   1.374   .     A
C1154  C1401   1.427   .     S
C1155  C1181   1.470   .     S
C1155  N1204   1.370   .     A
C1156  N1203   1.372   .     A
C1156  C1182   1.470   .     S
C1156  C1399   1.428   .     S
C1157  O1227   1.290   .     A
C1157  O1224   1.293   .     A
C1157  C1163   1.427   .     S
C1158  O1226   1.293   .     A
C1158  O1225   1.291   .     A
C1158  C1161   1.429   .     S
C1159  C1175   1.492   .     S
C1159  C1170   1.396   .     A
C1159  C1161   1.401   .     A
C1160  C1171   1.404   .     A
C1160  C1176   1.492   .     S
C1160  C1163   1.406   .     A
C1161  C1164   1.401   .     A
C1162  O1222   1.295   .     A
C1162  C1188   1.428   .     S
C1162  O1216   1.293   .     A
C1163  C1165   1.395   .     A
C1164  C1166   1.411   .     A
C1165  C1167   1.399   .     A
C1166  C1172   1.418   .     A
C1166  C1168   1.422   .     A
C1167  C1169   1.420   .     A
C1167  C1174   1.411   .     A
C1168  C1170   1.414   .     A
C1168  C431    1.406   1_556 S
C1169  C1171   1.413   .     A
C1170  C1183   1.400   .     A
C1171  C1173   1.401   .     A
C1172  C1177   1.469   .     S
C1172  C435    1.388   1_556 S
C1173  H1189   1.082   .     S
C1174  C1178   1.485   .     S
C1175  O1228   1.222   .     D
C1175  O1206   1.398   .     S
C1176  O1208   1.396   .     S
C1176  O1207   1.221   .     D
C1177  O1209   1.223   .     D
C1177  O1210   1.396   .     S
C1178  O1212   1.397   .     S
C1178  O1211   1.223   .     D
C1179  O1214   1.394   .     S
C1179  O1213   1.223   .     D
C1180  O1217   1.395   .     S
C1180  O1215   1.222   .     D
C1181  O1218   1.222   .     D
C1181  O1219   1.394   .     S
C1182  O1220   1.222   .     D
C1182  O1221   1.394   .     S
C1183  H1195   1.079   .     S
C1183  C436    1.387   1_556 S
C1184  H1196   1.081   .     S
C1185  C1188   1.396   .     A
C1185  H1197   1.081   .     S
C1185  C1023   1.371   1_655 S
C1186  H1198   1.081   .     S
C1186  C1188   1.398   .     A
C1186  C1020   1.371   1_655 S
C1187  H1199   1.080   .     S
H1191  O1214   1.013   .     S
H1192  O1217   1.013   .     S
H1193  O1219   1.011   .     S
H1194  O1221   1.011   .     S
H1200  O1206   1.013   .     S
H1201  O1208   1.014   .     S
H1202  O1046   1.011   1_655 S
N1203  Zn1229  2.032   .     S
N1204  Zn1230  2.032   .     S
O1205  Zn1229  2.008   .     S
O1212  H1026   1.013   1_655 S
O1216  Zn1230  2.008   .     S
O1222  Zn1229  2.010   .     S
O1223  Zn1230  2.010   .     S
O1224  Zn1229  2.011   .     S
O1225  Zn1230  2.011   .     S
O1226  Zn1229  2.013   .     S
O1227  Zn1230  2.013   .     S
Br1231 C1246   1.946   .     S
Br1232 C1247   1.944   .     S
C1233  O1305   1.295   .     A
C1233  O1287   1.293   .     A
C1233  C1234   1.429   .     S
C1234  C1266   1.396   .     A
C1234  C1269   1.397   .     A
C1235  N1286   1.373   .     A
C1235  C1261   1.473   .     S
C1236  C1262   1.471   .     S
C1236  N1285   1.374   .     A
C1236  C745    1.427   1_565 S
C1237  C1263   1.470   .     S
C1237  N1286   1.370   .     A
C1238  N1285   1.372   .     A
C1238  C1264   1.470   .     S
C1238  C743    1.428   1_565 S
C1239  O1309   1.290   .     A
C1239  O1306   1.293   .     A
C1239  C1245   1.427   .     S
C1240  O1308   1.293   .     A
C1240  O1307   1.291   .     A
C1240  C1243   1.429   .     S
C1241  C1257   1.492   .     S
C1241  C1252   1.396   .     A
C1241  C1243   1.401   .     A
C1242  C1253   1.404   .     A
C1242  C1258   1.492   .     S
C1242  C1245   1.406   .     A
C1243  C1246   1.401   .     A
C1244  O1304   1.295   .     A
C1244  C1270   1.428   .     S
C1244  O1298   1.293   .     A
C1245  C1247   1.395   .     A
C1246  C1248   1.411   .     A
C1247  C1249   1.399   .     A
C1248  C1254   1.418   .     A
C1248  C1250   1.422   .     A
C1249  C1251   1.420   .     A
C1249  C1256   1.411   .     A
C1250  C1252   1.414   .     A
C1250  C513    1.406   1_556 S
C1251  C1253   1.413   .     A
C1252  C1265   1.400   .     A
C1253  C1255   1.401   .     A
C1254  C1259   1.469   .     S
C1254  C517    1.388   1_556 S
C1255  H1271   1.082   .     S
C1256  C1260   1.485   .     S
C1257  O1310   1.222   .     D
C1257  O1288   1.398   .     S
C1258  O1290   1.396   .     S
C1258  O1289   1.221   .     D
C1259  O1291   1.223   .     D
C1259  O1292   1.396   .     S
C1260  O1294   1.397   .     S
C1260  O1293   1.223   .     D
C1261  O1296   1.394   .     S
C1261  O1295   1.223   .     D
C1262  O1299   1.395   .     S
C1262  O1297   1.222   .     D
C1263  O1300   1.222   .     D
C1263  O1301   1.394   .     S
C1264  O1302   1.222   .     D
C1264  O1303   1.394   .     S
C1265  H1277   1.079   .     S
C1265  C518    1.387   1_556 S
C1266  H1278   1.081   .     S
C1266  C1432   1.371   1_455 S
C1267  C1270   1.396   .     A
C1267  H1279   1.081   .     S
C1267  C1351   1.371   .     S
C1268  H1280   1.081   .     S
C1268  C1270   1.398   .     A
C1268  C1348   1.371   .     S
C1269  H1281   1.080   .     S
C1269  C1431   1.371   1_455 S
H1272  O1458   1.013   1_455 S
H1273  O1296   1.013   .     S
H1274  O1299   1.013   .     S
H1275  O1301   1.011   .     S
H1276  O1303   1.011   .     S
H1282  O1288   1.013   .     S
H1283  O1290   1.014   .     S
H1284  O1374   1.011   .     S
N1285  Zn1311  2.032   .     S
N1286  Zn1312  2.032   .     S
O1287  Zn1311  2.008   .     S
O1292  H1448   1.011   1_455 S
O1294  H1354   1.013   .     S
O1298  Zn1312  2.008   .     S
O1304  Zn1311  2.010   .     S
O1305  Zn1312  2.010   .     S
O1306  Zn1311  2.011   .     S
O1307  Zn1312  2.011   .     S
O1308  Zn1311  2.013   .     S
O1309  Zn1312  2.013   .     S
Br1313 C1328   1.946   .     S
Br1314 C1329   1.944   .     S
C1315  O1387   1.295   .     A
C1315  O1369   1.293   .     A
C1315  C1316   1.429   .     S
C1316  C1348   1.396   .     A
C1316  C1351   1.397   .     A
C1317  N1368   1.373   .     A
C1317  C1343   1.473   .     S
C1318  C1344   1.471   .     S
C1318  N1367   1.374   .     A
C1318  C827    1.427   1_565 S
C1319  C1345   1.470   .     S
C1319  N1368   1.370   .     A
C1320  N1367   1.372   .     A
C1320  C1346   1.470   .     S
C1320  C825    1.428   1_565 S
C1321  O1391   1.290   .     A
C1321  O1388   1.293   .     A
C1321  C1327   1.427   .     S
C1322  O1390   1.293   .     A
C1322  O1389   1.291   .     A
C1322  C1325   1.429   .     S
C1323  C1339   1.492   .     S
C1323  C1334   1.396   .     A
C1323  C1325   1.401   .     A
C1324  C1335   1.404   .     A
C1324  C1340   1.492   .     S
C1324  C1327   1.406   .     A
C1325  C1328   1.401   .     A
C1326  O1386   1.295   .     A
C1326  C1352   1.428   .     S
C1326  O1380   1.293   .     A
C1327  C1329   1.395   .     A
C1328  C1330   1.411   .     A
C1329  C1331   1.399   .     A
C1330  C1336   1.418   .     A
C1330  C1332   1.422   .     A
C1331  C1333   1.420   .     A
C1331  C1338   1.411   .     A
C1332  C1334   1.414   .     A
C1332  C595    1.406   1_556 S
C1333  C1335   1.413   .     A
C1334  C1347   1.400   .     A
C1335  C1337   1.401   .     A
C1336  C1341   1.469   .     S
C1336  C599    1.388   1_556 S
C1337  H1353   1.082   .     S
C1338  C1342   1.485   .     S
C1339  O1392   1.222   .     D
C1339  O1370   1.398   .     S
C1340  O1372   1.396   .     S
C1340  O1371   1.221   .     D
C1341  O1373   1.223   .     D
C1341  O1374   1.396   .     S
C1342  O1376   1.397   .     S
C1342  O1375   1.223   .     D
C1343  O1378   1.394   .     S
C1343  O1377   1.223   .     D
C1344  O1381   1.395   .     S
C1344  O1379   1.222   .     D
C1345  O1382   1.222   .     D
C1345  O1383   1.394   .     S
C1346  O1384   1.222   .     D
C1346  O1385   1.394   .     S
C1347  H1359   1.079   .     S
C1347  C600    1.387   1_556 S
C1348  H1360   1.081   .     S
C1349  C1352   1.396   .     A
C1349  H1361   1.081   .     S
C1349  C1433   1.371   .     S
C1350  H1362   1.081   .     S
C1350  C1352   1.398   .     A
C1350  C1430   1.371   .     S
C1351  H1363   1.080   .     S
H1355  O1378   1.013   .     S
H1356  O1381   1.013   .     S
H1357  O1383   1.011   .     S
H1358  O1385   1.011   .     S
H1364  O1370   1.013   .     S
H1365  O1372   1.014   .     S
H1366  O1456   1.011   .     S
N1367  Zn1393  2.032   .     S
N1368  Zn1394  2.032   .     S
O1369  Zn1393  2.008   .     S
O1376  H1436   1.013   .     S
O1380  Zn1394  2.008   .     S
O1386  Zn1393  2.010   .     S
O1387  Zn1394  2.010   .     S
O1388  Zn1393  2.011   .     S
O1389  Zn1394  2.011   .     S
O1390  Zn1393  2.013   .     S
O1391  Zn1394  2.013   .     S
Br1395 C1410   1.946   .     S
Br1396 C1411   1.944   .     S
C1397  O1469   1.295   .     A
C1397  O1451   1.293   .     A
C1397  C1398   1.429   .     S
C1398  C1430   1.396   .     A
C1398  C1433   1.397   .     A
C1399  N1450   1.373   .     A
C1399  C1425   1.473   .     S
C1400  C1426   1.471   .     S
C1400  N1449   1.374   .     A
C1400  C909    1.427   1_565 S
C1401  C1427   1.470   .     S
C1401  N1450   1.370   .     A
C1402  N1449   1.372   .     A
C1402  C1428   1.470   .     S
C1402  C907    1.428   1_565 S
C1403  O1473   1.290   .     A
C1403  O1470   1.293   .     A
C1403  C1409   1.427   .     S
C1404  O1472   1.293   .     A
C1404  O1471   1.291   .     A
C1404  C1407   1.429   .     S
C1405  C1421   1.492   .     S
C1405  C1416   1.396   .     A
C1405  C1407   1.401   .     A
C1406  C1417   1.404   .     A
C1406  C1422   1.492   .     S
C1406  C1409   1.406   .     A
C1407  C1410   1.401   .     A
C1408  O1468   1.295   .     A
C1408  C1434   1.428   .     S
C1408  O1462   1.293   .     A
C1409  C1411   1.395   .     A
C1410  C1412   1.411   .     A
C1411  C1413   1.399   .     A
C1412  C1418   1.418   .     A
C1412  C1414   1.422   .     A
C1413  C1415   1.420   .     A
C1413  C1420   1.411   .     A
C1414  C1416   1.414   .     A
C1414  C677    1.406   1_556 S
C1415  C1417   1.413   .     A
C1416  C1429   1.400   .     A
C1417  C1419   1.401   .     A
C1418  C1423   1.469   .     S
C1418  C681    1.388   1_556 S
C1419  H1435   1.082   .     S
C1420  C1424   1.485   .     S
C1421  O1474   1.222   .     D
C1421  O1452   1.398   .     S
C1422  O1454   1.396   .     S
C1422  O1453   1.221   .     D
C1423  O1455   1.223   .     D
C1423  O1456   1.396   .     S
C1424  O1458   1.397   .     S
C1424  O1457   1.223   .     D
C1425  O1460   1.394   .     S
C1425  O1459   1.223   .     D
C1426  O1463   1.395   .     S
C1426  O1461   1.222   .     D
C1427  O1464   1.222   .     D
C1427  O1465   1.394   .     S
C1428  O1466   1.222   .     D
C1428  O1467   1.394   .     S
C1429  H1441   1.079   .     S
C1429  C682    1.387   1_556 S
C1430  H1442   1.081   .     S
C1431  C1434   1.396   .     A
C1431  H1443   1.081   .     S
C1431  C1269   1.371   1_655 S
C1432  H1444   1.081   .     S
C1432  C1434   1.398   .     A
C1432  C1266   1.371   1_655 S
C1433  H1445   1.080   .     S
H1437  O1460   1.013   .     S
H1438  O1463   1.013   .     S
H1439  O1465   1.011   .     S
H1440  O1467   1.011   .     S
H1446  O1452   1.013   .     S
H1447  O1454   1.014   .     S
H1448  O1292   1.011   1_655 S
N1449  Zn1475  2.032   .     S
N1450  Zn1476  2.032   .     S
O1451  Zn1475  2.008   .     S
O1458  H1272   1.013   1_655 S
O1462  Zn1476  2.008   .     S
O1468  Zn1475  2.010   .     S
O1469  Zn1476  2.010   .     S
O1470  Zn1475  2.011   .     S
O1471  Zn1476  2.011   .     S
O1472  Zn1475  2.013   .     S
O1473  Zn1476  2.013   .     S
