data_str_m2_o1_o16_pcu_sym.71
_audit_creation_date              2020-01-03
_audit_creation_method            'Materials Studio'
_symmetry_space_group_name_H-M    'P1'
_symmetry_Int_Tables_number       1
_symmetry_cell_setting            triclinic
loop_
_symmetry_equiv_pos_as_xyz
  x,y,z
_cell_length_a                    28.5883
_cell_length_b                    32.4957
_cell_length_c                    26.8940
_cell_angle_alpha                 90.4114
_cell_angle_beta                  72.6396
_cell_angle_gamma                 90.1503
loop_
_atom_site_label
_atom_site_type_symbol
_atom_site_fract_x
_atom_site_fract_y
_atom_site_fract_z
_atom_site_U_iso_or_equiv
_atom_site_adp_type
_atom_site_occupancy
C1     C     0.16668   0.24596   0.25011   0.00000  Uiso   1.00
C2     C     0.12466   0.16399   0.40743   0.00000  Uiso   1.00
C3     C     0.20920   0.31216   0.25003   0.00000  Uiso   1.00
C4     C     0.14050   0.16479   0.35004   0.00000  Uiso   1.00
C5     C     0.20916   0.02140   0.25000   0.00000  Uiso   1.00
C6     C     0.16659   0.04275   0.25014   0.00000  Uiso   1.00
C7     C     0.12403   0.02118   0.25041   0.00000  Uiso   1.00
C8     C     0.12406   0.31194   0.25048   0.00000  Uiso   1.00
C9     C     0.16666   0.29059   0.25023   0.00000  Uiso   1.00
C10    C     0.29979   0.19207   0.28299   0.00000  Uiso   1.00
C11    C     0.01598   0.19183   0.28293   0.00000  Uiso   1.00
C12    C     0.14492   0.16218   0.48955   0.00000  Uiso   1.00
C13    C     0.03391   0.14146   0.21701   0.00000  Uiso   1.00
C14    C     0.31765   0.14145   0.21704   0.00000  Uiso   1.00
C15    C     0.16662   0.08737   0.25002   0.00000  Uiso   1.00
C16    C     0.19284   0.16597   0.15005   0.00000  Uiso   1.00
C17    C     0.26125   0.12969   0.01524   0.00000  Uiso   1.00
C18    C     0.20761   0.16026   0.09359   0.00000  Uiso   1.00
C19    C     0.07780   0.17895   0.43398   0.00000  Uiso   1.00
C20    C     0.06356   0.18513   0.48785   0.00000  Uiso   1.00
C21    C     0.09718   0.17710   0.01516   0.00000  Uiso   1.00
C22    C     0.26659   0.21972   0.31843   0.00000  Uiso   1.00
C23    C     0.15689   0.15209   0.43588   0.00000  Uiso   1.00
C24    C     0.33159   0.23571   0.49660   0.00000  Uiso   1.00
C25    C     0.18085   0.15611   0.01578   0.00000  Uiso   1.00
C26    C     0.22581   0.13637   0.48961   0.00000  Uiso   1.00
C27    C     0.23438   0.12245   0.43865   0.00000  Uiso   1.00
C28    C     0.20021   0.12960   0.41243   0.00000  Uiso   1.00
C29    C     0.17360   0.16924   0.06729   0.00000  Uiso   1.00
C30    C     0.25195   0.14117   0.06725   0.00000  Uiso   1.00
Cu31   Cu    0.11978   0.16666   0.25000   0.00000  Uiso   1.00
Cu32   Cu    0.21355   0.16667   0.25000   0.00000  Uiso   1.00
H33    H     0.27857   0.13382   0.08727   0.00000  Uiso   1.00
H34    H     0.14145   0.18626   0.08839   0.00000  Uiso   1.00
H35    H     0.05235   0.18607   0.41250   0.00000  Uiso   1.00
H36    H     0.08433   0.18175   0.05671   0.00000  Uiso   1.00
H37    H     0.20776   0.11598   0.37411   0.00000  Uiso   1.00
H38    H     0.24250   0.29624   0.24984   0.00000  Uiso   1.00
H39    H     0.00662   0.19792   0.05531   0.00000  Uiso   1.00
H40    H     0.29452   0.24375   0.02246   0.00000  Uiso   1.00
H41    H     0.32853   0.23113   0.45678   0.00000  Uiso   1.00
H42    H     0.02358   0.26165   0.49687   0.00000  Uiso   1.00
H43    H     0.24244   0.03750   0.24981   0.00000  Uiso   1.00
H44    H     0.09075   0.03710   0.25055   0.00000  Uiso   1.00
H45    H     0.09077   0.29584   0.25069   0.00000  Uiso   1.00
H46    H     0.02787   0.21189   0.30915   0.00000  Uiso   1.00
H47    H     0.05989   0.12122   0.19058   0.00000  Uiso   1.00
H48    H     0.30630   0.12124   0.19064   0.00000  Uiso   1.00
H49    H     0.26763   0.10578   0.41895   0.00000  Uiso   1.00
H50    H     0.29557   0.11454   0.49548   0.00000  Uiso   1.00
N51    N     0.04931   0.16666   0.24999   0.00000  Uiso   1.00
N52    N     0.28402   0.16669   0.24999   0.00000  Uiso   1.00
N53    N     0.24015   0.24206   0.34712   0.00000  Uiso   1.00
N54    N     0.01514   0.19858   0.01524   0.00000  Uiso   1.00
O55    O     0.12708   0.22678   0.25000   0.00000  Uiso   1.00
O56    O     0.20627   0.22679   0.25000   0.00000  Uiso   1.00
O57    O     0.10775   0.16665   0.32549   0.00000  Uiso   1.00
O58    O     0.18694   0.16666   0.32549   0.00000  Uiso   1.00
O59    O     0.12706   0.10654   0.25000   0.00000  Uiso   1.00
O60    O     0.20625   0.10655   0.25000   0.00000  Uiso   1.00
O61    O     0.14640   0.16667   0.17451   0.00000  Uiso   1.00
O62    O     0.22559   0.16668   0.17451   0.00000  Uiso   1.00
C63    C     0.50002   0.24596   0.25011   0.00000  Uiso   1.00
C64    C     0.45799   0.16399   0.40743   0.00000  Uiso   1.00
C65    C     0.54253   0.31216   0.25003   0.00000  Uiso   1.00
C66    C     0.47383   0.16479   0.35004   0.00000  Uiso   1.00
C67    C     0.54249   0.02140   0.25000   0.00000  Uiso   1.00
C68    C     0.49992   0.04275   0.25014   0.00000  Uiso   1.00
C69    C     0.45736   0.02118   0.25041   0.00000  Uiso   1.00
C70    C     0.45739   0.31194   0.25048   0.00000  Uiso   1.00
C71    C     0.49999   0.29059   0.25023   0.00000  Uiso   1.00
C72    C     0.63313   0.19207   0.28299   0.00000  Uiso   1.00
C73    C     0.34931   0.19183   0.28293   0.00000  Uiso   1.00
C74    C     0.47825   0.16218   0.48955   0.00000  Uiso   1.00
C75    C     0.36724   0.14146   0.21701   0.00000  Uiso   1.00
C76    C     0.65098   0.14145   0.21704   0.00000  Uiso   1.00
C77    C     0.49995   0.08737   0.25002   0.00000  Uiso   1.00
C78    C     0.52617   0.16597   0.15005   0.00000  Uiso   1.00
C79    C     0.59459   0.12969   0.01524   0.00000  Uiso   1.00
C80    C     0.54095   0.16026   0.09359   0.00000  Uiso   1.00
C81    C     0.41113   0.17895   0.43398   0.00000  Uiso   1.00
C82    C     0.39689   0.18513   0.48785   0.00000  Uiso   1.00
C83    C     0.43051   0.17710   0.01516   0.00000  Uiso   1.00
C84    C     0.59992   0.21972   0.31843   0.00000  Uiso   1.00
C85    C     0.49023   0.15209   0.43588   0.00000  Uiso   1.00
C86    C     0.66492   0.23571   0.49660   0.00000  Uiso   1.00
C87    C     0.51418   0.15611   0.01578   0.00000  Uiso   1.00
C88    C     0.55915   0.13637   0.48961   0.00000  Uiso   1.00
C89    C     0.56772   0.12245   0.43865   0.00000  Uiso   1.00
C90    C     0.53354   0.12960   0.41243   0.00000  Uiso   1.00
C91    C     0.50694   0.16924   0.06729   0.00000  Uiso   1.00
C92    C     0.58529   0.14117   0.06725   0.00000  Uiso   1.00
Cu93   Cu    0.45311   0.16666   0.25000   0.00000  Uiso   1.00
Cu94   Cu    0.54689   0.16667   0.25000   0.00000  Uiso   1.00
H95    H     0.61190   0.13382   0.08727   0.00000  Uiso   1.00
H96    H     0.47479   0.18626   0.08839   0.00000  Uiso   1.00
H97    H     0.38569   0.18607   0.41250   0.00000  Uiso   1.00
H98    H     0.41766   0.18175   0.05671   0.00000  Uiso   1.00
H99    H     0.54109   0.11598   0.37411   0.00000  Uiso   1.00
H100   H     0.57583   0.29624   0.24984   0.00000  Uiso   1.00
H101   H     0.33996   0.19792   0.05531   0.00000  Uiso   1.00
H102   H     0.62785   0.24375   0.02246   0.00000  Uiso   1.00
H103   H     0.66187   0.23113   0.45678   0.00000  Uiso   1.00
H104   H     0.35692   0.26165   0.49687   0.00000  Uiso   1.00
H105   H     0.57578   0.03750   0.24981   0.00000  Uiso   1.00
H106   H     0.42408   0.03710   0.25055   0.00000  Uiso   1.00
H107   H     0.42410   0.29584   0.25069   0.00000  Uiso   1.00
H108   H     0.36120   0.21189   0.30915   0.00000  Uiso   1.00
H109   H     0.39322   0.12122   0.19058   0.00000  Uiso   1.00
H110   H     0.63963   0.12124   0.19064   0.00000  Uiso   1.00
H111   H     0.60096   0.10578   0.41895   0.00000  Uiso   1.00
H112   H     0.62890   0.11454   0.49548   0.00000  Uiso   1.00
N113   N     0.38265   0.16666   0.24999   0.00000  Uiso   1.00
N114   N     0.61735   0.16669   0.24999   0.00000  Uiso   1.00
N115   N     0.57349   0.24206   0.34712   0.00000  Uiso   1.00
N116   N     0.34847   0.19858   0.01524   0.00000  Uiso   1.00
O117   O     0.46042   0.22678   0.25000   0.00000  Uiso   1.00
O118   O     0.53961   0.22679   0.25000   0.00000  Uiso   1.00
O119   O     0.44108   0.16665   0.32549   0.00000  Uiso   1.00
O120   O     0.52027   0.16666   0.32549   0.00000  Uiso   1.00
O121   O     0.46039   0.10654   0.25000   0.00000  Uiso   1.00
O122   O     0.53958   0.10655   0.25000   0.00000  Uiso   1.00
O123   O     0.47973   0.16667   0.17451   0.00000  Uiso   1.00
O124   O     0.55892   0.16668   0.17451   0.00000  Uiso   1.00
C125   C     0.83335   0.24596   0.25011   0.00000  Uiso   1.00
C126   C     0.79133   0.16399   0.40743   0.00000  Uiso   1.00
C127   C     0.87587   0.31216   0.25003   0.00000  Uiso   1.00
C128   C     0.80717   0.16479   0.35004   0.00000  Uiso   1.00
C129   C     0.87583   0.02140   0.25000   0.00000  Uiso   1.00
C130   C     0.83326   0.04275   0.25014   0.00000  Uiso   1.00
C131   C     0.79070   0.02118   0.25041   0.00000  Uiso   1.00
C132   C     0.79072   0.31194   0.25048   0.00000  Uiso   1.00
C133   C     0.83333   0.29059   0.25023   0.00000  Uiso   1.00
C134   C     0.96646   0.19207   0.28299   0.00000  Uiso   1.00
C135   C     0.68265   0.19183   0.28293   0.00000  Uiso   1.00
C136   C     0.81158   0.16218   0.48955   0.00000  Uiso   1.00
C137   C     0.70058   0.14146   0.21701   0.00000  Uiso   1.00
C138   C     0.98432   0.14145   0.21704   0.00000  Uiso   1.00
C139   C     0.83329   0.08737   0.25002   0.00000  Uiso   1.00
C140   C     0.85951   0.16597   0.15005   0.00000  Uiso   1.00
C141   C     0.92792   0.12969   0.01524   0.00000  Uiso   1.00
C142   C     0.87428   0.16026   0.09359   0.00000  Uiso   1.00
C143   C     0.74447   0.17895   0.43398   0.00000  Uiso   1.00
C144   C     0.73023   0.18513   0.48785   0.00000  Uiso   1.00
C145   C     0.76385   0.17710   0.01516   0.00000  Uiso   1.00
C146   C     0.93326   0.21972   0.31843   0.00000  Uiso   1.00
C147   C     0.82356   0.15209   0.43588   0.00000  Uiso   1.00
C148   C     0.99825   0.23571   0.49660   0.00000  Uiso   1.00
C149   C     0.84751   0.15611   0.01578   0.00000  Uiso   1.00
C150   C     0.89248   0.13637   0.48961   0.00000  Uiso   1.00
C151   C     0.90105   0.12245   0.43865   0.00000  Uiso   1.00
C152   C     0.86688   0.12960   0.41243   0.00000  Uiso   1.00
C153   C     0.84027   0.16924   0.06729   0.00000  Uiso   1.00
C154   C     0.91862   0.14117   0.06725   0.00000  Uiso   1.00
Cu155  Cu    0.78645   0.16666   0.25000   0.00000  Uiso   1.00
Cu156  Cu    0.88022   0.16667   0.25000   0.00000  Uiso   1.00
H157   H     0.94523   0.13382   0.08727   0.00000  Uiso   1.00
H158   H     0.80812   0.18626   0.08839   0.00000  Uiso   1.00
H159   H     0.71902   0.18607   0.41250   0.00000  Uiso   1.00
H160   H     0.75100   0.18175   0.05671   0.00000  Uiso   1.00
H161   H     0.87442   0.11598   0.37411   0.00000  Uiso   1.00
H162   H     0.90916   0.29624   0.24984   0.00000  Uiso   1.00
H163   H     0.67329   0.19792   0.05531   0.00000  Uiso   1.00
H164   H     0.96119   0.24375   0.02246   0.00000  Uiso   1.00
H165   H     0.99520   0.23113   0.45678   0.00000  Uiso   1.00
H166   H     0.69025   0.26165   0.49687   0.00000  Uiso   1.00
H167   H     0.90911   0.03750   0.24981   0.00000  Uiso   1.00
H168   H     0.75741   0.03710   0.25055   0.00000  Uiso   1.00
H169   H     0.75743   0.29584   0.25069   0.00000  Uiso   1.00
H170   H     0.69454   0.21189   0.30915   0.00000  Uiso   1.00
H171   H     0.72656   0.12122   0.19058   0.00000  Uiso   1.00
H172   H     0.97296   0.12124   0.19064   0.00000  Uiso   1.00
H173   H     0.93430   0.10578   0.41895   0.00000  Uiso   1.00
H174   H     0.96224   0.11454   0.49548   0.00000  Uiso   1.00
N175   N     0.71598   0.16666   0.24999   0.00000  Uiso   1.00
N176   N     0.95069   0.16669   0.24999   0.00000  Uiso   1.00
N177   N     0.90682   0.24206   0.34712   0.00000  Uiso   1.00
N178   N     0.68181   0.19858   0.01524   0.00000  Uiso   1.00
O179   O     0.79375   0.22678   0.25000   0.00000  Uiso   1.00
O180   O     0.87294   0.22679   0.25000   0.00000  Uiso   1.00
O181   O     0.77441   0.16665   0.32549   0.00000  Uiso   1.00
O182   O     0.85360   0.16666   0.32549   0.00000  Uiso   1.00
O183   O     0.79373   0.10654   0.25000   0.00000  Uiso   1.00
O184   O     0.87292   0.10655   0.25000   0.00000  Uiso   1.00
O185   O     0.81306   0.16667   0.17451   0.00000  Uiso   1.00
O186   O     0.89225   0.16668   0.17451   0.00000  Uiso   1.00
C187   C     0.16668   0.57930   0.25011   0.00000  Uiso   1.00
C188   C     0.12466   0.49732   0.40743   0.00000  Uiso   1.00
C189   C     0.20920   0.64549   0.25003   0.00000  Uiso   1.00
C190   C     0.14050   0.49812   0.35004   0.00000  Uiso   1.00
C191   C     0.20916   0.35473   0.25000   0.00000  Uiso   1.00
C192   C     0.16659   0.37608   0.25014   0.00000  Uiso   1.00
C193   C     0.12403   0.35451   0.25041   0.00000  Uiso   1.00
C194   C     0.12406   0.64527   0.25048   0.00000  Uiso   1.00
C195   C     0.16666   0.62392   0.25023   0.00000  Uiso   1.00
C196   C     0.29979   0.52540   0.28299   0.00000  Uiso   1.00
C197   C     0.01598   0.52516   0.28293   0.00000  Uiso   1.00
C198   C     0.14492   0.49552   0.48955   0.00000  Uiso   1.00
C199   C     0.03391   0.47479   0.21701   0.00000  Uiso   1.00
C200   C     0.31765   0.47478   0.21704   0.00000  Uiso   1.00
C201   C     0.16662   0.42070   0.25002   0.00000  Uiso   1.00
C202   C     0.19284   0.49931   0.15005   0.00000  Uiso   1.00
C203   C     0.26125   0.46303   0.01524   0.00000  Uiso   1.00
C204   C     0.20761   0.49359   0.09359   0.00000  Uiso   1.00
C205   C     0.07780   0.51228   0.43398   0.00000  Uiso   1.00
C206   C     0.06356   0.51846   0.48785   0.00000  Uiso   1.00
C207   C     0.09718   0.51043   0.01516   0.00000  Uiso   1.00
C208   C     0.26659   0.55306   0.31843   0.00000  Uiso   1.00
C209   C     0.15689   0.48542   0.43588   0.00000  Uiso   1.00
C210   C     0.33159   0.56904   0.49660   0.00000  Uiso   1.00
C211   C     0.18085   0.48944   0.01578   0.00000  Uiso   1.00
C212   C     0.22581   0.46970   0.48961   0.00000  Uiso   1.00
C213   C     0.23438   0.45578   0.43865   0.00000  Uiso   1.00
C214   C     0.20021   0.46293   0.41243   0.00000  Uiso   1.00
C215   C     0.17360   0.50258   0.06729   0.00000  Uiso   1.00
C216   C     0.25195   0.47450   0.06725   0.00000  Uiso   1.00
Cu217  Cu    0.11978   0.49999   0.25000   0.00000  Uiso   1.00
Cu218  Cu    0.21355   0.50001   0.25000   0.00000  Uiso   1.00
H219   H     0.27857   0.46715   0.08727   0.00000  Uiso   1.00
H220   H     0.14145   0.51959   0.08839   0.00000  Uiso   1.00
H221   H     0.05235   0.51941   0.41250   0.00000  Uiso   1.00
H222   H     0.08433   0.51508   0.05671   0.00000  Uiso   1.00
H223   H     0.20776   0.44932   0.37411   0.00000  Uiso   1.00
H224   H     0.24250   0.62958   0.24984   0.00000  Uiso   1.00
H225   H     0.00662   0.53126   0.05531   0.00000  Uiso   1.00
H226   H     0.29452   0.57709   0.02246   0.00000  Uiso   1.00
H227   H     0.32853   0.56446   0.45678   0.00000  Uiso   1.00
H228   H     0.02358   0.59498   0.49687   0.00000  Uiso   1.00
H229   H     0.24244   0.37083   0.24981   0.00000  Uiso   1.00
H230   H     0.09075   0.37043   0.25055   0.00000  Uiso   1.00
H231   H     0.09077   0.62918   0.25069   0.00000  Uiso   1.00
H232   H     0.02787   0.54522   0.30915   0.00000  Uiso   1.00
H233   H     0.05989   0.45455   0.19058   0.00000  Uiso   1.00
H234   H     0.30630   0.45457   0.19064   0.00000  Uiso   1.00
H235   H     0.26763   0.43912   0.41895   0.00000  Uiso   1.00
H236   H     0.29557   0.44787   0.49548   0.00000  Uiso   1.00
N237   N     0.04931   0.49999   0.24999   0.00000  Uiso   1.00
N238   N     0.28402   0.50002   0.24999   0.00000  Uiso   1.00
N239   N     0.24015   0.57539   0.34712   0.00000  Uiso   1.00
N240   N     0.01514   0.53191   0.01524   0.00000  Uiso   1.00
O241   O     0.12708   0.56011   0.25000   0.00000  Uiso   1.00
O242   O     0.20627   0.56012   0.25000   0.00000  Uiso   1.00
O243   O     0.10775   0.49998   0.32549   0.00000  Uiso   1.00
O244   O     0.18694   0.49999   0.32549   0.00000  Uiso   1.00
O245   O     0.12706   0.43988   0.25000   0.00000  Uiso   1.00
O246   O     0.20625   0.43989   0.25000   0.00000  Uiso   1.00
O247   O     0.14640   0.50001   0.17451   0.00000  Uiso   1.00
O248   O     0.22559   0.50002   0.17451   0.00000  Uiso   1.00
C249   C     0.50002   0.57930   0.25011   0.00000  Uiso   1.00
C250   C     0.45799   0.49732   0.40743   0.00000  Uiso   1.00
C251   C     0.54253   0.64549   0.25003   0.00000  Uiso   1.00
C252   C     0.47383   0.49812   0.35004   0.00000  Uiso   1.00
C253   C     0.54249   0.35473   0.25000   0.00000  Uiso   1.00
C254   C     0.49992   0.37608   0.25014   0.00000  Uiso   1.00
C255   C     0.45736   0.35451   0.25041   0.00000  Uiso   1.00
C256   C     0.45739   0.64527   0.25048   0.00000  Uiso   1.00
C257   C     0.49999   0.62392   0.25023   0.00000  Uiso   1.00
C258   C     0.63313   0.52540   0.28299   0.00000  Uiso   1.00
C259   C     0.34931   0.52516   0.28293   0.00000  Uiso   1.00
C260   C     0.47825   0.49552   0.48955   0.00000  Uiso   1.00
C261   C     0.36724   0.47479   0.21701   0.00000  Uiso   1.00
C262   C     0.65098   0.47478   0.21704   0.00000  Uiso   1.00
C263   C     0.49995   0.42070   0.25002   0.00000  Uiso   1.00
C264   C     0.52617   0.49931   0.15005   0.00000  Uiso   1.00
C265   C     0.59459   0.46303   0.01524   0.00000  Uiso   1.00
C266   C     0.54095   0.49359   0.09359   0.00000  Uiso   1.00
C267   C     0.41113   0.51228   0.43398   0.00000  Uiso   1.00
C268   C     0.39689   0.51846   0.48785   0.00000  Uiso   1.00
C269   C     0.43051   0.51043   0.01516   0.00000  Uiso   1.00
C270   C     0.59992   0.55306   0.31843   0.00000  Uiso   1.00
C271   C     0.49023   0.48542   0.43588   0.00000  Uiso   1.00
C272   C     0.66492   0.56904   0.49660   0.00000  Uiso   1.00
C273   C     0.51418   0.48944   0.01578   0.00000  Uiso   1.00
C274   C     0.55915   0.46970   0.48961   0.00000  Uiso   1.00
C275   C     0.56772   0.45578   0.43865   0.00000  Uiso   1.00
C276   C     0.53354   0.46293   0.41243   0.00000  Uiso   1.00
C277   C     0.50694   0.50258   0.06729   0.00000  Uiso   1.00
C278   C     0.58529   0.47450   0.06725   0.00000  Uiso   1.00
Cu279  Cu    0.45311   0.49999   0.25000   0.00000  Uiso   1.00
Cu280  Cu    0.54689   0.50001   0.25000   0.00000  Uiso   1.00
H281   H     0.61190   0.46715   0.08727   0.00000  Uiso   1.00
H282   H     0.47479   0.51959   0.08839   0.00000  Uiso   1.00
H283   H     0.38569   0.51941   0.41250   0.00000  Uiso   1.00
H284   H     0.41766   0.51508   0.05671   0.00000  Uiso   1.00
H285   H     0.54109   0.44932   0.37411   0.00000  Uiso   1.00
H286   H     0.57583   0.62958   0.24984   0.00000  Uiso   1.00
H287   H     0.33996   0.53126   0.05531   0.00000  Uiso   1.00
H288   H     0.62785   0.57709   0.02246   0.00000  Uiso   1.00
H289   H     0.66187   0.56446   0.45678   0.00000  Uiso   1.00
H290   H     0.35692   0.59498   0.49687   0.00000  Uiso   1.00
H291   H     0.57578   0.37083   0.24981   0.00000  Uiso   1.00
H292   H     0.42408   0.37043   0.25055   0.00000  Uiso   1.00
H293   H     0.42410   0.62918   0.25069   0.00000  Uiso   1.00
H294   H     0.36120   0.54522   0.30915   0.00000  Uiso   1.00
H295   H     0.39322   0.45455   0.19058   0.00000  Uiso   1.00
H296   H     0.63963   0.45457   0.19064   0.00000  Uiso   1.00
H297   H     0.60096   0.43912   0.41895   0.00000  Uiso   1.00
H298   H     0.62890   0.44787   0.49548   0.00000  Uiso   1.00
N299   N     0.38265   0.49999   0.24999   0.00000  Uiso   1.00
N300   N     0.61735   0.50002   0.24999   0.00000  Uiso   1.00
N301   N     0.57349   0.57539   0.34712   0.00000  Uiso   1.00
N302   N     0.34847   0.53191   0.01524   0.00000  Uiso   1.00
O303   O     0.46042   0.56011   0.25000   0.00000  Uiso   1.00
O304   O     0.53961   0.56012   0.25000   0.00000  Uiso   1.00
O305   O     0.44108   0.49998   0.32549   0.00000  Uiso   1.00
O306   O     0.52027   0.49999   0.32549   0.00000  Uiso   1.00
O307   O     0.46039   0.43988   0.25000   0.00000  Uiso   1.00
O308   O     0.53958   0.43989   0.25000   0.00000  Uiso   1.00
O309   O     0.47973   0.50001   0.17451   0.00000  Uiso   1.00
O310   O     0.55892   0.50002   0.17451   0.00000  Uiso   1.00
C311   C     0.83335   0.57930   0.25011   0.00000  Uiso   1.00
C312   C     0.79133   0.49732   0.40743   0.00000  Uiso   1.00
C313   C     0.87587   0.64549   0.25003   0.00000  Uiso   1.00
C314   C     0.80717   0.49812   0.35004   0.00000  Uiso   1.00
C315   C     0.87583   0.35473   0.25000   0.00000  Uiso   1.00
C316   C     0.83326   0.37608   0.25014   0.00000  Uiso   1.00
C317   C     0.79070   0.35451   0.25041   0.00000  Uiso   1.00
C318   C     0.79072   0.64527   0.25048   0.00000  Uiso   1.00
C319   C     0.83333   0.62392   0.25023   0.00000  Uiso   1.00
C320   C     0.96646   0.52540   0.28299   0.00000  Uiso   1.00
C321   C     0.68265   0.52516   0.28293   0.00000  Uiso   1.00
C322   C     0.81158   0.49552   0.48955   0.00000  Uiso   1.00
C323   C     0.70058   0.47479   0.21701   0.00000  Uiso   1.00
C324   C     0.98432   0.47478   0.21704   0.00000  Uiso   1.00
C325   C     0.83329   0.42070   0.25002   0.00000  Uiso   1.00
C326   C     0.85951   0.49931   0.15005   0.00000  Uiso   1.00
C327   C     0.92792   0.46303   0.01524   0.00000  Uiso   1.00
C328   C     0.87428   0.49359   0.09359   0.00000  Uiso   1.00
C329   C     0.74447   0.51228   0.43398   0.00000  Uiso   1.00
C330   C     0.73023   0.51846   0.48785   0.00000  Uiso   1.00
C331   C     0.76385   0.51043   0.01516   0.00000  Uiso   1.00
C332   C     0.93326   0.55306   0.31843   0.00000  Uiso   1.00
C333   C     0.82356   0.48542   0.43588   0.00000  Uiso   1.00
C334   C     0.99825   0.56904   0.49660   0.00000  Uiso   1.00
C335   C     0.84751   0.48944   0.01578   0.00000  Uiso   1.00
C336   C     0.89248   0.46970   0.48961   0.00000  Uiso   1.00
C337   C     0.90105   0.45578   0.43865   0.00000  Uiso   1.00
C338   C     0.86688   0.46293   0.41243   0.00000  Uiso   1.00
C339   C     0.84027   0.50258   0.06729   0.00000  Uiso   1.00
C340   C     0.91862   0.47450   0.06725   0.00000  Uiso   1.00
Cu341  Cu    0.78645   0.49999   0.25000   0.00000  Uiso   1.00
Cu342  Cu    0.88022   0.50001   0.25000   0.00000  Uiso   1.00
H343   H     0.94523   0.46715   0.08727   0.00000  Uiso   1.00
H344   H     0.80812   0.51959   0.08839   0.00000  Uiso   1.00
H345   H     0.71902   0.51941   0.41250   0.00000  Uiso   1.00
H346   H     0.75100   0.51508   0.05671   0.00000  Uiso   1.00
H347   H     0.87442   0.44932   0.37411   0.00000  Uiso   1.00
H348   H     0.90916   0.62958   0.24984   0.00000  Uiso   1.00
H349   H     0.67329   0.53126   0.05531   0.00000  Uiso   1.00
H350   H     0.96119   0.57709   0.02246   0.00000  Uiso   1.00
H351   H     0.99520   0.56446   0.45678   0.00000  Uiso   1.00
H352   H     0.69025   0.59498   0.49687   0.00000  Uiso   1.00
H353   H     0.90911   0.37083   0.24981   0.00000  Uiso   1.00
H354   H     0.75741   0.37043   0.25055   0.00000  Uiso   1.00
H355   H     0.75743   0.62918   0.25069   0.00000  Uiso   1.00
H356   H     0.69454   0.54522   0.30915   0.00000  Uiso   1.00
H357   H     0.72656   0.45455   0.19058   0.00000  Uiso   1.00
H358   H     0.97296   0.45457   0.19064   0.00000  Uiso   1.00
H359   H     0.93430   0.43912   0.41895   0.00000  Uiso   1.00
H360   H     0.96224   0.44787   0.49548   0.00000  Uiso   1.00
N361   N     0.71598   0.49999   0.24999   0.00000  Uiso   1.00
N362   N     0.95069   0.50002   0.24999   0.00000  Uiso   1.00
N363   N     0.90682   0.57539   0.34712   0.00000  Uiso   1.00
N364   N     0.68181   0.53191   0.01524   0.00000  Uiso   1.00
O365   O     0.79375   0.56011   0.25000   0.00000  Uiso   1.00
O366   O     0.87294   0.56012   0.25000   0.00000  Uiso   1.00
O367   O     0.77441   0.49998   0.32549   0.00000  Uiso   1.00
O368   O     0.85360   0.49999   0.32549   0.00000  Uiso   1.00
O369   O     0.79373   0.43988   0.25000   0.00000  Uiso   1.00
O370   O     0.87292   0.43989   0.25000   0.00000  Uiso   1.00
O371   O     0.81306   0.50001   0.17451   0.00000  Uiso   1.00
O372   O     0.89225   0.50002   0.17451   0.00000  Uiso   1.00
C373   C     0.16668   0.91263   0.25011   0.00000  Uiso   1.00
C374   C     0.12466   0.83065   0.40743   0.00000  Uiso   1.00
C375   C     0.20920   0.97883   0.25003   0.00000  Uiso   1.00
C376   C     0.14050   0.83145   0.35004   0.00000  Uiso   1.00
C377   C     0.20916   0.68807   0.25000   0.00000  Uiso   1.00
C378   C     0.16659   0.70941   0.25014   0.00000  Uiso   1.00
C379   C     0.12403   0.68784   0.25041   0.00000  Uiso   1.00
C380   C     0.12406   0.97860   0.25048   0.00000  Uiso   1.00
C381   C     0.16666   0.95725   0.25023   0.00000  Uiso   1.00
C382   C     0.29979   0.85873   0.28299   0.00000  Uiso   1.00
C383   C     0.01598   0.85849   0.28293   0.00000  Uiso   1.00
C384   C     0.14492   0.82885   0.48955   0.00000  Uiso   1.00
C385   C     0.03391   0.80812   0.21701   0.00000  Uiso   1.00
C386   C     0.31765   0.80811   0.21704   0.00000  Uiso   1.00
C387   C     0.16662   0.75403   0.25002   0.00000  Uiso   1.00
C388   C     0.19284   0.83264   0.15005   0.00000  Uiso   1.00
C389   C     0.26125   0.79636   0.01524   0.00000  Uiso   1.00
C390   C     0.20761   0.82693   0.09359   0.00000  Uiso   1.00
C391   C     0.07780   0.84561   0.43398   0.00000  Uiso   1.00
C392   C     0.06356   0.85180   0.48785   0.00000  Uiso   1.00
C393   C     0.09718   0.84376   0.01516   0.00000  Uiso   1.00
C394   C     0.26659   0.88639   0.31843   0.00000  Uiso   1.00
C395   C     0.15689   0.81876   0.43588   0.00000  Uiso   1.00
C396   C     0.33159   0.90238   0.49660   0.00000  Uiso   1.00
C397   C     0.18085   0.82278   0.01578   0.00000  Uiso   1.00
C398   C     0.22581   0.80304   0.48961   0.00000  Uiso   1.00
C399   C     0.23438   0.78912   0.43865   0.00000  Uiso   1.00
C400   C     0.20021   0.79626   0.41243   0.00000  Uiso   1.00
C401   C     0.17360   0.83591   0.06729   0.00000  Uiso   1.00
C402   C     0.25195   0.80784   0.06725   0.00000  Uiso   1.00
Cu403  Cu    0.11978   0.83333   0.25000   0.00000  Uiso   1.00
Cu404  Cu    0.21355   0.83334   0.25000   0.00000  Uiso   1.00
H405   H     0.27857   0.80049   0.08727   0.00000  Uiso   1.00
H406   H     0.14145   0.85292   0.08839   0.00000  Uiso   1.00
H407   H     0.05235   0.85274   0.41250   0.00000  Uiso   1.00
H408   H     0.08433   0.84841   0.05671   0.00000  Uiso   1.00
H409   H     0.20776   0.78265   0.37411   0.00000  Uiso   1.00
H410   H     0.24250   0.96291   0.24984   0.00000  Uiso   1.00
H411   H     0.00662   0.86459   0.05531   0.00000  Uiso   1.00
H412   H     0.29452   0.91042   0.02246   0.00000  Uiso   1.00
H413   H     0.32853   0.89780   0.45678   0.00000  Uiso   1.00
H414   H     0.02358   0.92832   0.49687   0.00000  Uiso   1.00
H415   H     0.24244   0.70416   0.24981   0.00000  Uiso   1.00
H416   H     0.09075   0.70376   0.25055   0.00000  Uiso   1.00
H417   H     0.09077   0.96251   0.25069   0.00000  Uiso   1.00
H418   H     0.02787   0.87856   0.30915   0.00000  Uiso   1.00
H419   H     0.05989   0.78788   0.19058   0.00000  Uiso   1.00
H420   H     0.30630   0.78791   0.19064   0.00000  Uiso   1.00
H421   H     0.26763   0.77245   0.41895   0.00000  Uiso   1.00
H422   H     0.29557   0.78121   0.49548   0.00000  Uiso   1.00
N423   N     0.04931   0.83332   0.24999   0.00000  Uiso   1.00
N424   N     0.28402   0.83335   0.24999   0.00000  Uiso   1.00
N425   N     0.24015   0.90872   0.34712   0.00000  Uiso   1.00
N426   N     0.01514   0.86525   0.01524   0.00000  Uiso   1.00
O427   O     0.12708   0.89345   0.25000   0.00000  Uiso   1.00
O428   O     0.20627   0.89346   0.25000   0.00000  Uiso   1.00
O429   O     0.10775   0.83332   0.32549   0.00000  Uiso   1.00
O430   O     0.18694   0.83333   0.32549   0.00000  Uiso   1.00
O431   O     0.12706   0.77321   0.25000   0.00000  Uiso   1.00
O432   O     0.20625   0.77322   0.25000   0.00000  Uiso   1.00
O433   O     0.14640   0.83334   0.17451   0.00000  Uiso   1.00
O434   O     0.22559   0.83335   0.17451   0.00000  Uiso   1.00
C435   C     0.50002   0.91263   0.25011   0.00000  Uiso   1.00
C436   C     0.45799   0.83065   0.40743   0.00000  Uiso   1.00
C437   C     0.54253   0.97883   0.25003   0.00000  Uiso   1.00
C438   C     0.47383   0.83145   0.35004   0.00000  Uiso   1.00
C439   C     0.54249   0.68807   0.25000   0.00000  Uiso   1.00
C440   C     0.49992   0.70941   0.25014   0.00000  Uiso   1.00
C441   C     0.45736   0.68784   0.25041   0.00000  Uiso   1.00
C442   C     0.45739   0.97860   0.25048   0.00000  Uiso   1.00
C443   C     0.49999   0.95725   0.25023   0.00000  Uiso   1.00
C444   C     0.63313   0.85873   0.28299   0.00000  Uiso   1.00
C445   C     0.34931   0.85849   0.28293   0.00000  Uiso   1.00
C446   C     0.47825   0.82885   0.48955   0.00000  Uiso   1.00
C447   C     0.36724   0.80812   0.21701   0.00000  Uiso   1.00
C448   C     0.65098   0.80811   0.21704   0.00000  Uiso   1.00
C449   C     0.49995   0.75403   0.25002   0.00000  Uiso   1.00
C450   C     0.52617   0.83264   0.15005   0.00000  Uiso   1.00
C451   C     0.59459   0.79636   0.01524   0.00000  Uiso   1.00
C452   C     0.54095   0.82693   0.09359   0.00000  Uiso   1.00
C453   C     0.41113   0.84561   0.43398   0.00000  Uiso   1.00
C454   C     0.39689   0.85180   0.48785   0.00000  Uiso   1.00
C455   C     0.43051   0.84376   0.01516   0.00000  Uiso   1.00
C456   C     0.59992   0.88639   0.31843   0.00000  Uiso   1.00
C457   C     0.49023   0.81876   0.43588   0.00000  Uiso   1.00
C458   C     0.66492   0.90238   0.49660   0.00000  Uiso   1.00
C459   C     0.51418   0.82278   0.01578   0.00000  Uiso   1.00
C460   C     0.55915   0.80304   0.48961   0.00000  Uiso   1.00
C461   C     0.56772   0.78912   0.43865   0.00000  Uiso   1.00
C462   C     0.53354   0.79626   0.41243   0.00000  Uiso   1.00
C463   C     0.50694   0.83591   0.06729   0.00000  Uiso   1.00
C464   C     0.58529   0.80784   0.06725   0.00000  Uiso   1.00
Cu465  Cu    0.45311   0.83333   0.25000   0.00000  Uiso   1.00
Cu466  Cu    0.54689   0.83334   0.25000   0.00000  Uiso   1.00
H467   H     0.61190   0.80049   0.08727   0.00000  Uiso   1.00
H468   H     0.47479   0.85292   0.08839   0.00000  Uiso   1.00
H469   H     0.38569   0.85274   0.41250   0.00000  Uiso   1.00
H470   H     0.41766   0.84841   0.05671   0.00000  Uiso   1.00
H471   H     0.54109   0.78265   0.37411   0.00000  Uiso   1.00
H472   H     0.57583   0.96291   0.24984   0.00000  Uiso   1.00
H473   H     0.33996   0.86459   0.05531   0.00000  Uiso   1.00
H474   H     0.62785   0.91042   0.02246   0.00000  Uiso   1.00
H475   H     0.66187   0.89780   0.45678   0.00000  Uiso   1.00
H476   H     0.35692   0.92832   0.49687   0.00000  Uiso   1.00
H477   H     0.57578   0.70416   0.24981   0.00000  Uiso   1.00
H478   H     0.42408   0.70376   0.25055   0.00000  Uiso   1.00
H479   H     0.42410   0.96251   0.25069   0.00000  Uiso   1.00
H480   H     0.36120   0.87856   0.30915   0.00000  Uiso   1.00
H481   H     0.39322   0.78788   0.19058   0.00000  Uiso   1.00
H482   H     0.63963   0.78791   0.19064   0.00000  Uiso   1.00
H483   H     0.60096   0.77245   0.41895   0.00000  Uiso   1.00
H484   H     0.62890   0.78121   0.49548   0.00000  Uiso   1.00
N485   N     0.38265   0.83332   0.24999   0.00000  Uiso   1.00
N486   N     0.61735   0.83335   0.24999   0.00000  Uiso   1.00
N487   N     0.57349   0.90872   0.34712   0.00000  Uiso   1.00
N488   N     0.34847   0.86525   0.01524   0.00000  Uiso   1.00
O489   O     0.46042   0.89345   0.25000   0.00000  Uiso   1.00
O490   O     0.53961   0.89346   0.25000   0.00000  Uiso   1.00
O491   O     0.44108   0.83332   0.32549   0.00000  Uiso   1.00
O492   O     0.52027   0.83333   0.32549   0.00000  Uiso   1.00
O493   O     0.46039   0.77321   0.25000   0.00000  Uiso   1.00
O494   O     0.53958   0.77322   0.25000   0.00000  Uiso   1.00
O495   O     0.47973   0.83334   0.17451   0.00000  Uiso   1.00
O496   O     0.55892   0.83335   0.17451   0.00000  Uiso   1.00
C497   C     0.83335   0.91263   0.25011   0.00000  Uiso   1.00
C498   C     0.79133   0.83065   0.40743   0.00000  Uiso   1.00
C499   C     0.87587   0.97883   0.25003   0.00000  Uiso   1.00
C500   C     0.80717   0.83145   0.35004   0.00000  Uiso   1.00
C501   C     0.87583   0.68807   0.25000   0.00000  Uiso   1.00
C502   C     0.83326   0.70941   0.25014   0.00000  Uiso   1.00
C503   C     0.79070   0.68784   0.25041   0.00000  Uiso   1.00
C504   C     0.79072   0.97860   0.25048   0.00000  Uiso   1.00
C505   C     0.83333   0.95725   0.25023   0.00000  Uiso   1.00
C506   C     0.96646   0.85873   0.28299   0.00000  Uiso   1.00
C507   C     0.68265   0.85849   0.28293   0.00000  Uiso   1.00
C508   C     0.81158   0.82885   0.48955   0.00000  Uiso   1.00
C509   C     0.70058   0.80812   0.21701   0.00000  Uiso   1.00
C510   C     0.98432   0.80811   0.21704   0.00000  Uiso   1.00
C511   C     0.83329   0.75403   0.25002   0.00000  Uiso   1.00
C512   C     0.85951   0.83264   0.15005   0.00000  Uiso   1.00
C513   C     0.92792   0.79636   0.01524   0.00000  Uiso   1.00
C514   C     0.87428   0.82693   0.09359   0.00000  Uiso   1.00
C515   C     0.74447   0.84561   0.43398   0.00000  Uiso   1.00
C516   C     0.73023   0.85180   0.48785   0.00000  Uiso   1.00
C517   C     0.76385   0.84376   0.01516   0.00000  Uiso   1.00
C518   C     0.93326   0.88639   0.31843   0.00000  Uiso   1.00
C519   C     0.82356   0.81876   0.43588   0.00000  Uiso   1.00
C520   C     0.99825   0.90238   0.49660   0.00000  Uiso   1.00
C521   C     0.84751   0.82278   0.01578   0.00000  Uiso   1.00
C522   C     0.89248   0.80304   0.48961   0.00000  Uiso   1.00
C523   C     0.90105   0.78912   0.43865   0.00000  Uiso   1.00
C524   C     0.86688   0.79626   0.41243   0.00000  Uiso   1.00
C525   C     0.84027   0.83591   0.06729   0.00000  Uiso   1.00
C526   C     0.91862   0.80784   0.06725   0.00000  Uiso   1.00
Cu527  Cu    0.78645   0.83333   0.25000   0.00000  Uiso   1.00
Cu528  Cu    0.88022   0.83334   0.25000   0.00000  Uiso   1.00
H529   H     0.94523   0.80049   0.08727   0.00000  Uiso   1.00
H530   H     0.80812   0.85292   0.08839   0.00000  Uiso   1.00
H531   H     0.71902   0.85274   0.41250   0.00000  Uiso   1.00
H532   H     0.75100   0.84841   0.05671   0.00000  Uiso   1.00
H533   H     0.87442   0.78265   0.37411   0.00000  Uiso   1.00
H534   H     0.90916   0.96291   0.24984   0.00000  Uiso   1.00
H535   H     0.67329   0.86459   0.05531   0.00000  Uiso   1.00
H536   H     0.96119   0.91042   0.02246   0.00000  Uiso   1.00
H537   H     0.99520   0.89780   0.45678   0.00000  Uiso   1.00
H538   H     0.69025   0.92832   0.49687   0.00000  Uiso   1.00
H539   H     0.90911   0.70416   0.24981   0.00000  Uiso   1.00
H540   H     0.75741   0.70376   0.25055   0.00000  Uiso   1.00
H541   H     0.75743   0.96251   0.25069   0.00000  Uiso   1.00
H542   H     0.69454   0.87856   0.30915   0.00000  Uiso   1.00
H543   H     0.72656   0.78788   0.19058   0.00000  Uiso   1.00
H544   H     0.97296   0.78791   0.19064   0.00000  Uiso   1.00
H545   H     0.93430   0.77245   0.41895   0.00000  Uiso   1.00
H546   H     0.96224   0.78121   0.49548   0.00000  Uiso   1.00
N547   N     0.71598   0.83332   0.24999   0.00000  Uiso   1.00
N548   N     0.95069   0.83335   0.24999   0.00000  Uiso   1.00
N549   N     0.90682   0.90872   0.34712   0.00000  Uiso   1.00
N550   N     0.68181   0.86525   0.01524   0.00000  Uiso   1.00
O551   O     0.79375   0.89345   0.25000   0.00000  Uiso   1.00
O552   O     0.87294   0.89346   0.25000   0.00000  Uiso   1.00
O553   O     0.77441   0.83332   0.32549   0.00000  Uiso   1.00
O554   O     0.85360   0.83333   0.32549   0.00000  Uiso   1.00
O555   O     0.79373   0.77321   0.25000   0.00000  Uiso   1.00
O556   O     0.87292   0.77322   0.25000   0.00000  Uiso   1.00
O557   O     0.81306   0.83334   0.17451   0.00000  Uiso   1.00
O558   O     0.89225   0.83335   0.17451   0.00000  Uiso   1.00
C559   C     0.16668   0.24596   0.75011   0.00000  Uiso   1.00
C560   C     0.12466   0.16399   0.90743   0.00000  Uiso   1.00
C561   C     0.20920   0.31216   0.75003   0.00000  Uiso   1.00
C562   C     0.14050   0.16479   0.85004   0.00000  Uiso   1.00
C563   C     0.20916   0.02140   0.75000   0.00000  Uiso   1.00
C564   C     0.16659   0.04275   0.75014   0.00000  Uiso   1.00
C565   C     0.12403   0.02118   0.75041   0.00000  Uiso   1.00
C566   C     0.12406   0.31194   0.75048   0.00000  Uiso   1.00
C567   C     0.16666   0.29059   0.75023   0.00000  Uiso   1.00
C568   C     0.29979   0.19207   0.78299   0.00000  Uiso   1.00
C569   C     0.01598   0.19183   0.78293   0.00000  Uiso   1.00
C570   C     0.14492   0.16218   0.98955   0.00000  Uiso   1.00
C571   C     0.03391   0.14146   0.71701   0.00000  Uiso   1.00
C572   C     0.31765   0.14145   0.71704   0.00000  Uiso   1.00
C573   C     0.16662   0.08737   0.75002   0.00000  Uiso   1.00
C574   C     0.19284   0.16597   0.65005   0.00000  Uiso   1.00
C575   C     0.26125   0.12969   0.51524   0.00000  Uiso   1.00
C576   C     0.20761   0.16026   0.59359   0.00000  Uiso   1.00
C577   C     0.07780   0.17895   0.93398   0.00000  Uiso   1.00
C578   C     0.06356   0.18513   0.98785   0.00000  Uiso   1.00
C579   C     0.09718   0.17710   0.51516   0.00000  Uiso   1.00
C580   C     0.26659   0.21972   0.81843   0.00000  Uiso   1.00
C581   C     0.15689   0.15209   0.93588   0.00000  Uiso   1.00
C582   C     0.33159   0.23571   0.99660   0.00000  Uiso   1.00
C583   C     0.18085   0.15611   0.51578   0.00000  Uiso   1.00
C584   C     0.22581   0.13637   0.98961   0.00000  Uiso   1.00
C585   C     0.23438   0.12245   0.93865   0.00000  Uiso   1.00
C586   C     0.20021   0.12960   0.91243   0.00000  Uiso   1.00
C587   C     0.17360   0.16924   0.56729   0.00000  Uiso   1.00
C588   C     0.25195   0.14117   0.56725   0.00000  Uiso   1.00
Cu589  Cu    0.11978   0.16666   0.75000   0.00000  Uiso   1.00
Cu590  Cu    0.21355   0.16667   0.75000   0.00000  Uiso   1.00
H591   H     0.27857   0.13382   0.58727   0.00000  Uiso   1.00
H592   H     0.14145   0.18626   0.58839   0.00000  Uiso   1.00
H593   H     0.05235   0.18607   0.91250   0.00000  Uiso   1.00
H594   H     0.08433   0.18175   0.55671   0.00000  Uiso   1.00
H595   H     0.20776   0.11598   0.87411   0.00000  Uiso   1.00
H596   H     0.24250   0.29624   0.74984   0.00000  Uiso   1.00
H597   H     0.00662   0.19792   0.55531   0.00000  Uiso   1.00
H598   H     0.29452   0.24375   0.52246   0.00000  Uiso   1.00
H599   H     0.32853   0.23113   0.95678   0.00000  Uiso   1.00
H600   H     0.02358   0.26165   0.99687   0.00000  Uiso   1.00
H601   H     0.24244   0.03750   0.74981   0.00000  Uiso   1.00
H602   H     0.09075   0.03710   0.75055   0.00000  Uiso   1.00
H603   H     0.09077   0.29584   0.75069   0.00000  Uiso   1.00
H604   H     0.02787   0.21189   0.80915   0.00000  Uiso   1.00
H605   H     0.05989   0.12122   0.69058   0.00000  Uiso   1.00
H606   H     0.30630   0.12124   0.69064   0.00000  Uiso   1.00
H607   H     0.26763   0.10578   0.91895   0.00000  Uiso   1.00
H608   H     0.29557   0.11454   0.99548   0.00000  Uiso   1.00
N609   N     0.04931   0.16666   0.74999   0.00000  Uiso   1.00
N610   N     0.28402   0.16669   0.74999   0.00000  Uiso   1.00
N611   N     0.24015   0.24206   0.84712   0.00000  Uiso   1.00
N612   N     0.01514   0.19858   0.51524   0.00000  Uiso   1.00
O613   O     0.12708   0.22678   0.75000   0.00000  Uiso   1.00
O614   O     0.20627   0.22679   0.75000   0.00000  Uiso   1.00
O615   O     0.10775   0.16665   0.82549   0.00000  Uiso   1.00
O616   O     0.18694   0.16666   0.82549   0.00000  Uiso   1.00
O617   O     0.12706   0.10654   0.75000   0.00000  Uiso   1.00
O618   O     0.20625   0.10655   0.75000   0.00000  Uiso   1.00
O619   O     0.14640   0.16667   0.67451   0.00000  Uiso   1.00
O620   O     0.22559   0.16668   0.67451   0.00000  Uiso   1.00
C621   C     0.50002   0.24596   0.75011   0.00000  Uiso   1.00
C622   C     0.45799   0.16399   0.90743   0.00000  Uiso   1.00
C623   C     0.54253   0.31216   0.75003   0.00000  Uiso   1.00
C624   C     0.47383   0.16479   0.85004   0.00000  Uiso   1.00
C625   C     0.54249   0.02140   0.75000   0.00000  Uiso   1.00
C626   C     0.49992   0.04275   0.75014   0.00000  Uiso   1.00
C627   C     0.45736   0.02118   0.75041   0.00000  Uiso   1.00
C628   C     0.45739   0.31194   0.75048   0.00000  Uiso   1.00
C629   C     0.49999   0.29059   0.75023   0.00000  Uiso   1.00
C630   C     0.63313   0.19207   0.78299   0.00000  Uiso   1.00
C631   C     0.34931   0.19183   0.78293   0.00000  Uiso   1.00
C632   C     0.47825   0.16218   0.98955   0.00000  Uiso   1.00
C633   C     0.36724   0.14146   0.71701   0.00000  Uiso   1.00
C634   C     0.65098   0.14145   0.71704   0.00000  Uiso   1.00
C635   C     0.49995   0.08737   0.75002   0.00000  Uiso   1.00
C636   C     0.52617   0.16597   0.65005   0.00000  Uiso   1.00
C637   C     0.59459   0.12969   0.51524   0.00000  Uiso   1.00
C638   C     0.54095   0.16026   0.59359   0.00000  Uiso   1.00
C639   C     0.41113   0.17895   0.93398   0.00000  Uiso   1.00
C640   C     0.39689   0.18513   0.98785   0.00000  Uiso   1.00
C641   C     0.43051   0.17710   0.51516   0.00000  Uiso   1.00
C642   C     0.59992   0.21972   0.81843   0.00000  Uiso   1.00
C643   C     0.49023   0.15209   0.93588   0.00000  Uiso   1.00
C644   C     0.66492   0.23571   0.99660   0.00000  Uiso   1.00
C645   C     0.51418   0.15611   0.51578   0.00000  Uiso   1.00
C646   C     0.55915   0.13637   0.98961   0.00000  Uiso   1.00
C647   C     0.56772   0.12245   0.93865   0.00000  Uiso   1.00
C648   C     0.53354   0.12960   0.91243   0.00000  Uiso   1.00
C649   C     0.50694   0.16924   0.56729   0.00000  Uiso   1.00
C650   C     0.58529   0.14117   0.56725   0.00000  Uiso   1.00
Cu651  Cu    0.45311   0.16666   0.75000   0.00000  Uiso   1.00
Cu652  Cu    0.54689   0.16667   0.75000   0.00000  Uiso   1.00
H653   H     0.61190   0.13382   0.58727   0.00000  Uiso   1.00
H654   H     0.47479   0.18626   0.58839   0.00000  Uiso   1.00
H655   H     0.38569   0.18607   0.91250   0.00000  Uiso   1.00
H656   H     0.41766   0.18175   0.55671   0.00000  Uiso   1.00
H657   H     0.54109   0.11598   0.87411   0.00000  Uiso   1.00
H658   H     0.57583   0.29624   0.74984   0.00000  Uiso   1.00
H659   H     0.33996   0.19792   0.55531   0.00000  Uiso   1.00
H660   H     0.62785   0.24375   0.52246   0.00000  Uiso   1.00
H661   H     0.66187   0.23113   0.95678   0.00000  Uiso   1.00
H662   H     0.35692   0.26165   0.99687   0.00000  Uiso   1.00
H663   H     0.57578   0.03750   0.74981   0.00000  Uiso   1.00
H664   H     0.42408   0.03710   0.75055   0.00000  Uiso   1.00
H665   H     0.42410   0.29584   0.75069   0.00000  Uiso   1.00
H666   H     0.36120   0.21189   0.80915   0.00000  Uiso   1.00
H667   H     0.39322   0.12122   0.69058   0.00000  Uiso   1.00
H668   H     0.63963   0.12124   0.69064   0.00000  Uiso   1.00
H669   H     0.60096   0.10578   0.91895   0.00000  Uiso   1.00
H670   H     0.62890   0.11454   0.99548   0.00000  Uiso   1.00
N671   N     0.38265   0.16666   0.74999   0.00000  Uiso   1.00
N672   N     0.61735   0.16669   0.74999   0.00000  Uiso   1.00
N673   N     0.57349   0.24206   0.84712   0.00000  Uiso   1.00
N674   N     0.34847   0.19858   0.51524   0.00000  Uiso   1.00
O675   O     0.46042   0.22678   0.75000   0.00000  Uiso   1.00
O676   O     0.53961   0.22679   0.75000   0.00000  Uiso   1.00
O677   O     0.44108   0.16665   0.82549   0.00000  Uiso   1.00
O678   O     0.52027   0.16666   0.82549   0.00000  Uiso   1.00
O679   O     0.46039   0.10654   0.75000   0.00000  Uiso   1.00
O680   O     0.53958   0.10655   0.75000   0.00000  Uiso   1.00
O681   O     0.47973   0.16667   0.67451   0.00000  Uiso   1.00
O682   O     0.55892   0.16668   0.67451   0.00000  Uiso   1.00
C683   C     0.83335   0.24596   0.75011   0.00000  Uiso   1.00
C684   C     0.79133   0.16399   0.90743   0.00000  Uiso   1.00
C685   C     0.87587   0.31216   0.75003   0.00000  Uiso   1.00
C686   C     0.80717   0.16479   0.85004   0.00000  Uiso   1.00
C687   C     0.87583   0.02140   0.75000   0.00000  Uiso   1.00
C688   C     0.83326   0.04275   0.75014   0.00000  Uiso   1.00
C689   C     0.79070   0.02118   0.75041   0.00000  Uiso   1.00
C690   C     0.79072   0.31194   0.75048   0.00000  Uiso   1.00
C691   C     0.83333   0.29059   0.75023   0.00000  Uiso   1.00
C692   C     0.96646   0.19207   0.78299   0.00000  Uiso   1.00
C693   C     0.68265   0.19183   0.78293   0.00000  Uiso   1.00
C694   C     0.81158   0.16218   0.98955   0.00000  Uiso   1.00
C695   C     0.70058   0.14146   0.71701   0.00000  Uiso   1.00
C696   C     0.98432   0.14145   0.71704   0.00000  Uiso   1.00
C697   C     0.83329   0.08737   0.75002   0.00000  Uiso   1.00
C698   C     0.85951   0.16597   0.65005   0.00000  Uiso   1.00
C699   C     0.92792   0.12969   0.51524   0.00000  Uiso   1.00
C700   C     0.87428   0.16026   0.59359   0.00000  Uiso   1.00
C701   C     0.74447   0.17895   0.93398   0.00000  Uiso   1.00
C702   C     0.73023   0.18513   0.98785   0.00000  Uiso   1.00
C703   C     0.76385   0.17710   0.51516   0.00000  Uiso   1.00
C704   C     0.93326   0.21972   0.81843   0.00000  Uiso   1.00
C705   C     0.82356   0.15209   0.93588   0.00000  Uiso   1.00
C706   C     0.99825   0.23571   0.99660   0.00000  Uiso   1.00
C707   C     0.84751   0.15611   0.51578   0.00000  Uiso   1.00
C708   C     0.89248   0.13637   0.98961   0.00000  Uiso   1.00
C709   C     0.90105   0.12245   0.93865   0.00000  Uiso   1.00
C710   C     0.86688   0.12960   0.91243   0.00000  Uiso   1.00
C711   C     0.84027   0.16924   0.56729   0.00000  Uiso   1.00
C712   C     0.91862   0.14117   0.56725   0.00000  Uiso   1.00
Cu713  Cu    0.78645   0.16666   0.75000   0.00000  Uiso   1.00
Cu714  Cu    0.88022   0.16667   0.75000   0.00000  Uiso   1.00
H715   H     0.94523   0.13382   0.58727   0.00000  Uiso   1.00
H716   H     0.80812   0.18626   0.58839   0.00000  Uiso   1.00
H717   H     0.71902   0.18607   0.91250   0.00000  Uiso   1.00
H718   H     0.75100   0.18175   0.55671   0.00000  Uiso   1.00
H719   H     0.87442   0.11598   0.87411   0.00000  Uiso   1.00
H720   H     0.90916   0.29624   0.74984   0.00000  Uiso   1.00
H721   H     0.67329   0.19792   0.55531   0.00000  Uiso   1.00
H722   H     0.96119   0.24375   0.52246   0.00000  Uiso   1.00
H723   H     0.99520   0.23113   0.95678   0.00000  Uiso   1.00
H724   H     0.69025   0.26165   0.99687   0.00000  Uiso   1.00
H725   H     0.90911   0.03750   0.74981   0.00000  Uiso   1.00
H726   H     0.75741   0.03710   0.75055   0.00000  Uiso   1.00
H727   H     0.75743   0.29584   0.75069   0.00000  Uiso   1.00
H728   H     0.69454   0.21189   0.80915   0.00000  Uiso   1.00
H729   H     0.72656   0.12122   0.69058   0.00000  Uiso   1.00
H730   H     0.97296   0.12124   0.69064   0.00000  Uiso   1.00
H731   H     0.93430   0.10578   0.91895   0.00000  Uiso   1.00
H732   H     0.96224   0.11454   0.99548   0.00000  Uiso   1.00
N733   N     0.71598   0.16666   0.74999   0.00000  Uiso   1.00
N734   N     0.95069   0.16669   0.74999   0.00000  Uiso   1.00
N735   N     0.90682   0.24206   0.84712   0.00000  Uiso   1.00
N736   N     0.68181   0.19858   0.51524   0.00000  Uiso   1.00
O737   O     0.79375   0.22678   0.75000   0.00000  Uiso   1.00
O738   O     0.87294   0.22679   0.75000   0.00000  Uiso   1.00
O739   O     0.77441   0.16665   0.82549   0.00000  Uiso   1.00
O740   O     0.85360   0.16666   0.82549   0.00000  Uiso   1.00
O741   O     0.79373   0.10654   0.75000   0.00000  Uiso   1.00
O742   O     0.87292   0.10655   0.75000   0.00000  Uiso   1.00
O743   O     0.81306   0.16667   0.67451   0.00000  Uiso   1.00
O744   O     0.89225   0.16668   0.67451   0.00000  Uiso   1.00
C745   C     0.16668   0.57930   0.75011   0.00000  Uiso   1.00
C746   C     0.12466   0.49732   0.90743   0.00000  Uiso   1.00
C747   C     0.20920   0.64549   0.75003   0.00000  Uiso   1.00
C748   C     0.14050   0.49812   0.85004   0.00000  Uiso   1.00
C749   C     0.20916   0.35473   0.75000   0.00000  Uiso   1.00
C750   C     0.16659   0.37608   0.75014   0.00000  Uiso   1.00
C751   C     0.12403   0.35451   0.75041   0.00000  Uiso   1.00
C752   C     0.12406   0.64527   0.75048   0.00000  Uiso   1.00
C753   C     0.16666   0.62392   0.75023   0.00000  Uiso   1.00
C754   C     0.29979   0.52540   0.78299   0.00000  Uiso   1.00
C755   C     0.01598   0.52516   0.78293   0.00000  Uiso   1.00
C756   C     0.14492   0.49552   0.98955   0.00000  Uiso   1.00
C757   C     0.03391   0.47479   0.71701   0.00000  Uiso   1.00
C758   C     0.31765   0.47478   0.71704   0.00000  Uiso   1.00
C759   C     0.16662   0.42070   0.75002   0.00000  Uiso   1.00
C760   C     0.19284   0.49931   0.65005   0.00000  Uiso   1.00
C761   C     0.26125   0.46303   0.51524   0.00000  Uiso   1.00
C762   C     0.20761   0.49359   0.59359   0.00000  Uiso   1.00
C763   C     0.07780   0.51228   0.93398   0.00000  Uiso   1.00
C764   C     0.06356   0.51846   0.98785   0.00000  Uiso   1.00
C765   C     0.09718   0.51043   0.51516   0.00000  Uiso   1.00
C766   C     0.26659   0.55306   0.81843   0.00000  Uiso   1.00
C767   C     0.15689   0.48542   0.93588   0.00000  Uiso   1.00
C768   C     0.33159   0.56904   0.99660   0.00000  Uiso   1.00
C769   C     0.18085   0.48944   0.51578   0.00000  Uiso   1.00
C770   C     0.22581   0.46970   0.98961   0.00000  Uiso   1.00
C771   C     0.23438   0.45578   0.93865   0.00000  Uiso   1.00
C772   C     0.20021   0.46293   0.91243   0.00000  Uiso   1.00
C773   C     0.17360   0.50258   0.56729   0.00000  Uiso   1.00
C774   C     0.25195   0.47450   0.56725   0.00000  Uiso   1.00
Cu775  Cu    0.11978   0.49999   0.75000   0.00000  Uiso   1.00
Cu776  Cu    0.21355   0.50001   0.75000   0.00000  Uiso   1.00
H777   H     0.27857   0.46715   0.58727   0.00000  Uiso   1.00
H778   H     0.14145   0.51959   0.58839   0.00000  Uiso   1.00
H779   H     0.05235   0.51941   0.91250   0.00000  Uiso   1.00
H780   H     0.08433   0.51508   0.55671   0.00000  Uiso   1.00
H781   H     0.20776   0.44932   0.87411   0.00000  Uiso   1.00
H782   H     0.24250   0.62958   0.74984   0.00000  Uiso   1.00
H783   H     0.00662   0.53126   0.55531   0.00000  Uiso   1.00
H784   H     0.29452   0.57709   0.52246   0.00000  Uiso   1.00
H785   H     0.32853   0.56446   0.95678   0.00000  Uiso   1.00
H786   H     0.02358   0.59498   0.99687   0.00000  Uiso   1.00
H787   H     0.24244   0.37083   0.74981   0.00000  Uiso   1.00
H788   H     0.09075   0.37043   0.75055   0.00000  Uiso   1.00
H789   H     0.09077   0.62918   0.75069   0.00000  Uiso   1.00
H790   H     0.02787   0.54522   0.80915   0.00000  Uiso   1.00
H791   H     0.05989   0.45455   0.69058   0.00000  Uiso   1.00
H792   H     0.30630   0.45457   0.69064   0.00000  Uiso   1.00
H793   H     0.26763   0.43912   0.91895   0.00000  Uiso   1.00
H794   H     0.29557   0.44787   0.99548   0.00000  Uiso   1.00
N795   N     0.04931   0.49999   0.74999   0.00000  Uiso   1.00
N796   N     0.28402   0.50002   0.74999   0.00000  Uiso   1.00
N797   N     0.24015   0.57539   0.84712   0.00000  Uiso   1.00
N798   N     0.01514   0.53191   0.51524   0.00000  Uiso   1.00
O799   O     0.12708   0.56011   0.75000   0.00000  Uiso   1.00
O800   O     0.20627   0.56012   0.75000   0.00000  Uiso   1.00
O801   O     0.10775   0.49998   0.82549   0.00000  Uiso   1.00
O802   O     0.18694   0.49999   0.82549   0.00000  Uiso   1.00
O803   O     0.12706   0.43988   0.75000   0.00000  Uiso   1.00
O804   O     0.20625   0.43989   0.75000   0.00000  Uiso   1.00
O805   O     0.14640   0.50001   0.67451   0.00000  Uiso   1.00
O806   O     0.22559   0.50002   0.67451   0.00000  Uiso   1.00
C807   C     0.50002   0.57930   0.75011   0.00000  Uiso   1.00
C808   C     0.45799   0.49732   0.90743   0.00000  Uiso   1.00
C809   C     0.54253   0.64549   0.75003   0.00000  Uiso   1.00
C810   C     0.47383   0.49812   0.85004   0.00000  Uiso   1.00
C811   C     0.54249   0.35473   0.75000   0.00000  Uiso   1.00
C812   C     0.49992   0.37608   0.75014   0.00000  Uiso   1.00
C813   C     0.45736   0.35451   0.75041   0.00000  Uiso   1.00
C814   C     0.45739   0.64527   0.75048   0.00000  Uiso   1.00
C815   C     0.49999   0.62392   0.75023   0.00000  Uiso   1.00
C816   C     0.63313   0.52540   0.78299   0.00000  Uiso   1.00
C817   C     0.34931   0.52516   0.78293   0.00000  Uiso   1.00
C818   C     0.47825   0.49552   0.98955   0.00000  Uiso   1.00
C819   C     0.36724   0.47479   0.71701   0.00000  Uiso   1.00
C820   C     0.65098   0.47478   0.71704   0.00000  Uiso   1.00
C821   C     0.49995   0.42070   0.75002   0.00000  Uiso   1.00
C822   C     0.52617   0.49931   0.65005   0.00000  Uiso   1.00
C823   C     0.59459   0.46303   0.51524   0.00000  Uiso   1.00
C824   C     0.54095   0.49359   0.59359   0.00000  Uiso   1.00
C825   C     0.41113   0.51228   0.93398   0.00000  Uiso   1.00
C826   C     0.39689   0.51846   0.98785   0.00000  Uiso   1.00
C827   C     0.43051   0.51043   0.51516   0.00000  Uiso   1.00
C828   C     0.59992   0.55306   0.81843   0.00000  Uiso   1.00
C829   C     0.49023   0.48542   0.93588   0.00000  Uiso   1.00
C830   C     0.66492   0.56904   0.99660   0.00000  Uiso   1.00
C831   C     0.51418   0.48944   0.51578   0.00000  Uiso   1.00
C832   C     0.55915   0.46970   0.98961   0.00000  Uiso   1.00
C833   C     0.56772   0.45578   0.93865   0.00000  Uiso   1.00
C834   C     0.53354   0.46293   0.91243   0.00000  Uiso   1.00
C835   C     0.50694   0.50258   0.56729   0.00000  Uiso   1.00
C836   C     0.58529   0.47450   0.56725   0.00000  Uiso   1.00
Cu837  Cu    0.45311   0.49999   0.75000   0.00000  Uiso   1.00
Cu838  Cu    0.54689   0.50001   0.75000   0.00000  Uiso   1.00
H839   H     0.61190   0.46715   0.58727   0.00000  Uiso   1.00
H840   H     0.47479   0.51959   0.58839   0.00000  Uiso   1.00
H841   H     0.38569   0.51941   0.91250   0.00000  Uiso   1.00
H842   H     0.41766   0.51508   0.55671   0.00000  Uiso   1.00
H843   H     0.54109   0.44932   0.87411   0.00000  Uiso   1.00
H844   H     0.57583   0.62958   0.74984   0.00000  Uiso   1.00
H845   H     0.33996   0.53126   0.55531   0.00000  Uiso   1.00
H846   H     0.62785   0.57709   0.52246   0.00000  Uiso   1.00
H847   H     0.66187   0.56446   0.95678   0.00000  Uiso   1.00
H848   H     0.35692   0.59498   0.99687   0.00000  Uiso   1.00
H849   H     0.57578   0.37083   0.74981   0.00000  Uiso   1.00
H850   H     0.42408   0.37043   0.75055   0.00000  Uiso   1.00
H851   H     0.42410   0.62918   0.75069   0.00000  Uiso   1.00
H852   H     0.36120   0.54522   0.80915   0.00000  Uiso   1.00
H853   H     0.39322   0.45455   0.69058   0.00000  Uiso   1.00
H854   H     0.63963   0.45457   0.69064   0.00000  Uiso   1.00
H855   H     0.60096   0.43912   0.91895   0.00000  Uiso   1.00
H856   H     0.62890   0.44787   0.99548   0.00000  Uiso   1.00
N857   N     0.38265   0.49999   0.74999   0.00000  Uiso   1.00
N858   N     0.61735   0.50002   0.74999   0.00000  Uiso   1.00
N859   N     0.57349   0.57539   0.84712   0.00000  Uiso   1.00
N860   N     0.34847   0.53191   0.51524   0.00000  Uiso   1.00
O861   O     0.46042   0.56011   0.75000   0.00000  Uiso   1.00
O862   O     0.53961   0.56012   0.75000   0.00000  Uiso   1.00
O863   O     0.44108   0.49998   0.82549   0.00000  Uiso   1.00
O864   O     0.52027   0.49999   0.82549   0.00000  Uiso   1.00
O865   O     0.46039   0.43988   0.75000   0.00000  Uiso   1.00
O866   O     0.53958   0.43989   0.75000   0.00000  Uiso   1.00
O867   O     0.47973   0.50001   0.67451   0.00000  Uiso   1.00
O868   O     0.55892   0.50002   0.67451   0.00000  Uiso   1.00
C869   C     0.83335   0.57930   0.75011   0.00000  Uiso   1.00
C870   C     0.79133   0.49732   0.90743   0.00000  Uiso   1.00
C871   C     0.87587   0.64549   0.75003   0.00000  Uiso   1.00
C872   C     0.80717   0.49812   0.85004   0.00000  Uiso   1.00
C873   C     0.87583   0.35473   0.75000   0.00000  Uiso   1.00
C874   C     0.83326   0.37608   0.75014   0.00000  Uiso   1.00
C875   C     0.79070   0.35451   0.75041   0.00000  Uiso   1.00
C876   C     0.79072   0.64527   0.75048   0.00000  Uiso   1.00
C877   C     0.83333   0.62392   0.75023   0.00000  Uiso   1.00
C878   C     0.96646   0.52540   0.78299   0.00000  Uiso   1.00
C879   C     0.68265   0.52516   0.78293   0.00000  Uiso   1.00
C880   C     0.81158   0.49552   0.98955   0.00000  Uiso   1.00
C881   C     0.70058   0.47479   0.71701   0.00000  Uiso   1.00
C882   C     0.98432   0.47478   0.71704   0.00000  Uiso   1.00
C883   C     0.83329   0.42070   0.75002   0.00000  Uiso   1.00
C884   C     0.85951   0.49931   0.65005   0.00000  Uiso   1.00
C885   C     0.92792   0.46303   0.51524   0.00000  Uiso   1.00
C886   C     0.87428   0.49359   0.59359   0.00000  Uiso   1.00
C887   C     0.74447   0.51228   0.93398   0.00000  Uiso   1.00
C888   C     0.73023   0.51846   0.98785   0.00000  Uiso   1.00
C889   C     0.76385   0.51043   0.51516   0.00000  Uiso   1.00
C890   C     0.93326   0.55306   0.81843   0.00000  Uiso   1.00
C891   C     0.82356   0.48542   0.93588   0.00000  Uiso   1.00
C892   C     0.99825   0.56904   0.99660   0.00000  Uiso   1.00
C893   C     0.84751   0.48944   0.51578   0.00000  Uiso   1.00
C894   C     0.89248   0.46970   0.98961   0.00000  Uiso   1.00
C895   C     0.90105   0.45578   0.93865   0.00000  Uiso   1.00
C896   C     0.86688   0.46293   0.91243   0.00000  Uiso   1.00
C897   C     0.84027   0.50258   0.56729   0.00000  Uiso   1.00
C898   C     0.91862   0.47450   0.56725   0.00000  Uiso   1.00
Cu899  Cu    0.78645   0.49999   0.75000   0.00000  Uiso   1.00
Cu900  Cu    0.88022   0.50001   0.75000   0.00000  Uiso   1.00
H901   H     0.94523   0.46715   0.58727   0.00000  Uiso   1.00
H902   H     0.80812   0.51959   0.58839   0.00000  Uiso   1.00
H903   H     0.71902   0.51941   0.91250   0.00000  Uiso   1.00
H904   H     0.75100   0.51508   0.55671   0.00000  Uiso   1.00
H905   H     0.87442   0.44932   0.87411   0.00000  Uiso   1.00
H906   H     0.90916   0.62958   0.74984   0.00000  Uiso   1.00
H907   H     0.67329   0.53126   0.55531   0.00000  Uiso   1.00
H908   H     0.96119   0.57709   0.52246   0.00000  Uiso   1.00
H909   H     0.99520   0.56446   0.95678   0.00000  Uiso   1.00
H910   H     0.69025   0.59498   0.99687   0.00000  Uiso   1.00
H911   H     0.90911   0.37083   0.74981   0.00000  Uiso   1.00
H912   H     0.75741   0.37043   0.75055   0.00000  Uiso   1.00
H913   H     0.75743   0.62918   0.75069   0.00000  Uiso   1.00
H914   H     0.69454   0.54522   0.80915   0.00000  Uiso   1.00
H915   H     0.72656   0.45455   0.69058   0.00000  Uiso   1.00
H916   H     0.97296   0.45457   0.69064   0.00000  Uiso   1.00
H917   H     0.93430   0.43912   0.91895   0.00000  Uiso   1.00
H918   H     0.96224   0.44787   0.99548   0.00000  Uiso   1.00
N919   N     0.71598   0.49999   0.74999   0.00000  Uiso   1.00
N920   N     0.95069   0.50002   0.74999   0.00000  Uiso   1.00
N921   N     0.90682   0.57539   0.84712   0.00000  Uiso   1.00
N922   N     0.68181   0.53191   0.51524   0.00000  Uiso   1.00
O923   O     0.79375   0.56011   0.75000   0.00000  Uiso   1.00
O924   O     0.87294   0.56012   0.75000   0.00000  Uiso   1.00
O925   O     0.77441   0.49998   0.82549   0.00000  Uiso   1.00
O926   O     0.85360   0.49999   0.82549   0.00000  Uiso   1.00
O927   O     0.79373   0.43988   0.75000   0.00000  Uiso   1.00
O928   O     0.87292   0.43989   0.75000   0.00000  Uiso   1.00
O929   O     0.81306   0.50001   0.67451   0.00000  Uiso   1.00
O930   O     0.89225   0.50002   0.67451   0.00000  Uiso   1.00
C931   C     0.16668   0.91263   0.75011   0.00000  Uiso   1.00
C932   C     0.12466   0.83065   0.90743   0.00000  Uiso   1.00
C933   C     0.20920   0.97883   0.75003   0.00000  Uiso   1.00
C934   C     0.14050   0.83145   0.85004   0.00000  Uiso   1.00
C935   C     0.20916   0.68807   0.75000   0.00000  Uiso   1.00
C936   C     0.16659   0.70941   0.75014   0.00000  Uiso   1.00
C937   C     0.12403   0.68784   0.75041   0.00000  Uiso   1.00
C938   C     0.12406   0.97860   0.75048   0.00000  Uiso   1.00
C939   C     0.16666   0.95725   0.75023   0.00000  Uiso   1.00
C940   C     0.29979   0.85873   0.78299   0.00000  Uiso   1.00
C941   C     0.01598   0.85849   0.78293   0.00000  Uiso   1.00
C942   C     0.14492   0.82885   0.98955   0.00000  Uiso   1.00
C943   C     0.03391   0.80812   0.71701   0.00000  Uiso   1.00
C944   C     0.31765   0.80811   0.71704   0.00000  Uiso   1.00
C945   C     0.16662   0.75403   0.75002   0.00000  Uiso   1.00
C946   C     0.19284   0.83264   0.65005   0.00000  Uiso   1.00
C947   C     0.26125   0.79636   0.51524   0.00000  Uiso   1.00
C948   C     0.20761   0.82693   0.59359   0.00000  Uiso   1.00
C949   C     0.07780   0.84561   0.93398   0.00000  Uiso   1.00
C950   C     0.06356   0.85180   0.98785   0.00000  Uiso   1.00
C951   C     0.09718   0.84376   0.51516   0.00000  Uiso   1.00
C952   C     0.26659   0.88639   0.81843   0.00000  Uiso   1.00
C953   C     0.15689   0.81876   0.93588   0.00000  Uiso   1.00
C954   C     0.33159   0.90238   0.99660   0.00000  Uiso   1.00
C955   C     0.18085   0.82278   0.51578   0.00000  Uiso   1.00
C956   C     0.22581   0.80304   0.98961   0.00000  Uiso   1.00
C957   C     0.23438   0.78912   0.93865   0.00000  Uiso   1.00
C958   C     0.20021   0.79626   0.91243   0.00000  Uiso   1.00
C959   C     0.17360   0.83591   0.56729   0.00000  Uiso   1.00
C960   C     0.25195   0.80784   0.56725   0.00000  Uiso   1.00
Cu961  Cu    0.11978   0.83333   0.75000   0.00000  Uiso   1.00
Cu962  Cu    0.21355   0.83334   0.75000   0.00000  Uiso   1.00
H963   H     0.27857   0.80049   0.58727   0.00000  Uiso   1.00
H964   H     0.14145   0.85292   0.58839   0.00000  Uiso   1.00
H965   H     0.05235   0.85274   0.91250   0.00000  Uiso   1.00
H966   H     0.08433   0.84841   0.55671   0.00000  Uiso   1.00
H967   H     0.20776   0.78265   0.87411   0.00000  Uiso   1.00
H968   H     0.24250   0.96291   0.74984   0.00000  Uiso   1.00
H969   H     0.00662   0.86459   0.55531   0.00000  Uiso   1.00
H970   H     0.29452   0.91042   0.52246   0.00000  Uiso   1.00
H971   H     0.32853   0.89780   0.95678   0.00000  Uiso   1.00
H972   H     0.02358   0.92832   0.99687   0.00000  Uiso   1.00
H973   H     0.24244   0.70416   0.74981   0.00000  Uiso   1.00
H974   H     0.09075   0.70376   0.75055   0.00000  Uiso   1.00
H975   H     0.09077   0.96251   0.75069   0.00000  Uiso   1.00
H976   H     0.02787   0.87856   0.80915   0.00000  Uiso   1.00
H977   H     0.05989   0.78788   0.69058   0.00000  Uiso   1.00
H978   H     0.30630   0.78791   0.69064   0.00000  Uiso   1.00
H979   H     0.26763   0.77245   0.91895   0.00000  Uiso   1.00
H980   H     0.29557   0.78121   0.99548   0.00000  Uiso   1.00
N981   N     0.04931   0.83332   0.74999   0.00000  Uiso   1.00
N982   N     0.28402   0.83335   0.74999   0.00000  Uiso   1.00
N983   N     0.24015   0.90872   0.84712   0.00000  Uiso   1.00
N984   N     0.01514   0.86525   0.51524   0.00000  Uiso   1.00
O985   O     0.12708   0.89345   0.75000   0.00000  Uiso   1.00
O986   O     0.20627   0.89346   0.75000   0.00000  Uiso   1.00
O987   O     0.10775   0.83332   0.82549   0.00000  Uiso   1.00
O988   O     0.18694   0.83333   0.82549   0.00000  Uiso   1.00
O989   O     0.12706   0.77321   0.75000   0.00000  Uiso   1.00
O990   O     0.20625   0.77322   0.75000   0.00000  Uiso   1.00
O991   O     0.14640   0.83334   0.67451   0.00000  Uiso   1.00
O992   O     0.22559   0.83335   0.67451   0.00000  Uiso   1.00
C993   C     0.50002   0.91263   0.75011   0.00000  Uiso   1.00
C994   C     0.45799   0.83065   0.90743   0.00000  Uiso   1.00
C995   C     0.54253   0.97883   0.75003   0.00000  Uiso   1.00
C996   C     0.47383   0.83145   0.85004   0.00000  Uiso   1.00
C997   C     0.54249   0.68807   0.75000   0.00000  Uiso   1.00
C998   C     0.49992   0.70941   0.75014   0.00000  Uiso   1.00
C999   C     0.45736   0.68784   0.75041   0.00000  Uiso   1.00
C1000  C     0.45739   0.97860   0.75048   0.00000  Uiso   1.00
C1001  C     0.49999   0.95725   0.75023   0.00000  Uiso   1.00
C1002  C     0.63313   0.85873   0.78299   0.00000  Uiso   1.00
C1003  C     0.34931   0.85849   0.78293   0.00000  Uiso   1.00
C1004  C     0.47825   0.82885   0.98955   0.00000  Uiso   1.00
C1005  C     0.36724   0.80812   0.71701   0.00000  Uiso   1.00
C1006  C     0.65098   0.80811   0.71704   0.00000  Uiso   1.00
C1007  C     0.49995   0.75403   0.75002   0.00000  Uiso   1.00
C1008  C     0.52617   0.83264   0.65005   0.00000  Uiso   1.00
C1009  C     0.59459   0.79636   0.51524   0.00000  Uiso   1.00
C1010  C     0.54095   0.82693   0.59359   0.00000  Uiso   1.00
C1011  C     0.41113   0.84561   0.93398   0.00000  Uiso   1.00
C1012  C     0.39689   0.85180   0.98785   0.00000  Uiso   1.00
C1013  C     0.43051   0.84376   0.51516   0.00000  Uiso   1.00
C1014  C     0.59992   0.88639   0.81843   0.00000  Uiso   1.00
C1015  C     0.49023   0.81876   0.93588   0.00000  Uiso   1.00
C1016  C     0.66492   0.90238   0.99660   0.00000  Uiso   1.00
C1017  C     0.51418   0.82278   0.51578   0.00000  Uiso   1.00
C1018  C     0.55915   0.80304   0.98961   0.00000  Uiso   1.00
C1019  C     0.56772   0.78912   0.93865   0.00000  Uiso   1.00
C1020  C     0.53354   0.79626   0.91243   0.00000  Uiso   1.00
C1021  C     0.50694   0.83591   0.56729   0.00000  Uiso   1.00
C1022  C     0.58529   0.80784   0.56725   0.00000  Uiso   1.00
Cu1023 Cu    0.45311   0.83333   0.75000   0.00000  Uiso   1.00
Cu1024 Cu    0.54689   0.83334   0.75000   0.00000  Uiso   1.00
H1025  H     0.61190   0.80049   0.58727   0.00000  Uiso   1.00
H1026  H     0.47479   0.85292   0.58839   0.00000  Uiso   1.00
H1027  H     0.38569   0.85274   0.91250   0.00000  Uiso   1.00
H1028  H     0.41766   0.84841   0.55671   0.00000  Uiso   1.00
H1029  H     0.54109   0.78265   0.87411   0.00000  Uiso   1.00
H1030  H     0.57583   0.96291   0.74984   0.00000  Uiso   1.00
H1031  H     0.33996   0.86459   0.55531   0.00000  Uiso   1.00
H1032  H     0.62785   0.91042   0.52246   0.00000  Uiso   1.00
H1033  H     0.66187   0.89780   0.95678   0.00000  Uiso   1.00
H1034  H     0.35692   0.92832   0.99687   0.00000  Uiso   1.00
H1035  H     0.57578   0.70416   0.74981   0.00000  Uiso   1.00
H1036  H     0.42408   0.70376   0.75055   0.00000  Uiso   1.00
H1037  H     0.42410   0.96251   0.75069   0.00000  Uiso   1.00
H1038  H     0.36120   0.87856   0.80915   0.00000  Uiso   1.00
H1039  H     0.39322   0.78788   0.69058   0.00000  Uiso   1.00
H1040  H     0.63963   0.78791   0.69064   0.00000  Uiso   1.00
H1041  H     0.60096   0.77245   0.91895   0.00000  Uiso   1.00
H1042  H     0.62890   0.78121   0.99548   0.00000  Uiso   1.00
N1043  N     0.38265   0.83332   0.74999   0.00000  Uiso   1.00
N1044  N     0.61735   0.83335   0.74999   0.00000  Uiso   1.00
N1045  N     0.57349   0.90872   0.84712   0.00000  Uiso   1.00
N1046  N     0.34847   0.86525   0.51524   0.00000  Uiso   1.00
O1047  O     0.46042   0.89345   0.75000   0.00000  Uiso   1.00
O1048  O     0.53961   0.89346   0.75000   0.00000  Uiso   1.00
O1049  O     0.44108   0.83332   0.82549   0.00000  Uiso   1.00
O1050  O     0.52027   0.83333   0.82549   0.00000  Uiso   1.00
O1051  O     0.46039   0.77321   0.75000   0.00000  Uiso   1.00
O1052  O     0.53958   0.77322   0.75000   0.00000  Uiso   1.00
O1053  O     0.47973   0.83334   0.67451   0.00000  Uiso   1.00
O1054  O     0.55892   0.83335   0.67451   0.00000  Uiso   1.00
C1055  C     0.83335   0.91263   0.75011   0.00000  Uiso   1.00
C1056  C     0.79133   0.83065   0.90743   0.00000  Uiso   1.00
C1057  C     0.87587   0.97883   0.75003   0.00000  Uiso   1.00
C1058  C     0.80717   0.83145   0.85004   0.00000  Uiso   1.00
C1059  C     0.87583   0.68807   0.75000   0.00000  Uiso   1.00
C1060  C     0.83326   0.70941   0.75014   0.00000  Uiso   1.00
C1061  C     0.79070   0.68784   0.75041   0.00000  Uiso   1.00
C1062  C     0.79072   0.97860   0.75048   0.00000  Uiso   1.00
C1063  C     0.83333   0.95725   0.75023   0.00000  Uiso   1.00
C1064  C     0.96646   0.85873   0.78299   0.00000  Uiso   1.00
C1065  C     0.68265   0.85849   0.78293   0.00000  Uiso   1.00
C1066  C     0.81158   0.82885   0.98955   0.00000  Uiso   1.00
C1067  C     0.70058   0.80812   0.71701   0.00000  Uiso   1.00
C1068  C     0.98432   0.80811   0.71704   0.00000  Uiso   1.00
C1069  C     0.83329   0.75403   0.75002   0.00000  Uiso   1.00
C1070  C     0.85951   0.83264   0.65005   0.00000  Uiso   1.00
C1071  C     0.92792   0.79636   0.51524   0.00000  Uiso   1.00
C1072  C     0.87428   0.82693   0.59359   0.00000  Uiso   1.00
C1073  C     0.74447   0.84561   0.93398   0.00000  Uiso   1.00
C1074  C     0.73023   0.85180   0.98785   0.00000  Uiso   1.00
C1075  C     0.76385   0.84376   0.51516   0.00000  Uiso   1.00
C1076  C     0.93326   0.88639   0.81843   0.00000  Uiso   1.00
C1077  C     0.82356   0.81876   0.93588   0.00000  Uiso   1.00
C1078  C     0.99825   0.90238   0.99660   0.00000  Uiso   1.00
C1079  C     0.84751   0.82278   0.51578   0.00000  Uiso   1.00
C1080  C     0.89248   0.80304   0.98961   0.00000  Uiso   1.00
C1081  C     0.90105   0.78912   0.93865   0.00000  Uiso   1.00
C1082  C     0.86688   0.79626   0.91243   0.00000  Uiso   1.00
C1083  C     0.84027   0.83591   0.56729   0.00000  Uiso   1.00
C1084  C     0.91862   0.80784   0.56725   0.00000  Uiso   1.00
Cu1085 Cu    0.78645   0.83333   0.75000   0.00000  Uiso   1.00
Cu1086 Cu    0.88022   0.83334   0.75000   0.00000  Uiso   1.00
H1087  H     0.94523   0.80049   0.58727   0.00000  Uiso   1.00
H1088  H     0.80812   0.85292   0.58839   0.00000  Uiso   1.00
H1089  H     0.71902   0.85274   0.91250   0.00000  Uiso   1.00
H1090  H     0.75100   0.84841   0.55671   0.00000  Uiso   1.00
H1091  H     0.87442   0.78265   0.87411   0.00000  Uiso   1.00
H1092  H     0.90916   0.96291   0.74984   0.00000  Uiso   1.00
H1093  H     0.67329   0.86459   0.55531   0.00000  Uiso   1.00
H1094  H     0.96119   0.91042   0.52246   0.00000  Uiso   1.00
H1095  H     0.99520   0.89780   0.95678   0.00000  Uiso   1.00
H1096  H     0.69025   0.92832   0.99687   0.00000  Uiso   1.00
H1097  H     0.90911   0.70416   0.74981   0.00000  Uiso   1.00
H1098  H     0.75741   0.70376   0.75055   0.00000  Uiso   1.00
H1099  H     0.75743   0.96251   0.75069   0.00000  Uiso   1.00
H1100  H     0.69454   0.87856   0.80915   0.00000  Uiso   1.00
H1101  H     0.72656   0.78788   0.69058   0.00000  Uiso   1.00
H1102  H     0.97296   0.78791   0.69064   0.00000  Uiso   1.00
H1103  H     0.93430   0.77245   0.91895   0.00000  Uiso   1.00
H1104  H     0.96224   0.78121   0.99548   0.00000  Uiso   1.00
N1105  N     0.71598   0.83332   0.74999   0.00000  Uiso   1.00
N1106  N     0.95069   0.83335   0.74999   0.00000  Uiso   1.00
N1107  N     0.90682   0.90872   0.84712   0.00000  Uiso   1.00
N1108  N     0.68181   0.86525   0.51524   0.00000  Uiso   1.00
O1109  O     0.79375   0.89345   0.75000   0.00000  Uiso   1.00
O1110  O     0.87294   0.89346   0.75000   0.00000  Uiso   1.00
O1111  O     0.77441   0.83332   0.82549   0.00000  Uiso   1.00
O1112  O     0.85360   0.83333   0.82549   0.00000  Uiso   1.00
O1113  O     0.79373   0.77321   0.75000   0.00000  Uiso   1.00
O1114  O     0.87292   0.77322   0.75000   0.00000  Uiso   1.00
O1115  O     0.81306   0.83334   0.67451   0.00000  Uiso   1.00
O1116  O     0.89225   0.83335   0.67451   0.00000  Uiso   1.00
loop_
_geom_bond_atom_site_label_1
_geom_bond_atom_site_label_2
_geom_bond_distance
_geom_bond_site_symmetry_2
_ccdc_geom_bond_type
C1     O56     1.293   .     A
C1     O55     1.292   .     A
C1     C9      1.450   .     S
C2     C4      1.473   .     S
C2     C23     1.418   .     A
C2     C19     1.403   .     A
C3     C9      1.401   .     A
C3     H38     1.083   .     S
C3     C191    1.383   .     S
C4     O57     1.299   .     A
C4     O58     1.296   .     A
C5     H43     1.083   .     S
C5     C6      1.402   .     A
C5     C375    1.383   1_545 S
C6     C7      1.401   .     A
C6     C15     1.450   .     S
C7     H44     1.083   .     S
C7     C380    1.383   1_545 S
C8     H45     1.083   .     S
C8     C9      1.401   .     A
C8     C193    1.383   .     S
C10    N52     1.377   .     A
C10    C22     1.439   .     S
C10    C73     1.415   .     S
C11    N51     1.361   .     A
C11    H46     1.083   .     S
C11    C134    1.415   1_455 S
C12    C23     1.417   .     A
C12    C579    1.418   .     S
C12    C583    1.424   .     S
C13    N51     1.368   .     A
C13    H47     1.082   .     S
C13    C138    1.418   1_455 S
C14    H48     1.082   .     S
C14    N52     1.367   .     A
C14    C75     1.418   .     S
C15    O60     1.292   .     A
C15    O59     1.293   .     A
C16    C18     1.460   .     S
C16    O61     1.294   .     A
C16    O62     1.295   .     A
C17    C30     1.392   .     A
C17    C584    1.403   1_554 S
C17    H608    1.084   1_554 S
C18    C29     1.395   .     A
C18    C30     1.398   .     A
C19    C20     1.396   .     A
C19    H35     1.082   .     S
C20    C579    1.399   .     S
C20    N612    1.428   .     S
C21    H36     1.077   .     S
C21    C578    1.399   1_554 S
C21    C570    1.418   1_554 S
C22    N53     1.158   .     T
C23    C28     1.413   .     A
C24    H41     1.109   .     S
C24    H598    1.111   .     S
C24    H104    1.111   .     S
C24    N674    1.448   .     S
C25    C29     1.402   .     A
C25    C570    1.424   1_554 S
C25    C584    1.420   1_554 S
C26    C27     1.391   .     A
C26    C575    1.403   .     S
C26    C583    1.420   .     S
C27    H49     1.084   .     S
C27    C28     1.386   .     A
C28    H37     1.080   .     S
C29    H34     1.077   .     S
C30    H33     1.083   .     S
Cu31   O61     1.944   .     S
Cu31   O57     1.955   .     S
Cu31   O55     1.964   .     S
Cu31   Cu32    2.681   .     S
Cu31   N51     2.015   .     S
Cu31   O59     1.965   .     S
Cu32   O58     1.944   .     S
Cu32   O62     1.955   .     S
Cu32   O56     1.965   .     S
Cu32   O60     1.964   .     S
Cu32   N52     2.014   .     S
H39    N54     1.032   .     S
H40    C582    1.111   1_554 S
H42    C148    1.111   1_455 S
H50    C575    1.084   .     S
N54    C578    1.428   1_554 S
N54    C706    1.448   1_454 S
C63    O118    1.293   .     A
C63    O117    1.292   .     A
C63    C71     1.450   .     S
C64    C66     1.473   .     S
C64    C85     1.418   .     A
C64    C81     1.403   .     A
C65    C71     1.401   .     A
C65    H100    1.083   .     S
C65    C253    1.383   .     S
C66    O119    1.299   .     A
C66    O120    1.296   .     A
C67    H105    1.083   .     S
C67    C68     1.402   .     A
C67    C437    1.383   1_545 S
C68    C69     1.401   .     A
C68    C77     1.450   .     S
C69    H106    1.083   .     S
C69    C442    1.383   1_545 S
C70    H107    1.083   .     S
C70    C71     1.401   .     A
C70    C255    1.383   .     S
C72    N114    1.377   .     A
C72    C84     1.439   .     S
C72    C135    1.415   .     S
C73    N113    1.361   .     A
C73    H108    1.083   .     S
C74    C85     1.417   .     A
C74    C641    1.418   .     S
C74    C645    1.424   .     S
C75    N113    1.368   .     A
C75    H109    1.082   .     S
C76    H110    1.082   .     S
C76    N114    1.367   .     A
C76    C137    1.418   .     S
C77    O122    1.292   .     A
C77    O121    1.293   .     A
C78    C80     1.460   .     S
C78    O123    1.294   .     A
C78    O124    1.295   .     A
C79    C92     1.392   .     A
C79    C646    1.403   1_554 S
C79    H670    1.084   1_554 S
C80    C91     1.395   .     A
C80    C92     1.398   .     A
C81    C82     1.396   .     A
C81    H97     1.082   .     S
C82    C641    1.399   .     S
C82    N674    1.428   .     S
C83    H98     1.077   .     S
C83    C640    1.399   1_554 S
C83    C632    1.418   1_554 S
C84    N115    1.158   .     T
C85    C90     1.413   .     A
C86    H103    1.109   .     S
C86    H660    1.111   .     S
C86    H166    1.111   .     S
C86    N736    1.448   .     S
C87    C91     1.402   .     A
C87    C632    1.424   1_554 S
C87    C646    1.420   1_554 S
C88    C89     1.391   .     A
C88    C637    1.403   .     S
C88    C645    1.420   .     S
C89    H111    1.084   .     S
C89    C90     1.386   .     A
C90    H99     1.080   .     S
C91    H96     1.077   .     S
C92    H95     1.083   .     S
Cu93   O123    1.944   .     S
Cu93   O119    1.955   .     S
Cu93   O117    1.964   .     S
Cu93   Cu94    2.681   .     S
Cu93   N113    2.015   .     S
Cu93   O121    1.965   .     S
Cu94   O120    1.944   .     S
Cu94   O124    1.955   .     S
Cu94   O118    1.965   .     S
Cu94   O122    1.964   .     S
Cu94   N114    2.014   .     S
H101   N116    1.032   .     S
H102   C644    1.111   1_554 S
H112   C637    1.084   .     S
N116   C640    1.428   1_554 S
N116   C582    1.448   1_554 S
C125   O180    1.293   .     A
C125   O179    1.292   .     A
C125   C133    1.450   .     S
C126   C128    1.473   .     S
C126   C147    1.418   .     A
C126   C143    1.403   .     A
C127   C133    1.401   .     A
C127   H162    1.083   .     S
C127   C315    1.383   .     S
C128   O181    1.299   .     A
C128   O182    1.296   .     A
C129   H167    1.083   .     S
C129   C130    1.402   .     A
C129   C499    1.383   1_545 S
C130   C131    1.401   .     A
C130   C139    1.450   .     S
C131   H168    1.083   .     S
C131   C504    1.383   1_545 S
C132   H169    1.083   .     S
C132   C133    1.401   .     A
C132   C317    1.383   .     S
C134   N176    1.377   .     A
C134   C146    1.439   .     S
C134   C11     1.415   1_655 S
C135   N175    1.361   .     A
C135   H170    1.083   .     S
C136   C147    1.417   .     A
C136   C703    1.418   .     S
C136   C707    1.424   .     S
C137   N175    1.368   .     A
C137   H171    1.082   .     S
C138   H172    1.082   .     S
C138   N176    1.367   .     A
C138   C13     1.418   1_655 S
C139   O184    1.292   .     A
C139   O183    1.293   .     A
C140   C142    1.460   .     S
C140   O185    1.294   .     A
C140   O186    1.295   .     A
C141   C154    1.392   .     A
C141   C708    1.403   1_554 S
C141   H732    1.084   1_554 S
C142   C153    1.395   .     A
C142   C154    1.398   .     A
C143   C144    1.396   .     A
C143   H159    1.082   .     S
C144   C703    1.399   .     S
C144   N736    1.428   .     S
C145   H160    1.077   .     S
C145   C702    1.399   1_554 S
C145   C694    1.418   1_554 S
C146   N177    1.158   .     T
C147   C152    1.413   .     A
C148   H165    1.109   .     S
C148   H722    1.111   .     S
C148   H42     1.111   1_655 S
C148   N612    1.448   1_655 S
C149   C153    1.402   .     A
C149   C694    1.424   1_554 S
C149   C708    1.420   1_554 S
C150   C151    1.391   .     A
C150   C699    1.403   .     S
C150   C707    1.420   .     S
C151   H173    1.084   .     S
C151   C152    1.386   .     A
C152   H161    1.080   .     S
C153   H158    1.077   .     S
C154   H157    1.083   .     S
Cu155  O185    1.944   .     S
Cu155  O181    1.955   .     S
Cu155  O179    1.964   .     S
Cu155  Cu156   2.681   .     S
Cu155  N175    2.015   .     S
Cu155  O183    1.965   .     S
Cu156  O182    1.944   .     S
Cu156  O186    1.955   .     S
Cu156  O180    1.965   .     S
Cu156  O184    1.964   .     S
Cu156  N176    2.014   .     S
H163   N178    1.032   .     S
H164   C706    1.111   1_554 S
H174   C699    1.084   .     S
N178   C702    1.428   1_554 S
N178   C644    1.448   1_554 S
C187   O242    1.293   .     A
C187   O241    1.292   .     A
C187   C195    1.450   .     S
C188   C190    1.473   .     S
C188   C209    1.418   .     A
C188   C205    1.403   .     A
C189   C195    1.401   .     A
C189   H224    1.083   .     S
C189   C377    1.383   .     S
C190   O243    1.299   .     A
C190   O244    1.296   .     A
C191   H229    1.083   .     S
C191   C192    1.402   .     A
C192   C193    1.401   .     A
C192   C201    1.450   .     S
C193   H230    1.083   .     S
C194   H231    1.083   .     S
C194   C195    1.401   .     A
C194   C379    1.383   .     S
C196   N238    1.377   .     A
C196   C208    1.439   .     S
C196   C259    1.415   .     S
C197   N237    1.361   .     A
C197   H232    1.083   .     S
C197   C320    1.415   1_455 S
C198   C209    1.417   .     A
C198   C765    1.418   .     S
C198   C769    1.424   .     S
C199   N237    1.368   .     A
C199   H233    1.082   .     S
C199   C324    1.418   1_455 S
C200   H234    1.082   .     S
C200   N238    1.367   .     A
C200   C261    1.418   .     S
C201   O246    1.292   .     A
C201   O245    1.293   .     A
C202   C204    1.460   .     S
C202   O247    1.294   .     A
C202   O248    1.295   .     A
C203   C216    1.392   .     A
C203   C770    1.403   1_554 S
C203   H794    1.084   1_554 S
C204   C215    1.395   .     A
C204   C216    1.398   .     A
C205   C206    1.396   .     A
C205   H221    1.082   .     S
C206   C765    1.399   .     S
C206   N798    1.428   .     S
C207   H222    1.077   .     S
C207   C764    1.399   1_554 S
C207   C756    1.418   1_554 S
C208   N239    1.158   .     T
C209   C214    1.413   .     A
C210   H227    1.109   .     S
C210   H784    1.111   .     S
C210   H290    1.111   .     S
C210   N860    1.448   .     S
C211   C215    1.402   .     A
C211   C756    1.424   1_554 S
C211   C770    1.420   1_554 S
C212   C213    1.391   .     A
C212   C761    1.403   .     S
C212   C769    1.420   .     S
C213   H235    1.084   .     S
C213   C214    1.386   .     A
C214   H223    1.080   .     S
C215   H220    1.077   .     S
C216   H219    1.083   .     S
Cu217  O247    1.944   .     S
Cu217  O243    1.955   .     S
Cu217  O241    1.964   .     S
Cu217  Cu218   2.681   .     S
Cu217  N237    2.015   .     S
Cu217  O245    1.965   .     S
Cu218  O244    1.944   .     S
Cu218  O248    1.955   .     S
Cu218  O242    1.965   .     S
Cu218  O246    1.964   .     S
Cu218  N238    2.014   .     S
H225   N240    1.032   .     S
H226   C768    1.111   1_554 S
H228   C334    1.111   1_455 S
H236   C761    1.084   .     S
N240   C764    1.428   1_554 S
N240   C892    1.448   1_454 S
C249   O304    1.293   .     A
C249   O303    1.292   .     A
C249   C257    1.450   .     S
C250   C252    1.473   .     S
C250   C271    1.418   .     A
C250   C267    1.403   .     A
C251   C257    1.401   .     A
C251   H286    1.083   .     S
C251   C439    1.383   .     S
C252   O305    1.299   .     A
C252   O306    1.296   .     A
C253   H291    1.083   .     S
C253   C254    1.402   .     A
C254   C255    1.401   .     A
C254   C263    1.450   .     S
C255   H292    1.083   .     S
C256   H293    1.083   .     S
C256   C257    1.401   .     A
C256   C441    1.383   .     S
C258   N300    1.377   .     A
C258   C270    1.439   .     S
C258   C321    1.415   .     S
C259   N299    1.361   .     A
C259   H294    1.083   .     S
C260   C271    1.417   .     A
C260   C827    1.418   .     S
C260   C831    1.424   .     S
C261   N299    1.368   .     A
C261   H295    1.082   .     S
C262   H296    1.082   .     S
C262   N300    1.367   .     A
C262   C323    1.418   .     S
C263   O308    1.292   .     A
C263   O307    1.293   .     A
C264   C266    1.460   .     S
C264   O309    1.294   .     A
C264   O310    1.295   .     A
C265   C278    1.392   .     A
C265   C832    1.403   1_554 S
C265   H856    1.084   1_554 S
C266   C277    1.395   .     A
C266   C278    1.398   .     A
C267   C268    1.396   .     A
C267   H283    1.082   .     S
C268   C827    1.399   .     S
C268   N860    1.428   .     S
C269   H284    1.077   .     S
C269   C826    1.399   1_554 S
C269   C818    1.418   1_554 S
C270   N301    1.158   .     T
C271   C276    1.413   .     A
C272   H289    1.109   .     S
C272   H846    1.111   .     S
C272   H352    1.111   .     S
C272   N922    1.448   .     S
C273   C277    1.402   .     A
C273   C818    1.424   1_554 S
C273   C832    1.420   1_554 S
C274   C275    1.391   .     A
C274   C823    1.403   .     S
C274   C831    1.420   .     S
C275   H297    1.084   .     S
C275   C276    1.386   .     A
C276   H285    1.080   .     S
C277   H282    1.077   .     S
C278   H281    1.083   .     S
Cu279  O309    1.944   .     S
Cu279  O305    1.955   .     S
Cu279  O303    1.964   .     S
Cu279  Cu280   2.681   .     S
Cu279  N299    2.015   .     S
Cu279  O307    1.965   .     S
Cu280  O306    1.944   .     S
Cu280  O310    1.955   .     S
Cu280  O304    1.965   .     S
Cu280  O308    1.964   .     S
Cu280  N300    2.014   .     S
H287   N302    1.032   .     S
H288   C830    1.111   1_554 S
H298   C823    1.084   .     S
N302   C826    1.428   1_554 S
N302   C768    1.448   1_554 S
C311   O366    1.293   .     A
C311   O365    1.292   .     A
C311   C319    1.450   .     S
C312   C314    1.473   .     S
C312   C333    1.418   .     A
C312   C329    1.403   .     A
C313   C319    1.401   .     A
C313   H348    1.083   .     S
C313   C501    1.383   .     S
C314   O367    1.299   .     A
C314   O368    1.296   .     A
C315   H353    1.083   .     S
C315   C316    1.402   .     A
C316   C317    1.401   .     A
C316   C325    1.450   .     S
C317   H354    1.083   .     S
C318   H355    1.083   .     S
C318   C319    1.401   .     A
C318   C503    1.383   .     S
C320   N362    1.377   .     A
C320   C332    1.439   .     S
C320   C197    1.415   1_655 S
C321   N361    1.361   .     A
C321   H356    1.083   .     S
C322   C333    1.417   .     A
C322   C889    1.418   .     S
C322   C893    1.424   .     S
C323   N361    1.368   .     A
C323   H357    1.082   .     S
C324   H358    1.082   .     S
C324   N362    1.367   .     A
C324   C199    1.418   1_655 S
C325   O370    1.292   .     A
C325   O369    1.293   .     A
C326   C328    1.460   .     S
C326   O371    1.294   .     A
C326   O372    1.295   .     A
C327   C340    1.392   .     A
C327   C894    1.403   1_554 S
C327   H918    1.084   1_554 S
C328   C339    1.395   .     A
C328   C340    1.398   .     A
C329   C330    1.396   .     A
C329   H345    1.082   .     S
C330   C889    1.399   .     S
C330   N922    1.428   .     S
C331   H346    1.077   .     S
C331   C888    1.399   1_554 S
C331   C880    1.418   1_554 S
C332   N363    1.158   .     T
C333   C338    1.413   .     A
C334   H351    1.109   .     S
C334   H908    1.111   .     S
C334   H228    1.111   1_655 S
C334   N798    1.448   1_655 S
C335   C339    1.402   .     A
C335   C880    1.424   1_554 S
C335   C894    1.420   1_554 S
C336   C337    1.391   .     A
C336   C885    1.403   .     S
C336   C893    1.420   .     S
C337   H359    1.084   .     S
C337   C338    1.386   .     A
C338   H347    1.080   .     S
C339   H344    1.077   .     S
C340   H343    1.083   .     S
Cu341  O371    1.944   .     S
Cu341  O367    1.955   .     S
Cu341  O365    1.964   .     S
Cu341  Cu342   2.681   .     S
Cu341  N361    2.015   .     S
Cu341  O369    1.965   .     S
Cu342  O368    1.944   .     S
Cu342  O372    1.955   .     S
Cu342  O366    1.965   .     S
Cu342  O370    1.964   .     S
Cu342  N362    2.014   .     S
H349   N364    1.032   .     S
H350   C892    1.111   1_554 S
H360   C885    1.084   .     S
N364   C888    1.428   1_554 S
N364   C830    1.448   1_554 S
C373   O428    1.293   .     A
C373   O427    1.292   .     A
C373   C381    1.450   .     S
C374   C376    1.473   .     S
C374   C395    1.418   .     A
C374   C391    1.403   .     A
C375   C381    1.401   .     A
C375   H410    1.083   .     S
C375   C5      1.383   1_565 S
C376   O429    1.299   .     A
C376   O430    1.296   .     A
C377   H415    1.083   .     S
C377   C378    1.402   .     A
C378   C379    1.401   .     A
C378   C387    1.450   .     S
C379   H416    1.083   .     S
C380   H417    1.083   .     S
C380   C381    1.401   .     A
C380   C7      1.383   1_565 S
C382   N424    1.377   .     A
C382   C394    1.439   .     S
C382   C445    1.415   .     S
C383   N423    1.361   .     A
C383   H418    1.083   .     S
C383   C506    1.415   1_455 S
C384   C395    1.417   .     A
C384   C951    1.418   .     S
C384   C955    1.424   .     S
C385   N423    1.368   .     A
C385   H419    1.082   .     S
C385   C510    1.418   1_455 S
C386   H420    1.082   .     S
C386   N424    1.367   .     A
C386   C447    1.418   .     S
C387   O432    1.292   .     A
C387   O431    1.293   .     A
C388   C390    1.460   .     S
C388   O433    1.294   .     A
C388   O434    1.295   .     A
C389   C402    1.392   .     A
C389   C956    1.403   1_554 S
C389   H980    1.084   1_554 S
C390   C401    1.395   .     A
C390   C402    1.398   .     A
C391   C392    1.396   .     A
C391   H407    1.082   .     S
C392   C951    1.399   .     S
C392   N984    1.428   .     S
C393   H408    1.077   .     S
C393   C950    1.399   1_554 S
C393   C942    1.418   1_554 S
C394   N425    1.158   .     T
C395   C400    1.413   .     A
C396   H413    1.109   .     S
C396   H970    1.111   .     S
C396   H476    1.111   .     S
C396   N1046   1.448   .     S
C397   C401    1.402   .     A
C397   C942    1.424   1_554 S
C397   C956    1.420   1_554 S
C398   C399    1.391   .     A
C398   C947    1.403   .     S
C398   C955    1.420   .     S
C399   H421    1.084   .     S
C399   C400    1.386   .     A
C400   H409    1.080   .     S
C401   H406    1.077   .     S
C402   H405    1.083   .     S
Cu403  O433    1.944   .     S
Cu403  O429    1.955   .     S
Cu403  O427    1.964   .     S
Cu403  Cu404   2.681   .     S
Cu403  N423    2.015   .     S
Cu403  O431    1.965   .     S
Cu404  O430    1.944   .     S
Cu404  O434    1.955   .     S
Cu404  O428    1.965   .     S
Cu404  O432    1.964   .     S
Cu404  N424    2.014   .     S
H411   N426    1.032   .     S
H412   C954    1.111   1_554 S
H414   C520    1.111   1_455 S
H422   C947    1.084   .     S
N426   C950    1.428   1_554 S
N426   C1078   1.448   1_454 S
C435   O490    1.293   .     A
C435   O489    1.292   .     A
C435   C443    1.450   .     S
C436   C438    1.473   .     S
C436   C457    1.418   .     A
C436   C453    1.403   .     A
C437   C443    1.401   .     A
C437   H472    1.083   .     S
C437   C67     1.383   1_565 S
C438   O491    1.299   .     A
C438   O492    1.296   .     A
C439   H477    1.083   .     S
C439   C440    1.402   .     A
C440   C441    1.401   .     A
C440   C449    1.450   .     S
C441   H478    1.083   .     S
C442   H479    1.083   .     S
C442   C443    1.401   .     A
C442   C69     1.383   1_565 S
C444   N486    1.377   .     A
C444   C456    1.439   .     S
C444   C507    1.415   .     S
C445   N485    1.361   .     A
C445   H480    1.083   .     S
C446   C457    1.417   .     A
C446   C1013   1.418   .     S
C446   C1017   1.424   .     S
C447   N485    1.368   .     A
C447   H481    1.082   .     S
C448   H482    1.082   .     S
C448   N486    1.367   .     A
C448   C509    1.418   .     S
C449   O494    1.292   .     A
C449   O493    1.293   .     A
C450   C452    1.460   .     S
C450   O495    1.294   .     A
C450   O496    1.295   .     A
C451   C464    1.392   .     A
C451   C1018   1.403   1_554 S
C451   H1042   1.084   1_554 S
C452   C463    1.395   .     A
C452   C464    1.398   .     A
C453   C454    1.396   .     A
C453   H469    1.082   .     S
C454   C1013   1.399   .     S
C454   N1046   1.428   .     S
C455   H470    1.077   .     S
C455   C1012   1.399   1_554 S
C455   C1004   1.418   1_554 S
C456   N487    1.158   .     T
C457   C462    1.413   .     A
C458   H475    1.109   .     S
C458   H1032   1.111   .     S
C458   H538    1.111   .     S
C458   N1108   1.448   .     S
C459   C463    1.402   .     A
C459   C1004   1.424   1_554 S
C459   C1018   1.420   1_554 S
C460   C461    1.391   .     A
C460   C1009   1.403   .     S
C460   C1017   1.420   .     S
C461   H483    1.084   .     S
C461   C462    1.386   .     A
C462   H471    1.080   .     S
C463   H468    1.077   .     S
C464   H467    1.083   .     S
Cu465  O495    1.944   .     S
Cu465  O491    1.955   .     S
Cu465  O489    1.964   .     S
Cu465  Cu466   2.681   .     S
Cu465  N485    2.015   .     S
Cu465  O493    1.965   .     S
Cu466  O492    1.944   .     S
Cu466  O496    1.955   .     S
Cu466  O490    1.965   .     S
Cu466  O494    1.964   .     S
Cu466  N486    2.014   .     S
H473   N488    1.032   .     S
H474   C1016   1.111   1_554 S
H484   C1009   1.084   .     S
N488   C1012   1.428   1_554 S
N488   C954    1.448   1_554 S
C497   O552    1.293   .     A
C497   O551    1.292   .     A
C497   C505    1.450   .     S
C498   C500    1.473   .     S
C498   C519    1.418   .     A
C498   C515    1.403   .     A
C499   C505    1.401   .     A
C499   H534    1.083   .     S
C499   C129    1.383   1_565 S
C500   O553    1.299   .     A
C500   O554    1.296   .     A
C501   H539    1.083   .     S
C501   C502    1.402   .     A
C502   C503    1.401   .     A
C502   C511    1.450   .     S
C503   H540    1.083   .     S
C504   H541    1.083   .     S
C504   C505    1.401   .     A
C504   C131    1.383   1_565 S
C506   N548    1.377   .     A
C506   C518    1.439   .     S
C506   C383    1.415   1_655 S
C507   N547    1.361   .     A
C507   H542    1.083   .     S
C508   C519    1.417   .     A
C508   C1075   1.418   .     S
C508   C1079   1.424   .     S
C509   N547    1.368   .     A
C509   H543    1.082   .     S
C510   H544    1.082   .     S
C510   N548    1.367   .     A
C510   C385    1.418   1_655 S
C511   O556    1.292   .     A
C511   O555    1.293   .     A
C512   C514    1.460   .     S
C512   O557    1.294   .     A
C512   O558    1.295   .     A
C513   C526    1.392   .     A
C513   C1080   1.403   1_554 S
C513   H1104   1.084   1_554 S
C514   C525    1.395   .     A
C514   C526    1.398   .     A
C515   C516    1.396   .     A
C515   H531    1.082   .     S
C516   C1075   1.399   .     S
C516   N1108   1.428   .     S
C517   H532    1.077   .     S
C517   C1074   1.399   1_554 S
C517   C1066   1.418   1_554 S
C518   N549    1.158   .     T
C519   C524    1.413   .     A
C520   H537    1.109   .     S
C520   H1094   1.111   .     S
C520   H414    1.111   1_655 S
C520   N984    1.448   1_655 S
C521   C525    1.402   .     A
C521   C1066   1.424   1_554 S
C521   C1080   1.420   1_554 S
C522   C523    1.391   .     A
C522   C1071   1.403   .     S
C522   C1079   1.420   .     S
C523   H545    1.084   .     S
C523   C524    1.386   .     A
C524   H533    1.080   .     S
C525   H530    1.077   .     S
C526   H529    1.083   .     S
Cu527  O557    1.944   .     S
Cu527  O553    1.955   .     S
Cu527  O551    1.964   .     S
Cu527  Cu528   2.681   .     S
Cu527  N547    2.015   .     S
Cu527  O555    1.965   .     S
Cu528  O554    1.944   .     S
Cu528  O558    1.955   .     S
Cu528  O552    1.965   .     S
Cu528  O556    1.964   .     S
Cu528  N548    2.014   .     S
H535   N550    1.032   .     S
H536   C1078   1.111   1_554 S
H546   C1071   1.084   .     S
N550   C1074   1.428   1_554 S
N550   C1016   1.448   1_554 S
C559   O614    1.293   .     A
C559   O613    1.292   .     A
C559   C567    1.450   .     S
C560   C562    1.473   .     S
C560   C581    1.418   .     A
C560   C577    1.403   .     A
C561   C567    1.401   .     A
C561   H596    1.083   .     S
C561   C749    1.383   .     S
C562   O615    1.299   .     A
C562   O616    1.296   .     A
C563   H601    1.083   .     S
C563   C564    1.402   .     A
C563   C933    1.383   1_545 S
C564   C565    1.401   .     A
C564   C573    1.450   .     S
C565   H602    1.083   .     S
C565   C938    1.383   1_545 S
C566   H603    1.083   .     S
C566   C567    1.401   .     A
C566   C751    1.383   .     S
C568   N610    1.377   .     A
C568   C580    1.439   .     S
C568   C631    1.415   .     S
C569   N609    1.361   .     A
C569   H604    1.083   .     S
C569   C692    1.415   1_455 S
C570   C581    1.417   .     A
C570   C21     1.418   1_556 S
C570   C25     1.424   1_556 S
C571   N609    1.368   .     A
C571   H605    1.082   .     S
C571   C696    1.418   1_455 S
C572   H606    1.082   .     S
C572   N610    1.367   .     A
C572   C633    1.418   .     S
C573   O618    1.292   .     A
C573   O617    1.293   .     A
C574   C576    1.460   .     S
C574   O619    1.294   .     A
C574   O620    1.295   .     A
C575   C588    1.392   .     A
C576   C587    1.395   .     A
C576   C588    1.398   .     A
C577   C578    1.396   .     A
C577   H593    1.082   .     S
C578   C21     1.399   1_556 S
C578   N54     1.428   1_556 S
C579   H594    1.077   .     S
C580   N611    1.158   .     T
C581   C586    1.413   .     A
C582   H599    1.109   .     S
C582   H40     1.111   1_556 S
C582   H662    1.111   .     S
C582   N116    1.448   1_556 S
C583   C587    1.402   .     A
C584   C585    1.391   .     A
C584   C17     1.403   1_556 S
C584   C25     1.420   1_556 S
C585   H607    1.084   .     S
C585   C586    1.386   .     A
C586   H595    1.080   .     S
C587   H592    1.077   .     S
C588   H591    1.083   .     S
Cu589  O619    1.944   .     S
Cu589  O615    1.955   .     S
Cu589  O613    1.964   .     S
Cu589  Cu590   2.681   .     S
Cu589  N609    2.015   .     S
Cu589  O617    1.965   .     S
Cu590  O616    1.944   .     S
Cu590  O620    1.955   .     S
Cu590  O614    1.965   .     S
Cu590  O618    1.964   .     S
Cu590  N610    2.014   .     S
H597   N612    1.032   .     S
H600   C706    1.111   1_455 S
H608   C17     1.084   1_556 S
N612   C148    1.448   1_455 S
C621   O676    1.293   .     A
C621   O675    1.292   .     A
C621   C629    1.450   .     S
C622   C624    1.473   .     S
C622   C643    1.418   .     A
C622   C639    1.403   .     A
C623   C629    1.401   .     A
C623   H658    1.083   .     S
C623   C811    1.383   .     S
C624   O677    1.299   .     A
C624   O678    1.296   .     A
C625   H663    1.083   .     S
C625   C626    1.402   .     A
C625   C995    1.383   1_545 S
C626   C627    1.401   .     A
C626   C635    1.450   .     S
C627   H664    1.083   .     S
C627   C1000   1.383   1_545 S
C628   H665    1.083   .     S
C628   C629    1.401   .     A
C628   C813    1.383   .     S
C630   N672    1.377   .     A
C630   C642    1.439   .     S
C630   C693    1.415   .     S
C631   N671    1.361   .     A
C631   H666    1.083   .     S
C632   C643    1.417   .     A
C632   C83     1.418   1_556 S
C632   C87     1.424   1_556 S
C633   N671    1.368   .     A
C633   H667    1.082   .     S
C634   H668    1.082   .     S
C634   N672    1.367   .     A
C634   C695    1.418   .     S
C635   O680    1.292   .     A
C635   O679    1.293   .     A
C636   C638    1.460   .     S
C636   O681    1.294   .     A
C636   O682    1.295   .     A
C637   C650    1.392   .     A
C638   C649    1.395   .     A
C638   C650    1.398   .     A
C639   C640    1.396   .     A
C639   H655    1.082   .     S
C640   C83     1.399   1_556 S
C640   N116    1.428   1_556 S
C641   H656    1.077   .     S
C642   N673    1.158   .     T
C643   C648    1.413   .     A
C644   H661    1.109   .     S
C644   H102    1.111   1_556 S
C644   H724    1.111   .     S
C644   N178    1.448   1_556 S
C645   C649    1.402   .     A
C646   C647    1.391   .     A
C646   C79     1.403   1_556 S
C646   C87     1.420   1_556 S
C647   H669    1.084   .     S
C647   C648    1.386   .     A
C648   H657    1.080   .     S
C649   H654    1.077   .     S
C650   H653    1.083   .     S
Cu651  O681    1.944   .     S
Cu651  O677    1.955   .     S
Cu651  O675    1.964   .     S
Cu651  Cu652   2.681   .     S
Cu651  N671    2.015   .     S
Cu651  O679    1.965   .     S
Cu652  O678    1.944   .     S
Cu652  O682    1.955   .     S
Cu652  O676    1.965   .     S
Cu652  O680    1.964   .     S
Cu652  N672    2.014   .     S
H659   N674    1.032   .     S
H670   C79     1.084   1_556 S
C683   O738    1.293   .     A
C683   O737    1.292   .     A
C683   C691    1.450   .     S
C684   C686    1.473   .     S
C684   C705    1.418   .     A
C684   C701    1.403   .     A
C685   C691    1.401   .     A
C685   H720    1.083   .     S
C685   C873    1.383   .     S
C686   O739    1.299   .     A
C686   O740    1.296   .     A
C687   H725    1.083   .     S
C687   C688    1.402   .     A
C687   C1057   1.383   1_545 S
C688   C689    1.401   .     A
C688   C697    1.450   .     S
C689   H726    1.083   .     S
C689   C1062   1.383   1_545 S
C690   H727    1.083   .     S
C690   C691    1.401   .     A
C690   C875    1.383   .     S
C692   N734    1.377   .     A
C692   C704    1.439   .     S
C692   C569    1.415   1_655 S
C693   N733    1.361   .     A
C693   H728    1.083   .     S
C694   C705    1.417   .     A
C694   C145    1.418   1_556 S
C694   C149    1.424   1_556 S
C695   N733    1.368   .     A
C695   H729    1.082   .     S
C696   H730    1.082   .     S
C696   N734    1.367   .     A
C696   C571    1.418   1_655 S
C697   O742    1.292   .     A
C697   O741    1.293   .     A
C698   C700    1.460   .     S
C698   O743    1.294   .     A
C698   O744    1.295   .     A
C699   C712    1.392   .     A
C700   C711    1.395   .     A
C700   C712    1.398   .     A
C701   C702    1.396   .     A
C701   H717    1.082   .     S
C702   C145    1.399   1_556 S
C702   N178    1.428   1_556 S
C703   H718    1.077   .     S
C704   N735    1.158   .     T
C705   C710    1.413   .     A
C706   H723    1.109   .     S
C706   H164    1.111   1_556 S
C706   H600    1.111   1_655 S
C706   N54     1.448   1_656 S
C707   C711    1.402   .     A
C708   C709    1.391   .     A
C708   C141    1.403   1_556 S
C708   C149    1.420   1_556 S
C709   H731    1.084   .     S
C709   C710    1.386   .     A
C710   H719    1.080   .     S
C711   H716    1.077   .     S
C712   H715    1.083   .     S
Cu713  O743    1.944   .     S
Cu713  O739    1.955   .     S
Cu713  O737    1.964   .     S
Cu713  Cu714   2.681   .     S
Cu713  N733    2.015   .     S
Cu713  O741    1.965   .     S
Cu714  O740    1.944   .     S
Cu714  O744    1.955   .     S
Cu714  O738    1.965   .     S
Cu714  O742    1.964   .     S
Cu714  N734    2.014   .     S
H721   N736    1.032   .     S
H732   C141    1.084   1_556 S
C745   O800    1.293   .     A
C745   O799    1.292   .     A
C745   C753    1.450   .     S
C746   C748    1.473   .     S
C746   C767    1.418   .     A
C746   C763    1.403   .     A
C747   C753    1.401   .     A
C747   H782    1.083   .     S
C747   C935    1.383   .     S
C748   O801    1.299   .     A
C748   O802    1.296   .     A
C749   H787    1.083   .     S
C749   C750    1.402   .     A
C750   C751    1.401   .     A
C750   C759    1.450   .     S
C751   H788    1.083   .     S
C752   H789    1.083   .     S
C752   C753    1.401   .     A
C752   C937    1.383   .     S
C754   N796    1.377   .     A
C754   C766    1.439   .     S
C754   C817    1.415   .     S
C755   N795    1.361   .     A
C755   H790    1.083   .     S
C755   C878    1.415   1_455 S
C756   C767    1.417   .     A
C756   C207    1.418   1_556 S
C756   C211    1.424   1_556 S
C757   N795    1.368   .     A
C757   H791    1.082   .     S
C757   C882    1.418   1_455 S
C758   H792    1.082   .     S
C758   N796    1.367   .     A
C758   C819    1.418   .     S
C759   O804    1.292   .     A
C759   O803    1.293   .     A
C760   C762    1.460   .     S
C760   O805    1.294   .     A
C760   O806    1.295   .     A
C761   C774    1.392   .     A
C762   C773    1.395   .     A
C762   C774    1.398   .     A
C763   C764    1.396   .     A
C763   H779    1.082   .     S
C764   C207    1.399   1_556 S
C764   N240    1.428   1_556 S
C765   H780    1.077   .     S
C766   N797    1.158   .     T
C767   C772    1.413   .     A
C768   H785    1.109   .     S
C768   H226    1.111   1_556 S
C768   H848    1.111   .     S
C768   N302    1.448   1_556 S
C769   C773    1.402   .     A
C770   C771    1.391   .     A
C770   C203    1.403   1_556 S
C770   C211    1.420   1_556 S
C771   H793    1.084   .     S
C771   C772    1.386   .     A
C772   H781    1.080   .     S
C773   H778    1.077   .     S
C774   H777    1.083   .     S
Cu775  O805    1.944   .     S
Cu775  O801    1.955   .     S
Cu775  O799    1.964   .     S
Cu775  Cu776   2.681   .     S
Cu775  N795    2.015   .     S
Cu775  O803    1.965   .     S
Cu776  O802    1.944   .     S
Cu776  O806    1.955   .     S
Cu776  O800    1.965   .     S
Cu776  O804    1.964   .     S
Cu776  N796    2.014   .     S
H783   N798    1.032   .     S
H786   C892    1.111   1_455 S
H794   C203    1.084   1_556 S
N798   C334    1.448   1_455 S
C807   O862    1.293   .     A
C807   O861    1.292   .     A
C807   C815    1.450   .     S
C808   C810    1.473   .     S
C808   C829    1.418   .     A
C808   C825    1.403   .     A
C809   C815    1.401   .     A
C809   H844    1.083   .     S
C809   C997    1.383   .     S
C810   O863    1.299   .     A
C810   O864    1.296   .     A
C811   H849    1.083   .     S
C811   C812    1.402   .     A
C812   C813    1.401   .     A
C812   C821    1.450   .     S
C813   H850    1.083   .     S
C814   H851    1.083   .     S
C814   C815    1.401   .     A
C814   C999    1.383   .     S
C816   N858    1.377   .     A
C816   C828    1.439   .     S
C816   C879    1.415   .     S
C817   N857    1.361   .     A
C817   H852    1.083   .     S
C818   C829    1.417   .     A
C818   C269    1.418   1_556 S
C818   C273    1.424   1_556 S
C819   N857    1.368   .     A
C819   H853    1.082   .     S
C820   H854    1.082   .     S
C820   N858    1.367   .     A
C820   C881    1.418   .     S
C821   O866    1.292   .     A
C821   O865    1.293   .     A
C822   C824    1.460   .     S
C822   O867    1.294   .     A
C822   O868    1.295   .     A
C823   C836    1.392   .     A
C824   C835    1.395   .     A
C824   C836    1.398   .     A
C825   C826    1.396   .     A
C825   H841    1.082   .     S
C826   C269    1.399   1_556 S
C826   N302    1.428   1_556 S
C827   H842    1.077   .     S
C828   N859    1.158   .     T
C829   C834    1.413   .     A
C830   H847    1.109   .     S
C830   H288    1.111   1_556 S
C830   H910    1.111   .     S
C830   N364    1.448   1_556 S
C831   C835    1.402   .     A
C832   C833    1.391   .     A
C832   C265    1.403   1_556 S
C832   C273    1.420   1_556 S
C833   H855    1.084   .     S
C833   C834    1.386   .     A
C834   H843    1.080   .     S
C835   H840    1.077   .     S
C836   H839    1.083   .     S
Cu837  O867    1.944   .     S
Cu837  O863    1.955   .     S
Cu837  O861    1.964   .     S
Cu837  Cu838   2.681   .     S
Cu837  N857    2.015   .     S
Cu837  O865    1.965   .     S
Cu838  O864    1.944   .     S
Cu838  O868    1.955   .     S
Cu838  O862    1.965   .     S
Cu838  O866    1.964   .     S
Cu838  N858    2.014   .     S
H845   N860    1.032   .     S
H856   C265    1.084   1_556 S
C869   O924    1.293   .     A
C869   O923    1.292   .     A
C869   C877    1.450   .     S
C870   C872    1.473   .     S
C870   C891    1.418   .     A
C870   C887    1.403   .     A
C871   C877    1.401   .     A
C871   H906    1.083   .     S
C871   C1059   1.383   .     S
C872   O925    1.299   .     A
C872   O926    1.296   .     A
C873   H911    1.083   .     S
C873   C874    1.402   .     A
C874   C875    1.401   .     A
C874   C883    1.450   .     S
C875   H912    1.083   .     S
C876   H913    1.083   .     S
C876   C877    1.401   .     A
C876   C1061   1.383   .     S
C878   N920    1.377   .     A
C878   C890    1.439   .     S
C878   C755    1.415   1_655 S
C879   N919    1.361   .     A
C879   H914    1.083   .     S
C880   C891    1.417   .     A
C880   C331    1.418   1_556 S
C880   C335    1.424   1_556 S
C881   N919    1.368   .     A
C881   H915    1.082   .     S
C882   H916    1.082   .     S
C882   N920    1.367   .     A
C882   C757    1.418   1_655 S
C883   O928    1.292   .     A
C883   O927    1.293   .     A
C884   C886    1.460   .     S
C884   O929    1.294   .     A
C884   O930    1.295   .     A
C885   C898    1.392   .     A
C886   C897    1.395   .     A
C886   C898    1.398   .     A
C887   C888    1.396   .     A
C887   H903    1.082   .     S
C888   C331    1.399   1_556 S
C888   N364    1.428   1_556 S
C889   H904    1.077   .     S
C890   N921    1.158   .     T
C891   C896    1.413   .     A
C892   H909    1.109   .     S
C892   H350    1.111   1_556 S
C892   H786    1.111   1_655 S
C892   N240    1.448   1_656 S
C893   C897    1.402   .     A
C894   C895    1.391   .     A
C894   C327    1.403   1_556 S
C894   C335    1.420   1_556 S
C895   H917    1.084   .     S
C895   C896    1.386   .     A
C896   H905    1.080   .     S
C897   H902    1.077   .     S
C898   H901    1.083   .     S
Cu899  O929    1.944   .     S
Cu899  O925    1.955   .     S
Cu899  O923    1.964   .     S
Cu899  Cu900   2.681   .     S
Cu899  N919    2.015   .     S
Cu899  O927    1.965   .     S
Cu900  O926    1.944   .     S
Cu900  O930    1.955   .     S
Cu900  O924    1.965   .     S
Cu900  O928    1.964   .     S
Cu900  N920    2.014   .     S
H907   N922    1.032   .     S
H918   C327    1.084   1_556 S
C931   O986    1.293   .     A
C931   O985    1.292   .     A
C931   C939    1.450   .     S
C932   C934    1.473   .     S
C932   C953    1.418   .     A
C932   C949    1.403   .     A
C933   C939    1.401   .     A
C933   H968    1.083   .     S
C933   C563    1.383   1_565 S
C934   O987    1.299   .     A
C934   O988    1.296   .     A
C935   H973    1.083   .     S
C935   C936    1.402   .     A
C936   C937    1.401   .     A
C936   C945    1.450   .     S
C937   H974    1.083   .     S
C938   H975    1.083   .     S
C938   C939    1.401   .     A
C938   C565    1.383   1_565 S
C940   N982    1.377   .     A
C940   C952    1.439   .     S
C940   C1003   1.415   .     S
C941   N981    1.361   .     A
C941   H976    1.083   .     S
C941   C1064   1.415   1_455 S
C942   C953    1.417   .     A
C942   C393    1.418   1_556 S
C942   C397    1.424   1_556 S
C943   N981    1.368   .     A
C943   H977    1.082   .     S
C943   C1068   1.418   1_455 S
C944   H978    1.082   .     S
C944   N982    1.367   .     A
C944   C1005   1.418   .     S
C945   O990    1.292   .     A
C945   O989    1.293   .     A
C946   C948    1.460   .     S
C946   O991    1.294   .     A
C946   O992    1.295   .     A
C947   C960    1.392   .     A
C948   C959    1.395   .     A
C948   C960    1.398   .     A
C949   C950    1.396   .     A
C949   H965    1.082   .     S
C950   C393    1.399   1_556 S
C950   N426    1.428   1_556 S
C951   H966    1.077   .     S
C952   N983    1.158   .     T
C953   C958    1.413   .     A
C954   H971    1.109   .     S
C954   H412    1.111   1_556 S
C954   H1034   1.111   .     S
C954   N488    1.448   1_556 S
C955   C959    1.402   .     A
C956   C957    1.391   .     A
C956   C389    1.403   1_556 S
C956   C397    1.420   1_556 S
C957   H979    1.084   .     S
C957   C958    1.386   .     A
C958   H967    1.080   .     S
C959   H964    1.077   .     S
C960   H963    1.083   .     S
Cu961  O991    1.944   .     S
Cu961  O987    1.955   .     S
Cu961  O985    1.964   .     S
Cu961  Cu962   2.681   .     S
Cu961  N981    2.015   .     S
Cu961  O989    1.965   .     S
Cu962  O988    1.944   .     S
Cu962  O992    1.955   .     S
Cu962  O986    1.965   .     S
Cu962  O990    1.964   .     S
Cu962  N982    2.014   .     S
H969   N984    1.032   .     S
H972   C1078   1.111   1_455 S
H980   C389    1.084   1_556 S
N984   C520    1.448   1_455 S
C993   O1048   1.293   .     A
C993   O1047   1.292   .     A
C993   C1001   1.450   .     S
C994   C996    1.473   .     S
C994   C1015   1.418   .     A
C994   C1011   1.403   .     A
C995   C1001   1.401   .     A
C995   H1030   1.083   .     S
C995   C625    1.383   1_565 S
C996   O1049   1.299   .     A
C996   O1050   1.296   .     A
C997   H1035   1.083   .     S
C997   C998    1.402   .     A
C998   C999    1.401   .     A
C998   C1007   1.450   .     S
C999   H1036   1.083   .     S
C1000  H1037   1.083   .     S
C1000  C1001   1.401   .     A
C1000  C627    1.383   1_565 S
C1002  N1044   1.377   .     A
C1002  C1014   1.439   .     S
C1002  C1065   1.415   .     S
C1003  N1043   1.361   .     A
C1003  H1038   1.083   .     S
C1004  C1015   1.417   .     A
C1004  C455    1.418   1_556 S
C1004  C459    1.424   1_556 S
C1005  N1043   1.368   .     A
C1005  H1039   1.082   .     S
C1006  H1040   1.082   .     S
C1006  N1044   1.367   .     A
C1006  C1067   1.418   .     S
C1007  O1052   1.292   .     A
C1007  O1051   1.293   .     A
C1008  C1010   1.460   .     S
C1008  O1053   1.294   .     A
C1008  O1054   1.295   .     A
C1009  C1022   1.392   .     A
C1010  C1021   1.395   .     A
C1010  C1022   1.398   .     A
C1011  C1012   1.396   .     A
C1011  H1027   1.082   .     S
C1012  C455    1.399   1_556 S
C1012  N488    1.428   1_556 S
C1013  H1028   1.077   .     S
C1014  N1045   1.158   .     T
C1015  C1020   1.413   .     A
C1016  H1033   1.109   .     S
C1016  H474    1.111   1_556 S
C1016  H1096   1.111   .     S
C1016  N550    1.448   1_556 S
C1017  C1021   1.402   .     A
C1018  C1019   1.391   .     A
C1018  C451    1.403   1_556 S
C1018  C459    1.420   1_556 S
C1019  H1041   1.084   .     S
C1019  C1020   1.386   .     A
C1020  H1029   1.080   .     S
C1021  H1026   1.077   .     S
C1022  H1025   1.083   .     S
Cu1023 O1053   1.944   .     S
Cu1023 O1049   1.955   .     S
Cu1023 O1047   1.964   .     S
Cu1023 Cu1024  2.681   .     S
Cu1023 N1043   2.015   .     S
Cu1023 O1051   1.965   .     S
Cu1024 O1050   1.944   .     S
Cu1024 O1054   1.955   .     S
Cu1024 O1048   1.965   .     S
Cu1024 O1052   1.964   .     S
Cu1024 N1044   2.014   .     S
H1031  N1046   1.032   .     S
H1042  C451    1.084   1_556 S
C1055  O1110   1.293   .     A
C1055  O1109   1.292   .     A
C1055  C1063   1.450   .     S
C1056  C1058   1.473   .     S
C1056  C1077   1.418   .     A
C1056  C1073   1.403   .     A
C1057  C1063   1.401   .     A
C1057  H1092   1.083   .     S
C1057  C687    1.383   1_565 S
C1058  O1111   1.299   .     A
C1058  O1112   1.296   .     A
C1059  H1097   1.083   .     S
C1059  C1060   1.402   .     A
C1060  C1061   1.401   .     A
C1060  C1069   1.450   .     S
C1061  H1098   1.083   .     S
C1062  H1099   1.083   .     S
C1062  C1063   1.401   .     A
C1062  C689    1.383   1_565 S
C1064  N1106   1.377   .     A
C1064  C1076   1.439   .     S
C1064  C941    1.415   1_655 S
C1065  N1105   1.361   .     A
C1065  H1100   1.083   .     S
C1066  C1077   1.417   .     A
C1066  C517    1.418   1_556 S
C1066  C521    1.424   1_556 S
C1067  N1105   1.368   .     A
C1067  H1101   1.082   .     S
C1068  H1102   1.082   .     S
C1068  N1106   1.367   .     A
C1068  C943    1.418   1_655 S
C1069  O1114   1.292   .     A
C1069  O1113   1.293   .     A
C1070  C1072   1.460   .     S
C1070  O1115   1.294   .     A
C1070  O1116   1.295   .     A
C1071  C1084   1.392   .     A
C1072  C1083   1.395   .     A
C1072  C1084   1.398   .     A
C1073  C1074   1.396   .     A
C1073  H1089   1.082   .     S
C1074  C517    1.399   1_556 S
C1074  N550    1.428   1_556 S
C1075  H1090   1.077   .     S
C1076  N1107   1.158   .     T
C1077  C1082   1.413   .     A
C1078  H1095   1.109   .     S
C1078  H536    1.111   1_556 S
C1078  H972    1.111   1_655 S
C1078  N426    1.448   1_656 S
C1079  C1083   1.402   .     A
C1080  C1081   1.391   .     A
C1080  C513    1.403   1_556 S
C1080  C521    1.420   1_556 S
C1081  H1103   1.084   .     S
C1081  C1082   1.386   .     A
C1082  H1091   1.080   .     S
C1083  H1088   1.077   .     S
C1084  H1087   1.083   .     S
Cu1085 O1115   1.944   .     S
Cu1085 O1111   1.955   .     S
Cu1085 O1109   1.964   .     S
Cu1085 Cu1086  2.681   .     S
Cu1085 N1105   2.015   .     S
Cu1085 O1113   1.965   .     S
Cu1086 O1112   1.944   .     S
Cu1086 O1116   1.955   .     S
Cu1086 O1110   1.965   .     S
Cu1086 O1114   1.964   .     S
Cu1086 N1106   2.014   .     S
H1093  N1108   1.032   .     S
H1104  C513    1.084   1_556 S
