data_str_m3_o2_o10_pcu_sym.171
_audit_creation_date              2020-01-03
_audit_creation_method            'Materials Studio'
_symmetry_space_group_name_H-M    'P1'
_symmetry_Int_Tables_number       1
_symmetry_cell_setting            triclinic
loop_
_symmetry_equiv_pos_as_xyz
  x,y,z
_cell_length_a                    25.6954
_cell_length_b                    29.9761
_cell_length_c                    28.3679
_cell_angle_alpha                 90.1877
_cell_angle_beta                  99.0113
_cell_angle_gamma                 89.9605
loop_
_atom_site_label
_atom_site_type_symbol
_atom_site_fract_x
_atom_site_fract_y
_atom_site_fract_z
_atom_site_U_iso_or_equiv
_atom_site_adp_type
_atom_site_occupancy
C1     C     0.16600   0.16388   0.24984   0.00000  Uiso   1.00
C2     C     0.16625   0.33613   0.25000   0.00000  Uiso   1.00
C3     C     0.12320   0.23510   0.04630   0.00000  Uiso   1.00
C4     C     0.18785   0.28450   0.45121   0.00000  Uiso   1.00
C5     C     0.12420   0.23387   0.09602   0.00000  Uiso   1.00
C6     C     0.19077   0.28343   0.40213   0.00000  Uiso   1.00
C7     C     0.21023   0.26426   0.10873   0.00000  Uiso   1.00
C8     C     0.14303   0.21571   0.39369   0.00000  Uiso   1.00
C9     C     0.21318   0.26211   0.05885   0.00000  Uiso   1.00
C10    C     0.14427   0.21307   0.44354   0.00000  Uiso   1.00
C11    C     0.16765   0.24865   0.02695   0.00000  Uiso   1.00
C12    C     0.16629   0.24861   0.47335   0.00000  Uiso   1.00
C13    C     0.06698   0.24981   0.23746   0.00000  Uiso   1.00
C14    C     0.26636   0.24995   0.26254   0.00000  Uiso   1.00
C15    C     0.01186   0.24922   0.23076   0.00000  Uiso   1.00
C16    C     0.32149   0.25004   0.26928   0.00000  Uiso   1.00
C17    C     0.13978   0.04802   0.28560   0.00000  Uiso   1.00
C18    C     0.13849   0.45190   0.20719   0.00000  Uiso   1.00
C19    C     0.14347   0.09396   0.28637   0.00000  Uiso   1.00
C20    C     0.14243   0.40597   0.20743   0.00000  Uiso   1.00
C21    C     0.16264   0.11601   0.24920   0.00000  Uiso   1.00
C22    C     0.16320   0.38401   0.24967   0.00000  Uiso   1.00
C23    C     0.17760   0.09219   0.21103   0.00000  Uiso   1.00
C24    C     0.17992   0.40793   0.29169   0.00000  Uiso   1.00
C25    C     0.17450   0.04622   0.21055   0.00000  Uiso   1.00
C26    C     0.17670   0.45390   0.29128   0.00000  Uiso   1.00
C27    C     0.15588   0.02410   0.24798   0.00000  Uiso   1.00
C28    C     0.15613   0.47592   0.24899   0.00000  Uiso   1.00
H29    H     0.32431   0.24808   0.19434   0.00000  Uiso   1.00
H30    H     0.00903   0.25102   0.30573   0.00000  Uiso   1.00
H31    H     0.12476   0.03115   0.31439   0.00000  Uiso   1.00
H32    H     0.12201   0.46868   0.17446   0.00000  Uiso   1.00
H33    H     0.13104   0.11217   0.31574   0.00000  Uiso   1.00
H34    H     0.12887   0.38767   0.17484   0.00000  Uiso   1.00
H35    H     0.19253   0.10897   0.18212   0.00000  Uiso   1.00
H36    H     0.19631   0.39122   0.32447   0.00000  Uiso   1.00
H37    H     0.18784   0.02794   0.18168   0.00000  Uiso   1.00
H38    H     0.19135   0.47228   0.32359   0.00000  Uiso   1.00
H39    H     0.08750   0.22543   0.02300   0.00000  Uiso   1.00
H40    H     0.20322   0.31326   0.47198   0.00000  Uiso   1.00
H41    H     0.24238   0.27701   0.13414   0.00000  Uiso   1.00
H42    H     0.12435   0.18937   0.37095   0.00000  Uiso   1.00
N43    N     0.16667   0.24999   0.12624   0.00000  Uiso   1.00
N44    N     0.16667   0.25001   0.37377   0.00000  Uiso   1.00
O45    O     0.16667   0.18454   0.28974   0.00000  Uiso   1.00
O46    O     0.16666   0.31547   0.21026   0.00000  Uiso   1.00
O47    O     0.16667   0.18453   0.21026   0.00000  Uiso   1.00
O48    O     0.16666   0.31547   0.28974   0.00000  Uiso   1.00
O49    O     0.09058   0.25000   0.28045   0.00000  Uiso   1.00
O50    O     0.24275   0.25000   0.21956   0.00000  Uiso   1.00
O51    O     0.09058   0.25000   0.20097   0.00000  Uiso   1.00
O52    O     0.24275   0.25001   0.29904   0.00000  Uiso   1.00
Zn53   Zn    0.16667   0.25001   0.30307   0.00000  Uiso   1.00
Zn54   Zn    0.16667   0.25000   0.19693   0.00000  Uiso   1.00
O55    O     0.08087   0.21876   0.11444   0.00000  Uiso   1.00
C56    C     0.07720   0.17197   0.10897   0.00000  Uiso   1.00
H57    H     0.11600   0.15546   0.12085   0.00000  Uiso   1.00
H58    H     0.06303   0.16324   0.07095   0.00000  Uiso   1.00
C59    C     0.03777   0.15429   0.13950   0.00000  Uiso   1.00
H60    H     0.05145   0.16295   0.17755   0.00000  Uiso   1.00
H61    H     0.33209   0.17024   0.12817   0.00000  Uiso   1.00
C62    C     0.03179   0.10375   0.13497   0.00000  Uiso   1.00
H63    H     0.01729   0.09423   0.09733   0.00000  Uiso   1.00
H64    H     0.00294   0.09208   0.15756   0.00000  Uiso   1.00
H65    H     0.07016   0.08709   0.14709   0.00000  Uiso   1.00
O66    O     0.21742   0.31694   0.38267   0.00000  Uiso   1.00
C67    C     0.27146   0.30540   0.38633   0.00000  Uiso   1.00
H68    H     0.28535   0.31728   0.35338   0.00000  Uiso   1.00
H69    H     0.27902   0.26866   0.38829   0.00000  Uiso   1.00
C70    C     0.30441   0.32870   0.42909   0.00000  Uiso   1.00
H71    H     0.29819   0.36535   0.42616   0.00000  Uiso   1.00
H72    H     0.29206   0.31720   0.46274   0.00000  Uiso   1.00
C73    C     0.02968   0.31847   0.43144   0.00000  Uiso   1.00
H74    H     0.03686   0.28201   0.43537   0.00000  Uiso   1.00
H75    H     0.05250   0.33569   0.46275   0.00000  Uiso   1.00
H76    H     0.04386   0.33027   0.39861   0.00000  Uiso   1.00
O77    O     0.25785   0.27307   0.03870   0.00000  Uiso   1.00
C78    C     0.30545   0.27770   0.07085   0.00000  Uiso   1.00
H79    H     0.00450   0.26807   0.05111   0.00000  Uiso   1.00
H80    H     0.30902   0.25434   0.10154   0.00000  Uiso   1.00
C81    C     0.31405   0.32663   0.08595   0.00000  Uiso   1.00
H82    H     0.31514   0.34732   0.05367   0.00000  Uiso   1.00
H83    H     0.28095   0.33876   0.10344   0.00000  Uiso   1.00
C84    C     0.03223   0.33293   0.12013   0.00000  Uiso   1.00
H85    H     0.03105   0.31420   0.15358   0.00000  Uiso   1.00
H86    H     0.03780   0.36885   0.12912   0.00000  Uiso   1.00
H87    H     0.06613   0.32125   0.10342   0.00000  Uiso   1.00
O88    O     0.12211   0.17631   0.46204   0.00000  Uiso   1.00
C89    C     0.16214   0.14560   0.48010   0.00000  Uiso   1.00
H90    H     0.14826   0.12708   0.00964   0.00000  Uiso   1.00
H91    H     0.19999   0.16189   0.49588   0.00000  Uiso   1.00
C92    C     0.17152   0.11216   0.44127   0.00000  Uiso   1.00
H93    H     0.13350   0.09644   0.42569   0.00000  Uiso   1.00
H94    H     0.18770   0.12976   0.41236   0.00000  Uiso   1.00
C95    C     0.21027   0.07583   0.46138   0.00000  Uiso   1.00
H96    H     0.24884   0.09080   0.47654   0.00000  Uiso   1.00
H97    H     0.21639   0.05235   0.43238   0.00000  Uiso   1.00
H98    H     0.19457   0.05687   0.48966   0.00000  Uiso   1.00
C99    C     0.49934   0.16388   0.24984   0.00000  Uiso   1.00
C100   C     0.49958   0.33613   0.25000   0.00000  Uiso   1.00
C101   C     0.45653   0.23510   0.04630   0.00000  Uiso   1.00
C102   C     0.52118   0.28450   0.45121   0.00000  Uiso   1.00
C103   C     0.45753   0.23387   0.09602   0.00000  Uiso   1.00
C104   C     0.52410   0.28343   0.40213   0.00000  Uiso   1.00
C105   C     0.54356   0.26426   0.10873   0.00000  Uiso   1.00
C106   C     0.47636   0.21571   0.39369   0.00000  Uiso   1.00
C107   C     0.54651   0.26211   0.05885   0.00000  Uiso   1.00
C108   C     0.47761   0.21307   0.44354   0.00000  Uiso   1.00
C109   C     0.50098   0.24865   0.02695   0.00000  Uiso   1.00
C110   C     0.49962   0.24861   0.47335   0.00000  Uiso   1.00
C111   C     0.40031   0.24981   0.23746   0.00000  Uiso   1.00
C112   C     0.59969   0.24995   0.26254   0.00000  Uiso   1.00
C113   C     0.34519   0.24922   0.23076   0.00000  Uiso   1.00
C114   C     0.65482   0.25004   0.26928   0.00000  Uiso   1.00
C115   C     0.47312   0.04802   0.28560   0.00000  Uiso   1.00
C116   C     0.47183   0.45190   0.20719   0.00000  Uiso   1.00
C117   C     0.47680   0.09396   0.28637   0.00000  Uiso   1.00
C118   C     0.47576   0.40597   0.20743   0.00000  Uiso   1.00
C119   C     0.49598   0.11601   0.24920   0.00000  Uiso   1.00
C120   C     0.49653   0.38401   0.24967   0.00000  Uiso   1.00
C121   C     0.51093   0.09219   0.21103   0.00000  Uiso   1.00
C122   C     0.51325   0.40793   0.29169   0.00000  Uiso   1.00
C123   C     0.50783   0.04622   0.21055   0.00000  Uiso   1.00
C124   C     0.51003   0.45390   0.29128   0.00000  Uiso   1.00
C125   C     0.48921   0.02410   0.24798   0.00000  Uiso   1.00
C126   C     0.48946   0.47592   0.24899   0.00000  Uiso   1.00
H127   H     0.65764   0.24808   0.19434   0.00000  Uiso   1.00
H128   H     0.34237   0.25102   0.30573   0.00000  Uiso   1.00
H129   H     0.45809   0.03115   0.31439   0.00000  Uiso   1.00
H130   H     0.45534   0.46868   0.17446   0.00000  Uiso   1.00
H131   H     0.46437   0.11217   0.31574   0.00000  Uiso   1.00
H132   H     0.46220   0.38767   0.17484   0.00000  Uiso   1.00
H133   H     0.52586   0.10897   0.18212   0.00000  Uiso   1.00
H134   H     0.52964   0.39122   0.32447   0.00000  Uiso   1.00
H135   H     0.52117   0.02794   0.18168   0.00000  Uiso   1.00
H136   H     0.52468   0.47228   0.32359   0.00000  Uiso   1.00
H137   H     0.42083   0.22543   0.02300   0.00000  Uiso   1.00
H138   H     0.53655   0.31326   0.47198   0.00000  Uiso   1.00
H139   H     0.57571   0.27701   0.13414   0.00000  Uiso   1.00
H140   H     0.45768   0.18937   0.37095   0.00000  Uiso   1.00
N141   N     0.50000   0.24999   0.12624   0.00000  Uiso   1.00
N142   N     0.50000   0.25001   0.37377   0.00000  Uiso   1.00
O143   O     0.50000   0.18454   0.28974   0.00000  Uiso   1.00
O144   O     0.50000   0.31547   0.21026   0.00000  Uiso   1.00
O145   O     0.50000   0.18453   0.21026   0.00000  Uiso   1.00
O146   O     0.50000   0.31547   0.28974   0.00000  Uiso   1.00
O147   O     0.42392   0.25000   0.28045   0.00000  Uiso   1.00
O148   O     0.57608   0.25000   0.21956   0.00000  Uiso   1.00
O149   O     0.42392   0.25000   0.20097   0.00000  Uiso   1.00
O150   O     0.57608   0.25001   0.29904   0.00000  Uiso   1.00
Zn151  Zn    0.50000   0.25001   0.30307   0.00000  Uiso   1.00
Zn152  Zn    0.50000   0.25000   0.19693   0.00000  Uiso   1.00
O153   O     0.41420   0.21876   0.11444   0.00000  Uiso   1.00
C154   C     0.41054   0.17197   0.10897   0.00000  Uiso   1.00
H155   H     0.44933   0.15546   0.12085   0.00000  Uiso   1.00
H156   H     0.39636   0.16324   0.07095   0.00000  Uiso   1.00
C157   C     0.37110   0.15429   0.13950   0.00000  Uiso   1.00
H158   H     0.38478   0.16295   0.17755   0.00000  Uiso   1.00
H159   H     0.66542   0.17024   0.12817   0.00000  Uiso   1.00
C160   C     0.36512   0.10375   0.13497   0.00000  Uiso   1.00
H161   H     0.35062   0.09423   0.09733   0.00000  Uiso   1.00
H162   H     0.33627   0.09208   0.15756   0.00000  Uiso   1.00
H163   H     0.40349   0.08709   0.14709   0.00000  Uiso   1.00
O164   O     0.55075   0.31694   0.38267   0.00000  Uiso   1.00
C165   C     0.60480   0.30540   0.38633   0.00000  Uiso   1.00
H166   H     0.61869   0.31728   0.35338   0.00000  Uiso   1.00
H167   H     0.61236   0.26866   0.38829   0.00000  Uiso   1.00
C168   C     0.63774   0.32870   0.42909   0.00000  Uiso   1.00
H169   H     0.63153   0.36535   0.42616   0.00000  Uiso   1.00
H170   H     0.62539   0.31720   0.46274   0.00000  Uiso   1.00
C171   C     0.36302   0.31847   0.43144   0.00000  Uiso   1.00
H172   H     0.37019   0.28201   0.43537   0.00000  Uiso   1.00
H173   H     0.38583   0.33569   0.46275   0.00000  Uiso   1.00
H174   H     0.37719   0.33027   0.39861   0.00000  Uiso   1.00
O175   O     0.59118   0.27307   0.03870   0.00000  Uiso   1.00
C176   C     0.63878   0.27770   0.07085   0.00000  Uiso   1.00
H177   H     0.33784   0.26807   0.05111   0.00000  Uiso   1.00
H178   H     0.64235   0.25434   0.10154   0.00000  Uiso   1.00
C179   C     0.64738   0.32663   0.08595   0.00000  Uiso   1.00
H180   H     0.64848   0.34732   0.05367   0.00000  Uiso   1.00
H181   H     0.61428   0.33876   0.10344   0.00000  Uiso   1.00
C182   C     0.36556   0.33293   0.12013   0.00000  Uiso   1.00
H183   H     0.36439   0.31420   0.15358   0.00000  Uiso   1.00
H184   H     0.37113   0.36885   0.12912   0.00000  Uiso   1.00
H185   H     0.39946   0.32125   0.10342   0.00000  Uiso   1.00
O186   O     0.45544   0.17631   0.46204   0.00000  Uiso   1.00
C187   C     0.49548   0.14560   0.48010   0.00000  Uiso   1.00
H188   H     0.48159   0.12708   0.00964   0.00000  Uiso   1.00
H189   H     0.53332   0.16189   0.49588   0.00000  Uiso   1.00
C190   C     0.50485   0.11216   0.44127   0.00000  Uiso   1.00
H191   H     0.46684   0.09644   0.42569   0.00000  Uiso   1.00
H192   H     0.52104   0.12976   0.41236   0.00000  Uiso   1.00
C193   C     0.54361   0.07583   0.46138   0.00000  Uiso   1.00
H194   H     0.58217   0.09080   0.47654   0.00000  Uiso   1.00
H195   H     0.54972   0.05235   0.43238   0.00000  Uiso   1.00
H196   H     0.52791   0.05687   0.48966   0.00000  Uiso   1.00
C197   C     0.83267   0.16388   0.24984   0.00000  Uiso   1.00
C198   C     0.83292   0.33613   0.25000   0.00000  Uiso   1.00
C199   C     0.78987   0.23510   0.04630   0.00000  Uiso   1.00
C200   C     0.85452   0.28450   0.45121   0.00000  Uiso   1.00
C201   C     0.79087   0.23387   0.09602   0.00000  Uiso   1.00
C202   C     0.85744   0.28343   0.40213   0.00000  Uiso   1.00
C203   C     0.87689   0.26426   0.10873   0.00000  Uiso   1.00
C204   C     0.80970   0.21571   0.39369   0.00000  Uiso   1.00
C205   C     0.87985   0.26211   0.05885   0.00000  Uiso   1.00
C206   C     0.81094   0.21307   0.44354   0.00000  Uiso   1.00
C207   C     0.83432   0.24865   0.02695   0.00000  Uiso   1.00
C208   C     0.83295   0.24861   0.47335   0.00000  Uiso   1.00
C209   C     0.73364   0.24981   0.23746   0.00000  Uiso   1.00
C210   C     0.93303   0.24995   0.26254   0.00000  Uiso   1.00
C211   C     0.67852   0.24922   0.23076   0.00000  Uiso   1.00
C212   C     0.98815   0.25004   0.26928   0.00000  Uiso   1.00
C213   C     0.80645   0.04802   0.28560   0.00000  Uiso   1.00
C214   C     0.80516   0.45190   0.20719   0.00000  Uiso   1.00
C215   C     0.81013   0.09396   0.28637   0.00000  Uiso   1.00
C216   C     0.80909   0.40597   0.20743   0.00000  Uiso   1.00
C217   C     0.82931   0.11601   0.24920   0.00000  Uiso   1.00
C218   C     0.82987   0.38401   0.24967   0.00000  Uiso   1.00
C219   C     0.84426   0.09219   0.21103   0.00000  Uiso   1.00
C220   C     0.84659   0.40793   0.29169   0.00000  Uiso   1.00
C221   C     0.84116   0.04622   0.21055   0.00000  Uiso   1.00
C222   C     0.84337   0.45390   0.29128   0.00000  Uiso   1.00
C223   C     0.82254   0.02410   0.24798   0.00000  Uiso   1.00
C224   C     0.82280   0.47592   0.24899   0.00000  Uiso   1.00
H225   H     0.99098   0.24808   0.19434   0.00000  Uiso   1.00
H226   H     0.67570   0.25102   0.30573   0.00000  Uiso   1.00
H227   H     0.79143   0.03115   0.31439   0.00000  Uiso   1.00
H228   H     0.78868   0.46868   0.17446   0.00000  Uiso   1.00
H229   H     0.79770   0.11217   0.31574   0.00000  Uiso   1.00
H230   H     0.79553   0.38767   0.17484   0.00000  Uiso   1.00
H231   H     0.85919   0.10897   0.18212   0.00000  Uiso   1.00
H232   H     0.86297   0.39122   0.32447   0.00000  Uiso   1.00
H233   H     0.85451   0.02794   0.18168   0.00000  Uiso   1.00
H234   H     0.85801   0.47228   0.32359   0.00000  Uiso   1.00
H235   H     0.75417   0.22543   0.02300   0.00000  Uiso   1.00
H236   H     0.86989   0.31326   0.47198   0.00000  Uiso   1.00
H237   H     0.90904   0.27701   0.13414   0.00000  Uiso   1.00
H238   H     0.79102   0.18937   0.37095   0.00000  Uiso   1.00
N239   N     0.83333   0.24999   0.12624   0.00000  Uiso   1.00
N240   N     0.83333   0.25001   0.37377   0.00000  Uiso   1.00
O241   O     0.83334   0.18454   0.28974   0.00000  Uiso   1.00
O242   O     0.83333   0.31547   0.21026   0.00000  Uiso   1.00
O243   O     0.83334   0.18453   0.21026   0.00000  Uiso   1.00
O244   O     0.83333   0.31547   0.28974   0.00000  Uiso   1.00
O245   O     0.75725   0.25000   0.28045   0.00000  Uiso   1.00
O246   O     0.90942   0.25000   0.21956   0.00000  Uiso   1.00
O247   O     0.75725   0.25000   0.20097   0.00000  Uiso   1.00
O248   O     0.90942   0.25001   0.29904   0.00000  Uiso   1.00
Zn249  Zn    0.83333   0.25001   0.30307   0.00000  Uiso   1.00
Zn250  Zn    0.83333   0.25000   0.19693   0.00000  Uiso   1.00
O251   O     0.74753   0.21876   0.11444   0.00000  Uiso   1.00
C252   C     0.74387   0.17197   0.10897   0.00000  Uiso   1.00
H253   H     0.78266   0.15546   0.12085   0.00000  Uiso   1.00
H254   H     0.72969   0.16324   0.07095   0.00000  Uiso   1.00
C255   C     0.70443   0.15429   0.13950   0.00000  Uiso   1.00
H256   H     0.71811   0.16295   0.17755   0.00000  Uiso   1.00
H257   H     0.99875   0.17024   0.12817   0.00000  Uiso   1.00
C258   C     0.69846   0.10375   0.13497   0.00000  Uiso   1.00
H259   H     0.68396   0.09423   0.09733   0.00000  Uiso   1.00
H260   H     0.66961   0.09208   0.15756   0.00000  Uiso   1.00
H261   H     0.73683   0.08709   0.14709   0.00000  Uiso   1.00
O262   O     0.88409   0.31694   0.38267   0.00000  Uiso   1.00
C263   C     0.93813   0.30540   0.38633   0.00000  Uiso   1.00
H264   H     0.95202   0.31728   0.35338   0.00000  Uiso   1.00
H265   H     0.94569   0.26866   0.38829   0.00000  Uiso   1.00
C266   C     0.97108   0.32870   0.42909   0.00000  Uiso   1.00
H267   H     0.96486   0.36535   0.42616   0.00000  Uiso   1.00
H268   H     0.95873   0.31720   0.46274   0.00000  Uiso   1.00
C269   C     0.69635   0.31847   0.43144   0.00000  Uiso   1.00
H270   H     0.70352   0.28201   0.43537   0.00000  Uiso   1.00
H271   H     0.71916   0.33569   0.46275   0.00000  Uiso   1.00
H272   H     0.71053   0.33027   0.39861   0.00000  Uiso   1.00
O273   O     0.92451   0.27307   0.03870   0.00000  Uiso   1.00
C274   C     0.97212   0.27770   0.07085   0.00000  Uiso   1.00
H275   H     0.67117   0.26807   0.05111   0.00000  Uiso   1.00
H276   H     0.97569   0.25434   0.10154   0.00000  Uiso   1.00
C277   C     0.98072   0.32663   0.08595   0.00000  Uiso   1.00
H278   H     0.98181   0.34732   0.05367   0.00000  Uiso   1.00
H279   H     0.94762   0.33876   0.10344   0.00000  Uiso   1.00
C280   C     0.69890   0.33293   0.12013   0.00000  Uiso   1.00
H281   H     0.69772   0.31420   0.15358   0.00000  Uiso   1.00
H282   H     0.70447   0.36885   0.12912   0.00000  Uiso   1.00
H283   H     0.73280   0.32125   0.10342   0.00000  Uiso   1.00
O284   O     0.78878   0.17631   0.46204   0.00000  Uiso   1.00
C285   C     0.82881   0.14560   0.48010   0.00000  Uiso   1.00
H286   H     0.81493   0.12708   0.00964   0.00000  Uiso   1.00
H287   H     0.86665   0.16189   0.49588   0.00000  Uiso   1.00
C288   C     0.83819   0.11216   0.44127   0.00000  Uiso   1.00
H289   H     0.80017   0.09644   0.42569   0.00000  Uiso   1.00
H290   H     0.85437   0.12976   0.41236   0.00000  Uiso   1.00
C291   C     0.87694   0.07583   0.46138   0.00000  Uiso   1.00
H292   H     0.91550   0.09080   0.47654   0.00000  Uiso   1.00
H293   H     0.88306   0.05235   0.43238   0.00000  Uiso   1.00
H294   H     0.86124   0.05687   0.48966   0.00000  Uiso   1.00
C295   C     0.16600   0.66388   0.24984   0.00000  Uiso   1.00
C296   C     0.16625   0.83613   0.25000   0.00000  Uiso   1.00
C297   C     0.12320   0.73510   0.04630   0.00000  Uiso   1.00
C298   C     0.18785   0.78450   0.45121   0.00000  Uiso   1.00
C299   C     0.12420   0.73387   0.09602   0.00000  Uiso   1.00
C300   C     0.19077   0.78343   0.40213   0.00000  Uiso   1.00
C301   C     0.21023   0.76426   0.10873   0.00000  Uiso   1.00
C302   C     0.14303   0.71571   0.39369   0.00000  Uiso   1.00
C303   C     0.21318   0.76211   0.05885   0.00000  Uiso   1.00
C304   C     0.14427   0.71307   0.44354   0.00000  Uiso   1.00
C305   C     0.16765   0.74865   0.02695   0.00000  Uiso   1.00
C306   C     0.16629   0.74861   0.47335   0.00000  Uiso   1.00
C307   C     0.06698   0.74981   0.23746   0.00000  Uiso   1.00
C308   C     0.26636   0.74995   0.26254   0.00000  Uiso   1.00
C309   C     0.01186   0.74922   0.23076   0.00000  Uiso   1.00
C310   C     0.32149   0.75004   0.26928   0.00000  Uiso   1.00
C311   C     0.13978   0.54802   0.28560   0.00000  Uiso   1.00
C312   C     0.13849   0.95190   0.20719   0.00000  Uiso   1.00
C313   C     0.14347   0.59396   0.28637   0.00000  Uiso   1.00
C314   C     0.14243   0.90597   0.20743   0.00000  Uiso   1.00
C315   C     0.16264   0.61601   0.24920   0.00000  Uiso   1.00
C316   C     0.16320   0.88401   0.24967   0.00000  Uiso   1.00
C317   C     0.17760   0.59219   0.21103   0.00000  Uiso   1.00
C318   C     0.17992   0.90793   0.29169   0.00000  Uiso   1.00
C319   C     0.17450   0.54622   0.21055   0.00000  Uiso   1.00
C320   C     0.17670   0.95390   0.29128   0.00000  Uiso   1.00
C321   C     0.15588   0.52410   0.24798   0.00000  Uiso   1.00
C322   C     0.15613   0.97592   0.24899   0.00000  Uiso   1.00
H323   H     0.32431   0.74808   0.19434   0.00000  Uiso   1.00
H324   H     0.00903   0.75102   0.30573   0.00000  Uiso   1.00
H325   H     0.12476   0.53115   0.31439   0.00000  Uiso   1.00
H326   H     0.12201   0.96868   0.17446   0.00000  Uiso   1.00
H327   H     0.13104   0.61217   0.31574   0.00000  Uiso   1.00
H328   H     0.12887   0.88767   0.17484   0.00000  Uiso   1.00
H329   H     0.19253   0.60897   0.18212   0.00000  Uiso   1.00
H330   H     0.19631   0.89122   0.32447   0.00000  Uiso   1.00
H331   H     0.18784   0.52794   0.18168   0.00000  Uiso   1.00
H332   H     0.19135   0.97228   0.32359   0.00000  Uiso   1.00
H333   H     0.08750   0.72543   0.02300   0.00000  Uiso   1.00
H334   H     0.20322   0.81326   0.47198   0.00000  Uiso   1.00
H335   H     0.24238   0.77701   0.13414   0.00000  Uiso   1.00
H336   H     0.12435   0.68937   0.37095   0.00000  Uiso   1.00
N337   N     0.16667   0.74999   0.12624   0.00000  Uiso   1.00
N338   N     0.16667   0.75001   0.37377   0.00000  Uiso   1.00
O339   O     0.16667   0.68454   0.28974   0.00000  Uiso   1.00
O340   O     0.16666   0.81547   0.21026   0.00000  Uiso   1.00
O341   O     0.16667   0.68453   0.21026   0.00000  Uiso   1.00
O342   O     0.16666   0.81547   0.28974   0.00000  Uiso   1.00
O343   O     0.09058   0.75000   0.28045   0.00000  Uiso   1.00
O344   O     0.24275   0.75000   0.21956   0.00000  Uiso   1.00
O345   O     0.09058   0.75000   0.20097   0.00000  Uiso   1.00
O346   O     0.24275   0.75001   0.29904   0.00000  Uiso   1.00
Zn347  Zn    0.16667   0.75001   0.30307   0.00000  Uiso   1.00
Zn348  Zn    0.16667   0.75000   0.19693   0.00000  Uiso   1.00
O349   O     0.08087   0.71876   0.11444   0.00000  Uiso   1.00
C350   C     0.07720   0.67197   0.10897   0.00000  Uiso   1.00
H351   H     0.11600   0.65546   0.12085   0.00000  Uiso   1.00
H352   H     0.06303   0.66324   0.07095   0.00000  Uiso   1.00
C353   C     0.03777   0.65429   0.13950   0.00000  Uiso   1.00
H354   H     0.05145   0.66295   0.17755   0.00000  Uiso   1.00
H355   H     0.33209   0.67024   0.12817   0.00000  Uiso   1.00
C356   C     0.03179   0.60375   0.13497   0.00000  Uiso   1.00
H357   H     0.01729   0.59423   0.09733   0.00000  Uiso   1.00
H358   H     0.00294   0.59208   0.15756   0.00000  Uiso   1.00
H359   H     0.07016   0.58709   0.14709   0.00000  Uiso   1.00
O360   O     0.21742   0.81694   0.38267   0.00000  Uiso   1.00
C361   C     0.27146   0.80540   0.38633   0.00000  Uiso   1.00
H362   H     0.28535   0.81728   0.35338   0.00000  Uiso   1.00
H363   H     0.27902   0.76866   0.38829   0.00000  Uiso   1.00
C364   C     0.30441   0.82870   0.42909   0.00000  Uiso   1.00
H365   H     0.29819   0.86535   0.42616   0.00000  Uiso   1.00
H366   H     0.29206   0.81720   0.46274   0.00000  Uiso   1.00
C367   C     0.02968   0.81847   0.43144   0.00000  Uiso   1.00
H368   H     0.03686   0.78201   0.43537   0.00000  Uiso   1.00
H369   H     0.05250   0.83569   0.46275   0.00000  Uiso   1.00
H370   H     0.04386   0.83027   0.39861   0.00000  Uiso   1.00
O371   O     0.25785   0.77307   0.03870   0.00000  Uiso   1.00
C372   C     0.30545   0.77770   0.07085   0.00000  Uiso   1.00
H373   H     0.00450   0.76807   0.05111   0.00000  Uiso   1.00
H374   H     0.30902   0.75434   0.10154   0.00000  Uiso   1.00
C375   C     0.31405   0.82663   0.08595   0.00000  Uiso   1.00
H376   H     0.31514   0.84732   0.05367   0.00000  Uiso   1.00
H377   H     0.28095   0.83876   0.10344   0.00000  Uiso   1.00
C378   C     0.03223   0.83293   0.12013   0.00000  Uiso   1.00
H379   H     0.03105   0.81420   0.15358   0.00000  Uiso   1.00
H380   H     0.03780   0.86885   0.12912   0.00000  Uiso   1.00
H381   H     0.06613   0.82125   0.10342   0.00000  Uiso   1.00
O382   O     0.12211   0.67631   0.46204   0.00000  Uiso   1.00
C383   C     0.16214   0.64560   0.48010   0.00000  Uiso   1.00
H384   H     0.14826   0.62708   0.00964   0.00000  Uiso   1.00
H385   H     0.19999   0.66189   0.49588   0.00000  Uiso   1.00
C386   C     0.17152   0.61216   0.44127   0.00000  Uiso   1.00
H387   H     0.13350   0.59644   0.42569   0.00000  Uiso   1.00
H388   H     0.18770   0.62976   0.41236   0.00000  Uiso   1.00
C389   C     0.21027   0.57583   0.46138   0.00000  Uiso   1.00
H390   H     0.24884   0.59080   0.47654   0.00000  Uiso   1.00
H391   H     0.21639   0.55235   0.43238   0.00000  Uiso   1.00
H392   H     0.19457   0.55687   0.48966   0.00000  Uiso   1.00
C393   C     0.49934   0.66388   0.24984   0.00000  Uiso   1.00
C394   C     0.49958   0.83613   0.25000   0.00000  Uiso   1.00
C395   C     0.45653   0.73510   0.04630   0.00000  Uiso   1.00
C396   C     0.52118   0.78450   0.45121   0.00000  Uiso   1.00
C397   C     0.45753   0.73387   0.09602   0.00000  Uiso   1.00
C398   C     0.52410   0.78343   0.40213   0.00000  Uiso   1.00
C399   C     0.54356   0.76426   0.10873   0.00000  Uiso   1.00
C400   C     0.47636   0.71571   0.39369   0.00000  Uiso   1.00
C401   C     0.54651   0.76211   0.05885   0.00000  Uiso   1.00
C402   C     0.47761   0.71307   0.44354   0.00000  Uiso   1.00
C403   C     0.50098   0.74865   0.02695   0.00000  Uiso   1.00
C404   C     0.49962   0.74861   0.47335   0.00000  Uiso   1.00
C405   C     0.40031   0.74981   0.23746   0.00000  Uiso   1.00
C406   C     0.59969   0.74995   0.26254   0.00000  Uiso   1.00
C407   C     0.34519   0.74922   0.23076   0.00000  Uiso   1.00
C408   C     0.65482   0.75004   0.26928   0.00000  Uiso   1.00
C409   C     0.47312   0.54802   0.28560   0.00000  Uiso   1.00
C410   C     0.47183   0.95190   0.20719   0.00000  Uiso   1.00
C411   C     0.47680   0.59396   0.28637   0.00000  Uiso   1.00
C412   C     0.47576   0.90597   0.20743   0.00000  Uiso   1.00
C413   C     0.49598   0.61601   0.24920   0.00000  Uiso   1.00
C414   C     0.49653   0.88401   0.24967   0.00000  Uiso   1.00
C415   C     0.51093   0.59219   0.21103   0.00000  Uiso   1.00
C416   C     0.51325   0.90793   0.29169   0.00000  Uiso   1.00
C417   C     0.50783   0.54622   0.21055   0.00000  Uiso   1.00
C418   C     0.51003   0.95390   0.29128   0.00000  Uiso   1.00
C419   C     0.48921   0.52410   0.24798   0.00000  Uiso   1.00
C420   C     0.48946   0.97592   0.24899   0.00000  Uiso   1.00
H421   H     0.65764   0.74808   0.19434   0.00000  Uiso   1.00
H422   H     0.34237   0.75102   0.30573   0.00000  Uiso   1.00
H423   H     0.45809   0.53115   0.31439   0.00000  Uiso   1.00
H424   H     0.45534   0.96868   0.17446   0.00000  Uiso   1.00
H425   H     0.46437   0.61217   0.31574   0.00000  Uiso   1.00
H426   H     0.46220   0.88767   0.17484   0.00000  Uiso   1.00
H427   H     0.52586   0.60897   0.18212   0.00000  Uiso   1.00
H428   H     0.52964   0.89122   0.32447   0.00000  Uiso   1.00
H429   H     0.52117   0.52794   0.18168   0.00000  Uiso   1.00
H430   H     0.52468   0.97228   0.32359   0.00000  Uiso   1.00
H431   H     0.42083   0.72543   0.02300   0.00000  Uiso   1.00
H432   H     0.53655   0.81326   0.47198   0.00000  Uiso   1.00
H433   H     0.57571   0.77701   0.13414   0.00000  Uiso   1.00
H434   H     0.45768   0.68937   0.37095   0.00000  Uiso   1.00
N435   N     0.50000   0.74999   0.12624   0.00000  Uiso   1.00
N436   N     0.50000   0.75001   0.37377   0.00000  Uiso   1.00
O437   O     0.50000   0.68454   0.28974   0.00000  Uiso   1.00
O438   O     0.50000   0.81547   0.21026   0.00000  Uiso   1.00
O439   O     0.50000   0.68453   0.21026   0.00000  Uiso   1.00
O440   O     0.50000   0.81547   0.28974   0.00000  Uiso   1.00
O441   O     0.42392   0.75000   0.28045   0.00000  Uiso   1.00
O442   O     0.57608   0.75000   0.21956   0.00000  Uiso   1.00
O443   O     0.42392   0.75000   0.20097   0.00000  Uiso   1.00
O444   O     0.57608   0.75001   0.29904   0.00000  Uiso   1.00
Zn445  Zn    0.50000   0.75001   0.30307   0.00000  Uiso   1.00
Zn446  Zn    0.50000   0.75000   0.19693   0.00000  Uiso   1.00
O447   O     0.41420   0.71876   0.11444   0.00000  Uiso   1.00
C448   C     0.41054   0.67197   0.10897   0.00000  Uiso   1.00
H449   H     0.44933   0.65546   0.12085   0.00000  Uiso   1.00
H450   H     0.39636   0.66324   0.07095   0.00000  Uiso   1.00
C451   C     0.37110   0.65429   0.13950   0.00000  Uiso   1.00
H452   H     0.38478   0.66295   0.17755   0.00000  Uiso   1.00
H453   H     0.66542   0.67024   0.12817   0.00000  Uiso   1.00
C454   C     0.36512   0.60375   0.13497   0.00000  Uiso   1.00
H455   H     0.35062   0.59423   0.09733   0.00000  Uiso   1.00
H456   H     0.33627   0.59208   0.15756   0.00000  Uiso   1.00
H457   H     0.40349   0.58709   0.14709   0.00000  Uiso   1.00
O458   O     0.55075   0.81694   0.38267   0.00000  Uiso   1.00
C459   C     0.60480   0.80540   0.38633   0.00000  Uiso   1.00
H460   H     0.61869   0.81728   0.35338   0.00000  Uiso   1.00
H461   H     0.61236   0.76866   0.38829   0.00000  Uiso   1.00
C462   C     0.63774   0.82870   0.42909   0.00000  Uiso   1.00
H463   H     0.63153   0.86535   0.42616   0.00000  Uiso   1.00
H464   H     0.62539   0.81720   0.46274   0.00000  Uiso   1.00
C465   C     0.36302   0.81847   0.43144   0.00000  Uiso   1.00
H466   H     0.37019   0.78201   0.43537   0.00000  Uiso   1.00
H467   H     0.38583   0.83569   0.46275   0.00000  Uiso   1.00
H468   H     0.37719   0.83027   0.39861   0.00000  Uiso   1.00
O469   O     0.59118   0.77307   0.03870   0.00000  Uiso   1.00
C470   C     0.63878   0.77770   0.07085   0.00000  Uiso   1.00
H471   H     0.33784   0.76807   0.05111   0.00000  Uiso   1.00
H472   H     0.64235   0.75434   0.10154   0.00000  Uiso   1.00
C473   C     0.64738   0.82663   0.08595   0.00000  Uiso   1.00
H474   H     0.64848   0.84732   0.05367   0.00000  Uiso   1.00
H475   H     0.61428   0.83876   0.10344   0.00000  Uiso   1.00
C476   C     0.36556   0.83293   0.12013   0.00000  Uiso   1.00
H477   H     0.36439   0.81420   0.15358   0.00000  Uiso   1.00
H478   H     0.37113   0.86885   0.12912   0.00000  Uiso   1.00
H479   H     0.39946   0.82125   0.10342   0.00000  Uiso   1.00
O480   O     0.45544   0.67631   0.46204   0.00000  Uiso   1.00
C481   C     0.49548   0.64560   0.48010   0.00000  Uiso   1.00
H482   H     0.48159   0.62708   0.00964   0.00000  Uiso   1.00
H483   H     0.53332   0.66189   0.49588   0.00000  Uiso   1.00
C484   C     0.50485   0.61216   0.44127   0.00000  Uiso   1.00
H485   H     0.46684   0.59644   0.42569   0.00000  Uiso   1.00
H486   H     0.52104   0.62976   0.41236   0.00000  Uiso   1.00
C487   C     0.54361   0.57583   0.46138   0.00000  Uiso   1.00
H488   H     0.58217   0.59080   0.47654   0.00000  Uiso   1.00
H489   H     0.54972   0.55235   0.43238   0.00000  Uiso   1.00
H490   H     0.52791   0.55687   0.48966   0.00000  Uiso   1.00
C491   C     0.83267   0.66388   0.24984   0.00000  Uiso   1.00
C492   C     0.83292   0.83613   0.25000   0.00000  Uiso   1.00
C493   C     0.78987   0.73510   0.04630   0.00000  Uiso   1.00
C494   C     0.85452   0.78450   0.45121   0.00000  Uiso   1.00
C495   C     0.79087   0.73387   0.09602   0.00000  Uiso   1.00
C496   C     0.85744   0.78343   0.40213   0.00000  Uiso   1.00
C497   C     0.87689   0.76426   0.10873   0.00000  Uiso   1.00
C498   C     0.80970   0.71571   0.39369   0.00000  Uiso   1.00
C499   C     0.87985   0.76211   0.05885   0.00000  Uiso   1.00
C500   C     0.81094   0.71307   0.44354   0.00000  Uiso   1.00
C501   C     0.83432   0.74865   0.02695   0.00000  Uiso   1.00
C502   C     0.83295   0.74861   0.47335   0.00000  Uiso   1.00
C503   C     0.73364   0.74981   0.23746   0.00000  Uiso   1.00
C504   C     0.93303   0.74995   0.26254   0.00000  Uiso   1.00
C505   C     0.67852   0.74922   0.23076   0.00000  Uiso   1.00
C506   C     0.98815   0.75004   0.26928   0.00000  Uiso   1.00
C507   C     0.80645   0.54802   0.28560   0.00000  Uiso   1.00
C508   C     0.80516   0.95190   0.20719   0.00000  Uiso   1.00
C509   C     0.81013   0.59396   0.28637   0.00000  Uiso   1.00
C510   C     0.80909   0.90597   0.20743   0.00000  Uiso   1.00
C511   C     0.82931   0.61601   0.24920   0.00000  Uiso   1.00
C512   C     0.82987   0.88401   0.24967   0.00000  Uiso   1.00
C513   C     0.84426   0.59219   0.21103   0.00000  Uiso   1.00
C514   C     0.84659   0.90793   0.29169   0.00000  Uiso   1.00
C515   C     0.84116   0.54622   0.21055   0.00000  Uiso   1.00
C516   C     0.84337   0.95390   0.29128   0.00000  Uiso   1.00
C517   C     0.82254   0.52410   0.24798   0.00000  Uiso   1.00
C518   C     0.82280   0.97592   0.24899   0.00000  Uiso   1.00
H519   H     0.99098   0.74808   0.19434   0.00000  Uiso   1.00
H520   H     0.67570   0.75102   0.30573   0.00000  Uiso   1.00
H521   H     0.79143   0.53115   0.31439   0.00000  Uiso   1.00
H522   H     0.78868   0.96868   0.17446   0.00000  Uiso   1.00
H523   H     0.79770   0.61217   0.31574   0.00000  Uiso   1.00
H524   H     0.79553   0.88767   0.17484   0.00000  Uiso   1.00
H525   H     0.85919   0.60897   0.18212   0.00000  Uiso   1.00
H526   H     0.86297   0.89122   0.32447   0.00000  Uiso   1.00
H527   H     0.85451   0.52794   0.18168   0.00000  Uiso   1.00
H528   H     0.85801   0.97228   0.32359   0.00000  Uiso   1.00
H529   H     0.75417   0.72543   0.02300   0.00000  Uiso   1.00
H530   H     0.86989   0.81326   0.47198   0.00000  Uiso   1.00
H531   H     0.90904   0.77701   0.13414   0.00000  Uiso   1.00
H532   H     0.79102   0.68937   0.37095   0.00000  Uiso   1.00
N533   N     0.83333   0.74999   0.12624   0.00000  Uiso   1.00
N534   N     0.83333   0.75001   0.37377   0.00000  Uiso   1.00
O535   O     0.83334   0.68454   0.28974   0.00000  Uiso   1.00
O536   O     0.83333   0.81547   0.21026   0.00000  Uiso   1.00
O537   O     0.83334   0.68453   0.21026   0.00000  Uiso   1.00
O538   O     0.83333   0.81547   0.28974   0.00000  Uiso   1.00
O539   O     0.75725   0.75000   0.28045   0.00000  Uiso   1.00
O540   O     0.90942   0.75000   0.21956   0.00000  Uiso   1.00
O541   O     0.75725   0.75000   0.20097   0.00000  Uiso   1.00
O542   O     0.90942   0.75001   0.29904   0.00000  Uiso   1.00
Zn543  Zn    0.83333   0.75001   0.30307   0.00000  Uiso   1.00
Zn544  Zn    0.83333   0.75000   0.19693   0.00000  Uiso   1.00
O545   O     0.74753   0.71876   0.11444   0.00000  Uiso   1.00
C546   C     0.74387   0.67197   0.10897   0.00000  Uiso   1.00
H547   H     0.78266   0.65546   0.12085   0.00000  Uiso   1.00
H548   H     0.72969   0.66324   0.07095   0.00000  Uiso   1.00
C549   C     0.70443   0.65429   0.13950   0.00000  Uiso   1.00
H550   H     0.71811   0.66295   0.17755   0.00000  Uiso   1.00
H551   H     0.99875   0.67024   0.12817   0.00000  Uiso   1.00
C552   C     0.69846   0.60375   0.13497   0.00000  Uiso   1.00
H553   H     0.68396   0.59423   0.09733   0.00000  Uiso   1.00
H554   H     0.66961   0.59208   0.15756   0.00000  Uiso   1.00
H555   H     0.73683   0.58709   0.14709   0.00000  Uiso   1.00
O556   O     0.88409   0.81694   0.38267   0.00000  Uiso   1.00
C557   C     0.93813   0.80540   0.38633   0.00000  Uiso   1.00
H558   H     0.95202   0.81728   0.35338   0.00000  Uiso   1.00
H559   H     0.94569   0.76866   0.38829   0.00000  Uiso   1.00
C560   C     0.97108   0.82870   0.42909   0.00000  Uiso   1.00
H561   H     0.96486   0.86535   0.42616   0.00000  Uiso   1.00
H562   H     0.95873   0.81720   0.46274   0.00000  Uiso   1.00
C563   C     0.69635   0.81847   0.43144   0.00000  Uiso   1.00
H564   H     0.70352   0.78201   0.43537   0.00000  Uiso   1.00
H565   H     0.71916   0.83569   0.46275   0.00000  Uiso   1.00
H566   H     0.71053   0.83027   0.39861   0.00000  Uiso   1.00
O567   O     0.92451   0.77307   0.03870   0.00000  Uiso   1.00
C568   C     0.97212   0.77770   0.07085   0.00000  Uiso   1.00
H569   H     0.67117   0.76807   0.05111   0.00000  Uiso   1.00
H570   H     0.97569   0.75434   0.10154   0.00000  Uiso   1.00
C571   C     0.98072   0.82663   0.08595   0.00000  Uiso   1.00
H572   H     0.98181   0.84732   0.05367   0.00000  Uiso   1.00
H573   H     0.94762   0.83876   0.10344   0.00000  Uiso   1.00
C574   C     0.69890   0.83293   0.12013   0.00000  Uiso   1.00
H575   H     0.69772   0.81420   0.15358   0.00000  Uiso   1.00
H576   H     0.70447   0.86885   0.12912   0.00000  Uiso   1.00
H577   H     0.73280   0.82125   0.10342   0.00000  Uiso   1.00
O578   O     0.78878   0.67631   0.46204   0.00000  Uiso   1.00
C579   C     0.82881   0.64560   0.48010   0.00000  Uiso   1.00
H580   H     0.81493   0.62708   0.00964   0.00000  Uiso   1.00
H581   H     0.86665   0.66189   0.49588   0.00000  Uiso   1.00
C582   C     0.83819   0.61216   0.44127   0.00000  Uiso   1.00
H583   H     0.80017   0.59644   0.42569   0.00000  Uiso   1.00
H584   H     0.85437   0.62976   0.41236   0.00000  Uiso   1.00
C585   C     0.87694   0.57583   0.46138   0.00000  Uiso   1.00
H586   H     0.91550   0.59080   0.47654   0.00000  Uiso   1.00
H587   H     0.88306   0.55235   0.43238   0.00000  Uiso   1.00
H588   H     0.86124   0.55687   0.48966   0.00000  Uiso   1.00
C589   C     0.16600   0.16388   0.74984   0.00000  Uiso   1.00
C590   C     0.16625   0.33613   0.75000   0.00000  Uiso   1.00
C591   C     0.12320   0.23510   0.54630   0.00000  Uiso   1.00
C592   C     0.18785   0.28450   0.95121   0.00000  Uiso   1.00
C593   C     0.12420   0.23387   0.59602   0.00000  Uiso   1.00
C594   C     0.19077   0.28343   0.90213   0.00000  Uiso   1.00
C595   C     0.21023   0.26426   0.60873   0.00000  Uiso   1.00
C596   C     0.14303   0.21571   0.89369   0.00000  Uiso   1.00
C597   C     0.21318   0.26211   0.55885   0.00000  Uiso   1.00
C598   C     0.14427   0.21307   0.94354   0.00000  Uiso   1.00
C599   C     0.16765   0.24865   0.52695   0.00000  Uiso   1.00
C600   C     0.16629   0.24861   0.97335   0.00000  Uiso   1.00
C601   C     0.06698   0.24981   0.73746   0.00000  Uiso   1.00
C602   C     0.26636   0.24995   0.76254   0.00000  Uiso   1.00
C603   C     0.01186   0.24922   0.73076   0.00000  Uiso   1.00
C604   C     0.32149   0.25004   0.76928   0.00000  Uiso   1.00
C605   C     0.13978   0.04802   0.78560   0.00000  Uiso   1.00
C606   C     0.13849   0.45190   0.70719   0.00000  Uiso   1.00
C607   C     0.14347   0.09396   0.78637   0.00000  Uiso   1.00
C608   C     0.14243   0.40597   0.70743   0.00000  Uiso   1.00
C609   C     0.16264   0.11601   0.74920   0.00000  Uiso   1.00
C610   C     0.16320   0.38401   0.74967   0.00000  Uiso   1.00
C611   C     0.17760   0.09219   0.71103   0.00000  Uiso   1.00
C612   C     0.17992   0.40793   0.79169   0.00000  Uiso   1.00
C613   C     0.17450   0.04622   0.71055   0.00000  Uiso   1.00
C614   C     0.17670   0.45390   0.79128   0.00000  Uiso   1.00
C615   C     0.15588   0.02410   0.74798   0.00000  Uiso   1.00
C616   C     0.15613   0.47592   0.74899   0.00000  Uiso   1.00
H617   H     0.32431   0.24808   0.69434   0.00000  Uiso   1.00
H618   H     0.00903   0.25102   0.80573   0.00000  Uiso   1.00
H619   H     0.12476   0.03115   0.81439   0.00000  Uiso   1.00
H620   H     0.12201   0.46868   0.67446   0.00000  Uiso   1.00
H621   H     0.13104   0.11217   0.81574   0.00000  Uiso   1.00
H622   H     0.12887   0.38767   0.67484   0.00000  Uiso   1.00
H623   H     0.19253   0.10897   0.68212   0.00000  Uiso   1.00
H624   H     0.19631   0.39122   0.82447   0.00000  Uiso   1.00
H625   H     0.18784   0.02794   0.68168   0.00000  Uiso   1.00
H626   H     0.19135   0.47228   0.82359   0.00000  Uiso   1.00
H627   H     0.08750   0.22543   0.52300   0.00000  Uiso   1.00
H628   H     0.20322   0.31326   0.97198   0.00000  Uiso   1.00
H629   H     0.24238   0.27701   0.63414   0.00000  Uiso   1.00
H630   H     0.12435   0.18937   0.87095   0.00000  Uiso   1.00
N631   N     0.16667   0.24999   0.62624   0.00000  Uiso   1.00
N632   N     0.16667   0.25001   0.87377   0.00000  Uiso   1.00
O633   O     0.16667   0.18454   0.78974   0.00000  Uiso   1.00
O634   O     0.16666   0.31547   0.71026   0.00000  Uiso   1.00
O635   O     0.16667   0.18453   0.71026   0.00000  Uiso   1.00
O636   O     0.16666   0.31547   0.78974   0.00000  Uiso   1.00
O637   O     0.09058   0.25000   0.78045   0.00000  Uiso   1.00
O638   O     0.24275   0.25000   0.71956   0.00000  Uiso   1.00
O639   O     0.09058   0.25000   0.70097   0.00000  Uiso   1.00
O640   O     0.24275   0.25001   0.79904   0.00000  Uiso   1.00
Zn641  Zn    0.16667   0.25001   0.80307   0.00000  Uiso   1.00
Zn642  Zn    0.16667   0.25000   0.69693   0.00000  Uiso   1.00
O643   O     0.08087   0.21876   0.61444   0.00000  Uiso   1.00
C644   C     0.07720   0.17197   0.60897   0.00000  Uiso   1.00
H645   H     0.11600   0.15546   0.62085   0.00000  Uiso   1.00
H646   H     0.06303   0.16324   0.57095   0.00000  Uiso   1.00
C647   C     0.03777   0.15429   0.63950   0.00000  Uiso   1.00
H648   H     0.05145   0.16295   0.67755   0.00000  Uiso   1.00
H649   H     0.33209   0.17024   0.62817   0.00000  Uiso   1.00
C650   C     0.03179   0.10375   0.63497   0.00000  Uiso   1.00
H651   H     0.01729   0.09423   0.59733   0.00000  Uiso   1.00
H652   H     0.00294   0.09208   0.65756   0.00000  Uiso   1.00
H653   H     0.07016   0.08709   0.64709   0.00000  Uiso   1.00
O654   O     0.21742   0.31694   0.88267   0.00000  Uiso   1.00
C655   C     0.27146   0.30540   0.88633   0.00000  Uiso   1.00
H656   H     0.28535   0.31728   0.85338   0.00000  Uiso   1.00
H657   H     0.27902   0.26866   0.88829   0.00000  Uiso   1.00
C658   C     0.30441   0.32870   0.92909   0.00000  Uiso   1.00
H659   H     0.29819   0.36535   0.92616   0.00000  Uiso   1.00
H660   H     0.29206   0.31720   0.96274   0.00000  Uiso   1.00
C661   C     0.02968   0.31847   0.93144   0.00000  Uiso   1.00
H662   H     0.03686   0.28201   0.93537   0.00000  Uiso   1.00
H663   H     0.05250   0.33569   0.96275   0.00000  Uiso   1.00
H664   H     0.04386   0.33027   0.89861   0.00000  Uiso   1.00
O665   O     0.25785   0.27307   0.53870   0.00000  Uiso   1.00
C666   C     0.30545   0.27770   0.57085   0.00000  Uiso   1.00
H667   H     0.00450   0.26807   0.55111   0.00000  Uiso   1.00
H668   H     0.30902   0.25434   0.60154   0.00000  Uiso   1.00
C669   C     0.31405   0.32663   0.58595   0.00000  Uiso   1.00
H670   H     0.31514   0.34732   0.55367   0.00000  Uiso   1.00
H671   H     0.28095   0.33876   0.60344   0.00000  Uiso   1.00
C672   C     0.03223   0.33293   0.62013   0.00000  Uiso   1.00
H673   H     0.03105   0.31420   0.65358   0.00000  Uiso   1.00
H674   H     0.03780   0.36885   0.62912   0.00000  Uiso   1.00
H675   H     0.06613   0.32125   0.60342   0.00000  Uiso   1.00
O676   O     0.12211   0.17631   0.96204   0.00000  Uiso   1.00
C677   C     0.16214   0.14560   0.98010   0.00000  Uiso   1.00
H678   H     0.14826   0.12708   0.50964   0.00000  Uiso   1.00
H679   H     0.19999   0.16189   0.99588   0.00000  Uiso   1.00
C680   C     0.17152   0.11216   0.94127   0.00000  Uiso   1.00
H681   H     0.13350   0.09644   0.92569   0.00000  Uiso   1.00
H682   H     0.18770   0.12976   0.91236   0.00000  Uiso   1.00
C683   C     0.21027   0.07583   0.96138   0.00000  Uiso   1.00
H684   H     0.24884   0.09080   0.97654   0.00000  Uiso   1.00
H685   H     0.21639   0.05235   0.93238   0.00000  Uiso   1.00
H686   H     0.19457   0.05687   0.98966   0.00000  Uiso   1.00
C687   C     0.49934   0.16388   0.74984   0.00000  Uiso   1.00
C688   C     0.49958   0.33613   0.75000   0.00000  Uiso   1.00
C689   C     0.45653   0.23510   0.54630   0.00000  Uiso   1.00
C690   C     0.52118   0.28450   0.95121   0.00000  Uiso   1.00
C691   C     0.45753   0.23387   0.59602   0.00000  Uiso   1.00
C692   C     0.52410   0.28343   0.90213   0.00000  Uiso   1.00
C693   C     0.54356   0.26426   0.60873   0.00000  Uiso   1.00
C694   C     0.47636   0.21571   0.89369   0.00000  Uiso   1.00
C695   C     0.54651   0.26211   0.55885   0.00000  Uiso   1.00
C696   C     0.47761   0.21307   0.94354   0.00000  Uiso   1.00
C697   C     0.50098   0.24865   0.52695   0.00000  Uiso   1.00
C698   C     0.49962   0.24861   0.97335   0.00000  Uiso   1.00
C699   C     0.40031   0.24981   0.73746   0.00000  Uiso   1.00
C700   C     0.59969   0.24995   0.76254   0.00000  Uiso   1.00
C701   C     0.34519   0.24922   0.73076   0.00000  Uiso   1.00
C702   C     0.65482   0.25004   0.76928   0.00000  Uiso   1.00
C703   C     0.47312   0.04802   0.78560   0.00000  Uiso   1.00
C704   C     0.47183   0.45190   0.70719   0.00000  Uiso   1.00
C705   C     0.47680   0.09396   0.78637   0.00000  Uiso   1.00
C706   C     0.47576   0.40597   0.70743   0.00000  Uiso   1.00
C707   C     0.49598   0.11601   0.74920   0.00000  Uiso   1.00
C708   C     0.49653   0.38401   0.74967   0.00000  Uiso   1.00
C709   C     0.51093   0.09219   0.71103   0.00000  Uiso   1.00
C710   C     0.51325   0.40793   0.79169   0.00000  Uiso   1.00
C711   C     0.50783   0.04622   0.71055   0.00000  Uiso   1.00
C712   C     0.51003   0.45390   0.79128   0.00000  Uiso   1.00
C713   C     0.48921   0.02410   0.74798   0.00000  Uiso   1.00
C714   C     0.48946   0.47592   0.74899   0.00000  Uiso   1.00
H715   H     0.65764   0.24808   0.69434   0.00000  Uiso   1.00
H716   H     0.34237   0.25102   0.80573   0.00000  Uiso   1.00
H717   H     0.45809   0.03115   0.81439   0.00000  Uiso   1.00
H718   H     0.45534   0.46868   0.67446   0.00000  Uiso   1.00
H719   H     0.46437   0.11217   0.81574   0.00000  Uiso   1.00
H720   H     0.46220   0.38767   0.67484   0.00000  Uiso   1.00
H721   H     0.52586   0.10897   0.68212   0.00000  Uiso   1.00
H722   H     0.52964   0.39122   0.82447   0.00000  Uiso   1.00
H723   H     0.52117   0.02794   0.68168   0.00000  Uiso   1.00
H724   H     0.52468   0.47228   0.82359   0.00000  Uiso   1.00
H725   H     0.42083   0.22543   0.52300   0.00000  Uiso   1.00
H726   H     0.53655   0.31326   0.97198   0.00000  Uiso   1.00
H727   H     0.57571   0.27701   0.63414   0.00000  Uiso   1.00
H728   H     0.45768   0.18937   0.87095   0.00000  Uiso   1.00
N729   N     0.50000   0.24999   0.62624   0.00000  Uiso   1.00
N730   N     0.50000   0.25001   0.87377   0.00000  Uiso   1.00
O731   O     0.50000   0.18454   0.78974   0.00000  Uiso   1.00
O732   O     0.50000   0.31547   0.71026   0.00000  Uiso   1.00
O733   O     0.50000   0.18453   0.71026   0.00000  Uiso   1.00
O734   O     0.50000   0.31547   0.78974   0.00000  Uiso   1.00
O735   O     0.42392   0.25000   0.78045   0.00000  Uiso   1.00
O736   O     0.57608   0.25000   0.71956   0.00000  Uiso   1.00
O737   O     0.42392   0.25000   0.70097   0.00000  Uiso   1.00
O738   O     0.57608   0.25001   0.79904   0.00000  Uiso   1.00
Zn739  Zn    0.50000   0.25001   0.80307   0.00000  Uiso   1.00
Zn740  Zn    0.50000   0.25000   0.69693   0.00000  Uiso   1.00
O741   O     0.41420   0.21876   0.61444   0.00000  Uiso   1.00
C742   C     0.41054   0.17197   0.60897   0.00000  Uiso   1.00
H743   H     0.44933   0.15546   0.62085   0.00000  Uiso   1.00
H744   H     0.39636   0.16324   0.57095   0.00000  Uiso   1.00
C745   C     0.37110   0.15429   0.63950   0.00000  Uiso   1.00
H746   H     0.38478   0.16295   0.67755   0.00000  Uiso   1.00
H747   H     0.66542   0.17024   0.62817   0.00000  Uiso   1.00
C748   C     0.36512   0.10375   0.63497   0.00000  Uiso   1.00
H749   H     0.35062   0.09423   0.59733   0.00000  Uiso   1.00
H750   H     0.33627   0.09208   0.65756   0.00000  Uiso   1.00
H751   H     0.40349   0.08709   0.64709   0.00000  Uiso   1.00
O752   O     0.55075   0.31694   0.88267   0.00000  Uiso   1.00
C753   C     0.60480   0.30540   0.88633   0.00000  Uiso   1.00
H754   H     0.61869   0.31728   0.85338   0.00000  Uiso   1.00
H755   H     0.61236   0.26866   0.88829   0.00000  Uiso   1.00
C756   C     0.63774   0.32870   0.92909   0.00000  Uiso   1.00
H757   H     0.63153   0.36535   0.92616   0.00000  Uiso   1.00
H758   H     0.62539   0.31720   0.96274   0.00000  Uiso   1.00
C759   C     0.36302   0.31847   0.93144   0.00000  Uiso   1.00
H760   H     0.37019   0.28201   0.93537   0.00000  Uiso   1.00
H761   H     0.38583   0.33569   0.96275   0.00000  Uiso   1.00
H762   H     0.37719   0.33027   0.89861   0.00000  Uiso   1.00
O763   O     0.59118   0.27307   0.53870   0.00000  Uiso   1.00
C764   C     0.63878   0.27770   0.57085   0.00000  Uiso   1.00
H765   H     0.33784   0.26807   0.55111   0.00000  Uiso   1.00
H766   H     0.64235   0.25434   0.60154   0.00000  Uiso   1.00
C767   C     0.64738   0.32663   0.58595   0.00000  Uiso   1.00
H768   H     0.64848   0.34732   0.55367   0.00000  Uiso   1.00
H769   H     0.61428   0.33876   0.60344   0.00000  Uiso   1.00
C770   C     0.36556   0.33293   0.62013   0.00000  Uiso   1.00
H771   H     0.36439   0.31420   0.65358   0.00000  Uiso   1.00
H772   H     0.37113   0.36885   0.62912   0.00000  Uiso   1.00
H773   H     0.39946   0.32125   0.60342   0.00000  Uiso   1.00
O774   O     0.45544   0.17631   0.96204   0.00000  Uiso   1.00
C775   C     0.49548   0.14560   0.98010   0.00000  Uiso   1.00
H776   H     0.48159   0.12708   0.50964   0.00000  Uiso   1.00
H777   H     0.53332   0.16189   0.99588   0.00000  Uiso   1.00
C778   C     0.50485   0.11216   0.94127   0.00000  Uiso   1.00
H779   H     0.46684   0.09644   0.92569   0.00000  Uiso   1.00
H780   H     0.52104   0.12976   0.91236   0.00000  Uiso   1.00
C781   C     0.54361   0.07583   0.96138   0.00000  Uiso   1.00
H782   H     0.58217   0.09080   0.97654   0.00000  Uiso   1.00
H783   H     0.54972   0.05235   0.93238   0.00000  Uiso   1.00
H784   H     0.52791   0.05687   0.98966   0.00000  Uiso   1.00
C785   C     0.83267   0.16388   0.74984   0.00000  Uiso   1.00
C786   C     0.83292   0.33613   0.75000   0.00000  Uiso   1.00
C787   C     0.78987   0.23510   0.54630   0.00000  Uiso   1.00
C788   C     0.85452   0.28450   0.95121   0.00000  Uiso   1.00
C789   C     0.79087   0.23387   0.59602   0.00000  Uiso   1.00
C790   C     0.85744   0.28343   0.90213   0.00000  Uiso   1.00
C791   C     0.87689   0.26426   0.60873   0.00000  Uiso   1.00
C792   C     0.80970   0.21571   0.89369   0.00000  Uiso   1.00
C793   C     0.87985   0.26211   0.55885   0.00000  Uiso   1.00
C794   C     0.81094   0.21307   0.94354   0.00000  Uiso   1.00
C795   C     0.83432   0.24865   0.52695   0.00000  Uiso   1.00
C796   C     0.83295   0.24861   0.97335   0.00000  Uiso   1.00
C797   C     0.73364   0.24981   0.73746   0.00000  Uiso   1.00
C798   C     0.93303   0.24995   0.76254   0.00000  Uiso   1.00
C799   C     0.67852   0.24922   0.73076   0.00000  Uiso   1.00
C800   C     0.98815   0.25004   0.76928   0.00000  Uiso   1.00
C801   C     0.80645   0.04802   0.78560   0.00000  Uiso   1.00
C802   C     0.80516   0.45190   0.70719   0.00000  Uiso   1.00
C803   C     0.81013   0.09396   0.78637   0.00000  Uiso   1.00
C804   C     0.80909   0.40597   0.70743   0.00000  Uiso   1.00
C805   C     0.82931   0.11601   0.74920   0.00000  Uiso   1.00
C806   C     0.82987   0.38401   0.74967   0.00000  Uiso   1.00
C807   C     0.84426   0.09219   0.71103   0.00000  Uiso   1.00
C808   C     0.84659   0.40793   0.79169   0.00000  Uiso   1.00
C809   C     0.84116   0.04622   0.71055   0.00000  Uiso   1.00
C810   C     0.84337   0.45390   0.79128   0.00000  Uiso   1.00
C811   C     0.82254   0.02410   0.74798   0.00000  Uiso   1.00
C812   C     0.82280   0.47592   0.74899   0.00000  Uiso   1.00
H813   H     0.99098   0.24808   0.69434   0.00000  Uiso   1.00
H814   H     0.67570   0.25102   0.80573   0.00000  Uiso   1.00
H815   H     0.79143   0.03115   0.81439   0.00000  Uiso   1.00
H816   H     0.78868   0.46868   0.67446   0.00000  Uiso   1.00
H817   H     0.79770   0.11217   0.81574   0.00000  Uiso   1.00
H818   H     0.79553   0.38767   0.67484   0.00000  Uiso   1.00
H819   H     0.85919   0.10897   0.68212   0.00000  Uiso   1.00
H820   H     0.86297   0.39122   0.82447   0.00000  Uiso   1.00
H821   H     0.85451   0.02794   0.68168   0.00000  Uiso   1.00
H822   H     0.85801   0.47228   0.82359   0.00000  Uiso   1.00
H823   H     0.75417   0.22543   0.52300   0.00000  Uiso   1.00
H824   H     0.86989   0.31326   0.97198   0.00000  Uiso   1.00
H825   H     0.90904   0.27701   0.63414   0.00000  Uiso   1.00
H826   H     0.79102   0.18937   0.87095   0.00000  Uiso   1.00
N827   N     0.83333   0.24999   0.62624   0.00000  Uiso   1.00
N828   N     0.83333   0.25001   0.87377   0.00000  Uiso   1.00
O829   O     0.83334   0.18454   0.78974   0.00000  Uiso   1.00
O830   O     0.83333   0.31547   0.71026   0.00000  Uiso   1.00
O831   O     0.83334   0.18453   0.71026   0.00000  Uiso   1.00
O832   O     0.83333   0.31547   0.78974   0.00000  Uiso   1.00
O833   O     0.75725   0.25000   0.78045   0.00000  Uiso   1.00
O834   O     0.90942   0.25000   0.71956   0.00000  Uiso   1.00
O835   O     0.75725   0.25000   0.70097   0.00000  Uiso   1.00
O836   O     0.90942   0.25001   0.79904   0.00000  Uiso   1.00
Zn837  Zn    0.83333   0.25001   0.80307   0.00000  Uiso   1.00
Zn838  Zn    0.83333   0.25000   0.69693   0.00000  Uiso   1.00
O839   O     0.74753   0.21876   0.61444   0.00000  Uiso   1.00
C840   C     0.74387   0.17197   0.60897   0.00000  Uiso   1.00
H841   H     0.78266   0.15546   0.62085   0.00000  Uiso   1.00
H842   H     0.72969   0.16324   0.57095   0.00000  Uiso   1.00
C843   C     0.70443   0.15429   0.63950   0.00000  Uiso   1.00
H844   H     0.71811   0.16295   0.67755   0.00000  Uiso   1.00
H845   H     0.99875   0.17024   0.62817   0.00000  Uiso   1.00
C846   C     0.69846   0.10375   0.63497   0.00000  Uiso   1.00
H847   H     0.68396   0.09423   0.59733   0.00000  Uiso   1.00
H848   H     0.66961   0.09208   0.65756   0.00000  Uiso   1.00
H849   H     0.73683   0.08709   0.64709   0.00000  Uiso   1.00
O850   O     0.88409   0.31694   0.88267   0.00000  Uiso   1.00
C851   C     0.93813   0.30540   0.88633   0.00000  Uiso   1.00
H852   H     0.95202   0.31728   0.85338   0.00000  Uiso   1.00
H853   H     0.94569   0.26866   0.88829   0.00000  Uiso   1.00
C854   C     0.97108   0.32870   0.92909   0.00000  Uiso   1.00
H855   H     0.96486   0.36535   0.92616   0.00000  Uiso   1.00
H856   H     0.95873   0.31720   0.96274   0.00000  Uiso   1.00
C857   C     0.69635   0.31847   0.93144   0.00000  Uiso   1.00
H858   H     0.70352   0.28201   0.93537   0.00000  Uiso   1.00
H859   H     0.71916   0.33569   0.96275   0.00000  Uiso   1.00
H860   H     0.71053   0.33027   0.89861   0.00000  Uiso   1.00
O861   O     0.92451   0.27307   0.53870   0.00000  Uiso   1.00
C862   C     0.97212   0.27770   0.57085   0.00000  Uiso   1.00
H863   H     0.67117   0.26807   0.55111   0.00000  Uiso   1.00
H864   H     0.97569   0.25434   0.60154   0.00000  Uiso   1.00
C865   C     0.98072   0.32663   0.58595   0.00000  Uiso   1.00
H866   H     0.98181   0.34732   0.55367   0.00000  Uiso   1.00
H867   H     0.94762   0.33876   0.60344   0.00000  Uiso   1.00
C868   C     0.69890   0.33293   0.62013   0.00000  Uiso   1.00
H869   H     0.69772   0.31420   0.65358   0.00000  Uiso   1.00
H870   H     0.70447   0.36885   0.62912   0.00000  Uiso   1.00
H871   H     0.73280   0.32125   0.60342   0.00000  Uiso   1.00
O872   O     0.78878   0.17631   0.96204   0.00000  Uiso   1.00
C873   C     0.82881   0.14560   0.98010   0.00000  Uiso   1.00
H874   H     0.81493   0.12708   0.50964   0.00000  Uiso   1.00
H875   H     0.86665   0.16189   0.99588   0.00000  Uiso   1.00
C876   C     0.83819   0.11216   0.94127   0.00000  Uiso   1.00
H877   H     0.80017   0.09644   0.92569   0.00000  Uiso   1.00
H878   H     0.85437   0.12976   0.91236   0.00000  Uiso   1.00
C879   C     0.87694   0.07583   0.96138   0.00000  Uiso   1.00
H880   H     0.91550   0.09080   0.97654   0.00000  Uiso   1.00
H881   H     0.88306   0.05235   0.93238   0.00000  Uiso   1.00
H882   H     0.86124   0.05687   0.98966   0.00000  Uiso   1.00
C883   C     0.16600   0.66388   0.74984   0.00000  Uiso   1.00
C884   C     0.16625   0.83613   0.75000   0.00000  Uiso   1.00
C885   C     0.12320   0.73510   0.54630   0.00000  Uiso   1.00
C886   C     0.18785   0.78450   0.95121   0.00000  Uiso   1.00
C887   C     0.12420   0.73387   0.59602   0.00000  Uiso   1.00
C888   C     0.19077   0.78343   0.90213   0.00000  Uiso   1.00
C889   C     0.21023   0.76426   0.60873   0.00000  Uiso   1.00
C890   C     0.14303   0.71571   0.89369   0.00000  Uiso   1.00
C891   C     0.21318   0.76211   0.55885   0.00000  Uiso   1.00
C892   C     0.14427   0.71307   0.94354   0.00000  Uiso   1.00
C893   C     0.16765   0.74865   0.52695   0.00000  Uiso   1.00
C894   C     0.16629   0.74861   0.97335   0.00000  Uiso   1.00
C895   C     0.06698   0.74981   0.73746   0.00000  Uiso   1.00
C896   C     0.26636   0.74995   0.76254   0.00000  Uiso   1.00
C897   C     0.01186   0.74922   0.73076   0.00000  Uiso   1.00
C898   C     0.32149   0.75004   0.76928   0.00000  Uiso   1.00
C899   C     0.13978   0.54802   0.78560   0.00000  Uiso   1.00
C900   C     0.13849   0.95190   0.70719   0.00000  Uiso   1.00
C901   C     0.14347   0.59396   0.78637   0.00000  Uiso   1.00
C902   C     0.14243   0.90597   0.70743   0.00000  Uiso   1.00
C903   C     0.16264   0.61601   0.74920   0.00000  Uiso   1.00
C904   C     0.16320   0.88401   0.74967   0.00000  Uiso   1.00
C905   C     0.17760   0.59219   0.71103   0.00000  Uiso   1.00
C906   C     0.17992   0.90793   0.79169   0.00000  Uiso   1.00
C907   C     0.17450   0.54622   0.71055   0.00000  Uiso   1.00
C908   C     0.17670   0.95390   0.79128   0.00000  Uiso   1.00
C909   C     0.15588   0.52410   0.74798   0.00000  Uiso   1.00
C910   C     0.15613   0.97592   0.74899   0.00000  Uiso   1.00
H911   H     0.32431   0.74808   0.69434   0.00000  Uiso   1.00
H912   H     0.00903   0.75102   0.80573   0.00000  Uiso   1.00
H913   H     0.12476   0.53115   0.81439   0.00000  Uiso   1.00
H914   H     0.12201   0.96868   0.67446   0.00000  Uiso   1.00
H915   H     0.13104   0.61217   0.81574   0.00000  Uiso   1.00
H916   H     0.12887   0.88767   0.67484   0.00000  Uiso   1.00
H917   H     0.19253   0.60897   0.68212   0.00000  Uiso   1.00
H918   H     0.19631   0.89122   0.82447   0.00000  Uiso   1.00
H919   H     0.18784   0.52794   0.68168   0.00000  Uiso   1.00
H920   H     0.19135   0.97228   0.82359   0.00000  Uiso   1.00
H921   H     0.08750   0.72543   0.52300   0.00000  Uiso   1.00
H922   H     0.20322   0.81326   0.97198   0.00000  Uiso   1.00
H923   H     0.24238   0.77701   0.63414   0.00000  Uiso   1.00
H924   H     0.12435   0.68937   0.87095   0.00000  Uiso   1.00
N925   N     0.16667   0.74999   0.62624   0.00000  Uiso   1.00
N926   N     0.16667   0.75001   0.87377   0.00000  Uiso   1.00
O927   O     0.16667   0.68454   0.78974   0.00000  Uiso   1.00
O928   O     0.16666   0.81547   0.71026   0.00000  Uiso   1.00
O929   O     0.16667   0.68453   0.71026   0.00000  Uiso   1.00
O930   O     0.16666   0.81547   0.78974   0.00000  Uiso   1.00
O931   O     0.09058   0.75000   0.78045   0.00000  Uiso   1.00
O932   O     0.24275   0.75000   0.71956   0.00000  Uiso   1.00
O933   O     0.09058   0.75000   0.70097   0.00000  Uiso   1.00
O934   O     0.24275   0.75001   0.79904   0.00000  Uiso   1.00
Zn935  Zn    0.16667   0.75001   0.80307   0.00000  Uiso   1.00
Zn936  Zn    0.16667   0.75000   0.69693   0.00000  Uiso   1.00
O937   O     0.08087   0.71876   0.61444   0.00000  Uiso   1.00
C938   C     0.07720   0.67197   0.60897   0.00000  Uiso   1.00
H939   H     0.11600   0.65546   0.62085   0.00000  Uiso   1.00
H940   H     0.06303   0.66324   0.57095   0.00000  Uiso   1.00
C941   C     0.03777   0.65429   0.63950   0.00000  Uiso   1.00
H942   H     0.05145   0.66295   0.67755   0.00000  Uiso   1.00
H943   H     0.33209   0.67024   0.62817   0.00000  Uiso   1.00
C944   C     0.03179   0.60375   0.63497   0.00000  Uiso   1.00
H945   H     0.01729   0.59423   0.59733   0.00000  Uiso   1.00
H946   H     0.00294   0.59208   0.65756   0.00000  Uiso   1.00
H947   H     0.07016   0.58709   0.64709   0.00000  Uiso   1.00
O948   O     0.21742   0.81694   0.88267   0.00000  Uiso   1.00
C949   C     0.27146   0.80540   0.88633   0.00000  Uiso   1.00
H950   H     0.28535   0.81728   0.85338   0.00000  Uiso   1.00
H951   H     0.27902   0.76866   0.88829   0.00000  Uiso   1.00
C952   C     0.30441   0.82870   0.92909   0.00000  Uiso   1.00
H953   H     0.29819   0.86535   0.92616   0.00000  Uiso   1.00
H954   H     0.29206   0.81720   0.96274   0.00000  Uiso   1.00
C955   C     0.02968   0.81847   0.93144   0.00000  Uiso   1.00
H956   H     0.03686   0.78201   0.93537   0.00000  Uiso   1.00
H957   H     0.05250   0.83569   0.96275   0.00000  Uiso   1.00
H958   H     0.04386   0.83027   0.89861   0.00000  Uiso   1.00
O959   O     0.25785   0.77307   0.53870   0.00000  Uiso   1.00
C960   C     0.30545   0.77770   0.57085   0.00000  Uiso   1.00
H961   H     0.00450   0.76807   0.55111   0.00000  Uiso   1.00
H962   H     0.30902   0.75434   0.60154   0.00000  Uiso   1.00
C963   C     0.31405   0.82663   0.58595   0.00000  Uiso   1.00
H964   H     0.31514   0.84732   0.55367   0.00000  Uiso   1.00
H965   H     0.28095   0.83876   0.60344   0.00000  Uiso   1.00
C966   C     0.03223   0.83293   0.62013   0.00000  Uiso   1.00
H967   H     0.03105   0.81420   0.65358   0.00000  Uiso   1.00
H968   H     0.03780   0.86885   0.62912   0.00000  Uiso   1.00
H969   H     0.06613   0.82125   0.60342   0.00000  Uiso   1.00
O970   O     0.12211   0.67631   0.96204   0.00000  Uiso   1.00
C971   C     0.16214   0.64560   0.98010   0.00000  Uiso   1.00
H972   H     0.14826   0.62708   0.50964   0.00000  Uiso   1.00
H973   H     0.19999   0.66189   0.99588   0.00000  Uiso   1.00
C974   C     0.17152   0.61216   0.94127   0.00000  Uiso   1.00
H975   H     0.13350   0.59644   0.92569   0.00000  Uiso   1.00
H976   H     0.18770   0.62976   0.91236   0.00000  Uiso   1.00
C977   C     0.21027   0.57583   0.96138   0.00000  Uiso   1.00
H978   H     0.24884   0.59080   0.97654   0.00000  Uiso   1.00
H979   H     0.21639   0.55235   0.93238   0.00000  Uiso   1.00
H980   H     0.19457   0.55687   0.98966   0.00000  Uiso   1.00
C981   C     0.49934   0.66388   0.74984   0.00000  Uiso   1.00
C982   C     0.49958   0.83613   0.75000   0.00000  Uiso   1.00
C983   C     0.45653   0.73510   0.54630   0.00000  Uiso   1.00
C984   C     0.52118   0.78450   0.95121   0.00000  Uiso   1.00
C985   C     0.45753   0.73387   0.59602   0.00000  Uiso   1.00
C986   C     0.52410   0.78343   0.90213   0.00000  Uiso   1.00
C987   C     0.54356   0.76426   0.60873   0.00000  Uiso   1.00
C988   C     0.47636   0.71571   0.89369   0.00000  Uiso   1.00
C989   C     0.54651   0.76211   0.55885   0.00000  Uiso   1.00
C990   C     0.47761   0.71307   0.94354   0.00000  Uiso   1.00
C991   C     0.50098   0.74865   0.52695   0.00000  Uiso   1.00
C992   C     0.49962   0.74861   0.97335   0.00000  Uiso   1.00
C993   C     0.40031   0.74981   0.73746   0.00000  Uiso   1.00
C994   C     0.59969   0.74995   0.76254   0.00000  Uiso   1.00
C995   C     0.34519   0.74922   0.73076   0.00000  Uiso   1.00
C996   C     0.65482   0.75004   0.76928   0.00000  Uiso   1.00
C997   C     0.47312   0.54802   0.78560   0.00000  Uiso   1.00
C998   C     0.47183   0.95190   0.70719   0.00000  Uiso   1.00
C999   C     0.47680   0.59396   0.78637   0.00000  Uiso   1.00
C1000  C     0.47576   0.90597   0.70743   0.00000  Uiso   1.00
C1001  C     0.49598   0.61601   0.74920   0.00000  Uiso   1.00
C1002  C     0.49653   0.88401   0.74967   0.00000  Uiso   1.00
C1003  C     0.51093   0.59219   0.71103   0.00000  Uiso   1.00
C1004  C     0.51325   0.90793   0.79169   0.00000  Uiso   1.00
C1005  C     0.50783   0.54622   0.71055   0.00000  Uiso   1.00
C1006  C     0.51003   0.95390   0.79128   0.00000  Uiso   1.00
C1007  C     0.48921   0.52410   0.74798   0.00000  Uiso   1.00
C1008  C     0.48946   0.97592   0.74899   0.00000  Uiso   1.00
H1009  H     0.65764   0.74808   0.69434   0.00000  Uiso   1.00
H1010  H     0.34237   0.75102   0.80573   0.00000  Uiso   1.00
H1011  H     0.45809   0.53115   0.81439   0.00000  Uiso   1.00
H1012  H     0.45534   0.96868   0.67446   0.00000  Uiso   1.00
H1013  H     0.46437   0.61217   0.81574   0.00000  Uiso   1.00
H1014  H     0.46220   0.88767   0.67484   0.00000  Uiso   1.00
H1015  H     0.52586   0.60897   0.68212   0.00000  Uiso   1.00
H1016  H     0.52964   0.89122   0.82447   0.00000  Uiso   1.00
H1017  H     0.52117   0.52794   0.68168   0.00000  Uiso   1.00
H1018  H     0.52468   0.97228   0.82359   0.00000  Uiso   1.00
H1019  H     0.42083   0.72543   0.52300   0.00000  Uiso   1.00
H1020  H     0.53655   0.81326   0.97198   0.00000  Uiso   1.00
H1021  H     0.57571   0.77701   0.63414   0.00000  Uiso   1.00
H1022  H     0.45768   0.68937   0.87095   0.00000  Uiso   1.00
N1023  N     0.50000   0.74999   0.62624   0.00000  Uiso   1.00
N1024  N     0.50000   0.75001   0.87377   0.00000  Uiso   1.00
O1025  O     0.50000   0.68454   0.78974   0.00000  Uiso   1.00
O1026  O     0.50000   0.81547   0.71026   0.00000  Uiso   1.00
O1027  O     0.50000   0.68453   0.71026   0.00000  Uiso   1.00
O1028  O     0.50000   0.81547   0.78974   0.00000  Uiso   1.00
O1029  O     0.42392   0.75000   0.78045   0.00000  Uiso   1.00
O1030  O     0.57608   0.75000   0.71956   0.00000  Uiso   1.00
O1031  O     0.42392   0.75000   0.70097   0.00000  Uiso   1.00
O1032  O     0.57608   0.75001   0.79904   0.00000  Uiso   1.00
Zn1033 Zn    0.50000   0.75001   0.80307   0.00000  Uiso   1.00
Zn1034 Zn    0.50000   0.75000   0.69693   0.00000  Uiso   1.00
O1035  O     0.41420   0.71876   0.61444   0.00000  Uiso   1.00
C1036  C     0.41054   0.67197   0.60897   0.00000  Uiso   1.00
H1037  H     0.44933   0.65546   0.62085   0.00000  Uiso   1.00
H1038  H     0.39636   0.66324   0.57095   0.00000  Uiso   1.00
C1039  C     0.37110   0.65429   0.63950   0.00000  Uiso   1.00
H1040  H     0.38478   0.66295   0.67755   0.00000  Uiso   1.00
H1041  H     0.66542   0.67024   0.62817   0.00000  Uiso   1.00
C1042  C     0.36512   0.60375   0.63497   0.00000  Uiso   1.00
H1043  H     0.35062   0.59423   0.59733   0.00000  Uiso   1.00
H1044  H     0.33627   0.59208   0.65756   0.00000  Uiso   1.00
H1045  H     0.40349   0.58709   0.64709   0.00000  Uiso   1.00
O1046  O     0.55075   0.81694   0.88267   0.00000  Uiso   1.00
C1047  C     0.60480   0.80540   0.88633   0.00000  Uiso   1.00
H1048  H     0.61869   0.81728   0.85338   0.00000  Uiso   1.00
H1049  H     0.61236   0.76866   0.88829   0.00000  Uiso   1.00
C1050  C     0.63774   0.82870   0.92909   0.00000  Uiso   1.00
H1051  H     0.63153   0.86535   0.92616   0.00000  Uiso   1.00
H1052  H     0.62539   0.81720   0.96274   0.00000  Uiso   1.00
C1053  C     0.36302   0.81847   0.93144   0.00000  Uiso   1.00
H1054  H     0.37019   0.78201   0.93537   0.00000  Uiso   1.00
H1055  H     0.38583   0.83569   0.96275   0.00000  Uiso   1.00
H1056  H     0.37719   0.83027   0.89861   0.00000  Uiso   1.00
O1057  O     0.59118   0.77307   0.53870   0.00000  Uiso   1.00
C1058  C     0.63878   0.77770   0.57085   0.00000  Uiso   1.00
H1059  H     0.33784   0.76807   0.55111   0.00000  Uiso   1.00
H1060  H     0.64235   0.75434   0.60154   0.00000  Uiso   1.00
C1061  C     0.64738   0.82663   0.58595   0.00000  Uiso   1.00
H1062  H     0.64848   0.84732   0.55367   0.00000  Uiso   1.00
H1063  H     0.61428   0.83876   0.60344   0.00000  Uiso   1.00
C1064  C     0.36556   0.83293   0.62013   0.00000  Uiso   1.00
H1065  H     0.36439   0.81420   0.65358   0.00000  Uiso   1.00
H1066  H     0.37113   0.86885   0.62912   0.00000  Uiso   1.00
H1067  H     0.39946   0.82125   0.60342   0.00000  Uiso   1.00
O1068  O     0.45544   0.67631   0.96204   0.00000  Uiso   1.00
C1069  C     0.49548   0.64560   0.98010   0.00000  Uiso   1.00
H1070  H     0.48159   0.62708   0.50964   0.00000  Uiso   1.00
H1071  H     0.53332   0.66189   0.99588   0.00000  Uiso   1.00
C1072  C     0.50485   0.61216   0.94127   0.00000  Uiso   1.00
H1073  H     0.46684   0.59644   0.92569   0.00000  Uiso   1.00
H1074  H     0.52104   0.62976   0.91236   0.00000  Uiso   1.00
C1075  C     0.54361   0.57583   0.96138   0.00000  Uiso   1.00
H1076  H     0.58217   0.59080   0.97654   0.00000  Uiso   1.00
H1077  H     0.54972   0.55235   0.93238   0.00000  Uiso   1.00
H1078  H     0.52791   0.55687   0.98966   0.00000  Uiso   1.00
C1079  C     0.83267   0.66388   0.74984   0.00000  Uiso   1.00
C1080  C     0.83292   0.83613   0.75000   0.00000  Uiso   1.00
C1081  C     0.78987   0.73510   0.54630   0.00000  Uiso   1.00
C1082  C     0.85452   0.78450   0.95121   0.00000  Uiso   1.00
C1083  C     0.79087   0.73387   0.59602   0.00000  Uiso   1.00
C1084  C     0.85744   0.78343   0.90213   0.00000  Uiso   1.00
C1085  C     0.87689   0.76426   0.60873   0.00000  Uiso   1.00
C1086  C     0.80970   0.71571   0.89369   0.00000  Uiso   1.00
C1087  C     0.87985   0.76211   0.55885   0.00000  Uiso   1.00
C1088  C     0.81094   0.71307   0.94354   0.00000  Uiso   1.00
C1089  C     0.83432   0.74865   0.52695   0.00000  Uiso   1.00
C1090  C     0.83295   0.74861   0.97335   0.00000  Uiso   1.00
C1091  C     0.73364   0.74981   0.73746   0.00000  Uiso   1.00
C1092  C     0.93303   0.74995   0.76254   0.00000  Uiso   1.00
C1093  C     0.67852   0.74922   0.73076   0.00000  Uiso   1.00
C1094  C     0.98815   0.75004   0.76928   0.00000  Uiso   1.00
C1095  C     0.80645   0.54802   0.78560   0.00000  Uiso   1.00
C1096  C     0.80516   0.95190   0.70719   0.00000  Uiso   1.00
C1097  C     0.81013   0.59396   0.78637   0.00000  Uiso   1.00
C1098  C     0.80909   0.90597   0.70743   0.00000  Uiso   1.00
C1099  C     0.82931   0.61601   0.74920   0.00000  Uiso   1.00
C1100  C     0.82987   0.88401   0.74967   0.00000  Uiso   1.00
C1101  C     0.84426   0.59219   0.71103   0.00000  Uiso   1.00
C1102  C     0.84659   0.90793   0.79169   0.00000  Uiso   1.00
C1103  C     0.84116   0.54622   0.71055   0.00000  Uiso   1.00
C1104  C     0.84337   0.95390   0.79128   0.00000  Uiso   1.00
C1105  C     0.82254   0.52410   0.74798   0.00000  Uiso   1.00
C1106  C     0.82280   0.97592   0.74899   0.00000  Uiso   1.00
H1107  H     0.99098   0.74808   0.69434   0.00000  Uiso   1.00
H1108  H     0.67570   0.75102   0.80573   0.00000  Uiso   1.00
H1109  H     0.79143   0.53115   0.81439   0.00000  Uiso   1.00
H1110  H     0.78868   0.96868   0.67446   0.00000  Uiso   1.00
H1111  H     0.79770   0.61217   0.81574   0.00000  Uiso   1.00
H1112  H     0.79553   0.88767   0.67484   0.00000  Uiso   1.00
H1113  H     0.85919   0.60897   0.68212   0.00000  Uiso   1.00
H1114  H     0.86297   0.89122   0.82447   0.00000  Uiso   1.00
H1115  H     0.85451   0.52794   0.68168   0.00000  Uiso   1.00
H1116  H     0.85801   0.97228   0.82359   0.00000  Uiso   1.00
H1117  H     0.75417   0.72543   0.52300   0.00000  Uiso   1.00
H1118  H     0.86989   0.81326   0.97198   0.00000  Uiso   1.00
H1119  H     0.90904   0.77701   0.63414   0.00000  Uiso   1.00
H1120  H     0.79102   0.68937   0.87095   0.00000  Uiso   1.00
N1121  N     0.83333   0.74999   0.62624   0.00000  Uiso   1.00
N1122  N     0.83333   0.75001   0.87377   0.00000  Uiso   1.00
O1123  O     0.83334   0.68454   0.78974   0.00000  Uiso   1.00
O1124  O     0.83333   0.81547   0.71026   0.00000  Uiso   1.00
O1125  O     0.83334   0.68453   0.71026   0.00000  Uiso   1.00
O1126  O     0.83333   0.81547   0.78974   0.00000  Uiso   1.00
O1127  O     0.75725   0.75000   0.78045   0.00000  Uiso   1.00
O1128  O     0.90942   0.75000   0.71956   0.00000  Uiso   1.00
O1129  O     0.75725   0.75000   0.70097   0.00000  Uiso   1.00
O1130  O     0.90942   0.75001   0.79904   0.00000  Uiso   1.00
Zn1131 Zn    0.83333   0.75001   0.80307   0.00000  Uiso   1.00
Zn1132 Zn    0.83333   0.75000   0.69693   0.00000  Uiso   1.00
O1133  O     0.74753   0.71876   0.61444   0.00000  Uiso   1.00
C1134  C     0.74387   0.67197   0.60897   0.00000  Uiso   1.00
H1135  H     0.78266   0.65546   0.62085   0.00000  Uiso   1.00
H1136  H     0.72969   0.66324   0.57095   0.00000  Uiso   1.00
C1137  C     0.70443   0.65429   0.63950   0.00000  Uiso   1.00
H1138  H     0.71811   0.66295   0.67755   0.00000  Uiso   1.00
H1139  H     0.99875   0.67024   0.62817   0.00000  Uiso   1.00
C1140  C     0.69846   0.60375   0.63497   0.00000  Uiso   1.00
H1141  H     0.68396   0.59423   0.59733   0.00000  Uiso   1.00
H1142  H     0.66961   0.59208   0.65756   0.00000  Uiso   1.00
H1143  H     0.73683   0.58709   0.64709   0.00000  Uiso   1.00
O1144  O     0.88409   0.81694   0.88267   0.00000  Uiso   1.00
C1145  C     0.93813   0.80540   0.88633   0.00000  Uiso   1.00
H1146  H     0.95202   0.81728   0.85338   0.00000  Uiso   1.00
H1147  H     0.94569   0.76866   0.88829   0.00000  Uiso   1.00
C1148  C     0.97108   0.82870   0.92909   0.00000  Uiso   1.00
H1149  H     0.96486   0.86535   0.92616   0.00000  Uiso   1.00
H1150  H     0.95873   0.81720   0.96274   0.00000  Uiso   1.00
C1151  C     0.69635   0.81847   0.93144   0.00000  Uiso   1.00
H1152  H     0.70352   0.78201   0.93537   0.00000  Uiso   1.00
H1153  H     0.71916   0.83569   0.96275   0.00000  Uiso   1.00
H1154  H     0.71053   0.83027   0.89861   0.00000  Uiso   1.00
O1155  O     0.92451   0.77307   0.53870   0.00000  Uiso   1.00
C1156  C     0.97212   0.77770   0.57085   0.00000  Uiso   1.00
H1157  H     0.67117   0.76807   0.55111   0.00000  Uiso   1.00
H1158  H     0.97569   0.75434   0.60154   0.00000  Uiso   1.00
C1159  C     0.98072   0.82663   0.58595   0.00000  Uiso   1.00
H1160  H     0.98181   0.84732   0.55367   0.00000  Uiso   1.00
H1161  H     0.94762   0.83876   0.60344   0.00000  Uiso   1.00
C1162  C     0.69890   0.83293   0.62013   0.00000  Uiso   1.00
H1163  H     0.69772   0.81420   0.65358   0.00000  Uiso   1.00
H1164  H     0.70447   0.86885   0.62912   0.00000  Uiso   1.00
H1165  H     0.73280   0.82125   0.60342   0.00000  Uiso   1.00
O1166  O     0.78878   0.67631   0.96204   0.00000  Uiso   1.00
C1167  C     0.82881   0.64560   0.98010   0.00000  Uiso   1.00
H1168  H     0.81493   0.62708   0.50964   0.00000  Uiso   1.00
H1169  H     0.86665   0.66189   0.99588   0.00000  Uiso   1.00
C1170  C     0.83819   0.61216   0.94127   0.00000  Uiso   1.00
H1171  H     0.80017   0.59644   0.92569   0.00000  Uiso   1.00
H1172  H     0.85437   0.62976   0.91236   0.00000  Uiso   1.00
C1173  C     0.87694   0.57583   0.96138   0.00000  Uiso   1.00
H1174  H     0.91550   0.59080   0.97654   0.00000  Uiso   1.00
H1175  H     0.88306   0.55235   0.93238   0.00000  Uiso   1.00
H1176  H     0.86124   0.55687   0.98966   0.00000  Uiso   1.00
loop_
_geom_bond_atom_site_label_1
_geom_bond_atom_site_label_2
_geom_bond_distance
_geom_bond_site_symmetry_2
_ccdc_geom_bond_type
C1     C21     1.437   .     S
C1     O47     1.286   .     A
C1     O45     1.286   .     A
C2     O46     1.286   .     A
C2     C22     1.437   .     S
C2     O48     1.287   .     A
C3     C5      1.407   .     A
C3     C11     1.403   .     A
C3     H39     1.082   .     S
C4     H40     1.082   .     S
C4     C12     1.405   .     A
C4     C6      1.406   .     A
C5     N43     1.365   .     A
C5     O55     1.379   .     S
C6     N44     1.369   .     A
C6     O66     1.381   .     S
C7     N43     1.363   .     A
C7     C9      1.430   .     A
C7     H41     1.077   .     S
C8     H42     1.082   .     S
C8     N44     1.363   .     A
C8     C10     1.412   .     A
C9     O77     1.400   .     S
C9     C11     1.420   .     A
C10    O88     1.383   .     S
C10    C12     1.420   .     A
C11    C600    1.515   1_554 S
C12    C599    1.515   .     S
C13    O51     1.279   .     A
C13    O49     1.274   .     A
C13    C15     1.399   .     S
C14    O52     1.279   .     A
C14    O50     1.274   .     A
C14    C16     1.399   .     S
C15    C212    1.332   1_455 S
C15    H225    1.088   1_455 S
C16    C113    1.332   .     S
C16    H128    1.088   .     S
C17    C27     1.399   .     A
C17    H31     1.083   .     S
C17    C19     1.380   .     A
C18    C20     1.380   .     A
C18    C28     1.399   .     A
C18    H32     1.083   .     S
C19    C21     1.400   .     A
C19    H33     1.084   .     S
C20    H34     1.083   .     S
C20    C22     1.399   .     A
C21    C23     1.398   .     A
C22    C24     1.398   .     A
C23    C25     1.380   .     A
C23    H35     1.084   .     S
C24    C26     1.381   .     A
C24    H36     1.083   .     S
C25    H37     1.083   .     S
C25    C27     1.400   .     A
C26    H38     1.083   .     S
C26    C28     1.400   .     A
C27    C322    1.445   1_545 S
C28    C321    1.445   .     S
H29    C113    1.088   .     S
H30    C212    1.088   1_455 S
N43    Zn54    2.005   .     S
N44    Zn53    2.005   .     S
O45    Zn53    1.997   .     S
O46    Zn54    1.997   .     S
O47    Zn54    2.000   .     S
O48    Zn53    2.000   .     S
O49    Zn53    1.960   .     S
O50    Zn54    1.960   .     S
O51    Zn54    1.976   .     S
O52    Zn53    1.976   .     S
O55    C56     1.412   .     S
C56    H57     1.117   .     S
C56    C59     1.529   .     S
C56    H58     1.113   .     S
C59    H60     1.111   .     S
C59    C62     1.526   .     S
C59    H257    1.112   1_455 S
H61    C157    1.112   .     S
C62    H64     1.110   .     S
C62    H63     1.111   .     S
C62    H65     1.111   .     S
O66    C67     1.419   .     S
C67    H68     1.111   .     S
C67    H69     1.118   .     S
C67    C70     1.533   .     S
C70    H71     1.111   .     S
C70    H72     1.108   .     S
C70    C171    1.528   .     S
C73    H74     1.111   .     S
C73    H75     1.111   .     S
C73    H76     1.111   .     S
C73    C266    1.528   1_455 S
O77    C78     1.413   .     S
C78    H80     1.112   .     S
C78    C81     1.533   .     S
C78    H177    1.111   .     S
H79    C274    1.111   1_455 S
C81    H82     1.112   .     S
C81    H83     1.110   .     S
C81    C182    1.525   .     S
C84    H87     1.111   .     S
C84    H85     1.109   .     S
C84    H86     1.110   .     S
C84    C277    1.525   1_455 S
O88    C89     1.416   .     S
C89    H91     1.117   .     S
C89    C92     1.533   .     S
C89    H678    1.111   .     S
H90    C677    1.111   1_554 S
C92    C95     1.526   .     S
C92    H94     1.111   .     S
C92    H93     1.112   .     S
C95    H96     1.111   .     S
C95    H98     1.111   .     S
C95    H97     1.111   .     S
C99    C119    1.437   .     S
C99    O145    1.286   .     A
C99    O143    1.286   .     A
C100   O144    1.286   .     A
C100   C120    1.437   .     S
C100   O146    1.287   .     A
C101   C103    1.407   .     A
C101   C109    1.403   .     A
C101   H137    1.082   .     S
C102   H138    1.082   .     S
C102   C110    1.405   .     A
C102   C104    1.406   .     A
C103   N141    1.365   .     A
C103   O153    1.379   .     S
C104   N142    1.369   .     A
C104   O164    1.381   .     S
C105   N141    1.363   .     A
C105   C107    1.430   .     A
C105   H139    1.077   .     S
C106   H140    1.082   .     S
C106   N142    1.363   .     A
C106   C108    1.412   .     A
C107   O175    1.400   .     S
C107   C109    1.420   .     A
C108   O186    1.383   .     S
C108   C110    1.420   .     A
C109   C698    1.515   1_554 S
C110   C697    1.515   .     S
C111   O149    1.279   .     A
C111   O147    1.274   .     A
C111   C113    1.399   .     S
C112   O150    1.279   .     A
C112   O148    1.274   .     A
C112   C114    1.399   .     S
C114   C211    1.332   .     S
C114   H226    1.088   .     S
C115   C125    1.399   .     A
C115   H129    1.083   .     S
C115   C117    1.380   .     A
C116   C118    1.380   .     A
C116   C126    1.399   .     A
C116   H130    1.083   .     S
C117   C119    1.400   .     A
C117   H131    1.084   .     S
C118   H132    1.083   .     S
C118   C120    1.399   .     A
C119   C121    1.398   .     A
C120   C122    1.398   .     A
C121   C123    1.380   .     A
C121   H133    1.084   .     S
C122   C124    1.381   .     A
C122   H134    1.083   .     S
C123   H135    1.083   .     S
C123   C125    1.400   .     A
C124   H136    1.083   .     S
C124   C126    1.400   .     A
C125   C420    1.445   1_545 S
C126   C419    1.445   .     S
H127   C211    1.088   .     S
N141   Zn152   2.005   .     S
N142   Zn151   2.005   .     S
O143   Zn151   1.997   .     S
O144   Zn152   1.997   .     S
O145   Zn152   2.000   .     S
O146   Zn151   2.000   .     S
O147   Zn151   1.960   .     S
O148   Zn152   1.960   .     S
O149   Zn152   1.976   .     S
O150   Zn151   1.976   .     S
O153   C154    1.412   .     S
C154   H155    1.117   .     S
C154   C157    1.529   .     S
C154   H156    1.113   .     S
C157   H158    1.111   .     S
C157   C160    1.526   .     S
H159   C255    1.112   .     S
C160   H162    1.110   .     S
C160   H161    1.111   .     S
C160   H163    1.111   .     S
O164   C165    1.419   .     S
C165   H166    1.111   .     S
C165   H167    1.118   .     S
C165   C168    1.533   .     S
C168   H169    1.111   .     S
C168   H170    1.108   .     S
C168   C269    1.528   .     S
C171   H172    1.111   .     S
C171   H173    1.111   .     S
C171   H174    1.111   .     S
O175   C176    1.413   .     S
C176   H178    1.112   .     S
C176   C179    1.533   .     S
C176   H275    1.111   .     S
C179   H180    1.112   .     S
C179   H181    1.110   .     S
C179   C280    1.525   .     S
C182   H185    1.111   .     S
C182   H183    1.109   .     S
C182   H184    1.110   .     S
O186   C187    1.416   .     S
C187   H189    1.117   .     S
C187   C190    1.533   .     S
C187   H776    1.111   .     S
H188   C775    1.111   1_554 S
C190   C193    1.526   .     S
C190   H192    1.111   .     S
C190   H191    1.112   .     S
C193   H194    1.111   .     S
C193   H196    1.111   .     S
C193   H195    1.111   .     S
C197   C217    1.437   .     S
C197   O243    1.286   .     A
C197   O241    1.286   .     A
C198   O242    1.286   .     A
C198   C218    1.437   .     S
C198   O244    1.287   .     A
C199   C201    1.407   .     A
C199   C207    1.403   .     A
C199   H235    1.082   .     S
C200   H236    1.082   .     S
C200   C208    1.405   .     A
C200   C202    1.406   .     A
C201   N239    1.365   .     A
C201   O251    1.379   .     S
C202   N240    1.369   .     A
C202   O262    1.381   .     S
C203   N239    1.363   .     A
C203   C205    1.430   .     A
C203   H237    1.077   .     S
C204   H238    1.082   .     S
C204   N240    1.363   .     A
C204   C206    1.412   .     A
C205   O273    1.400   .     S
C205   C207    1.420   .     A
C206   O284    1.383   .     S
C206   C208    1.420   .     A
C207   C796    1.515   1_554 S
C208   C795    1.515   .     S
C209   O247    1.279   .     A
C209   O245    1.274   .     A
C209   C211    1.399   .     S
C210   O248    1.279   .     A
C210   O246    1.274   .     A
C210   C212    1.399   .     S
C212   C15     1.332   1_655 S
C212   H30     1.088   1_655 S
C213   C223    1.399   .     A
C213   H227    1.083   .     S
C213   C215    1.380   .     A
C214   C216    1.380   .     A
C214   C224    1.399   .     A
C214   H228    1.083   .     S
C215   C217    1.400   .     A
C215   H229    1.084   .     S
C216   H230    1.083   .     S
C216   C218    1.399   .     A
C217   C219    1.398   .     A
C218   C220    1.398   .     A
C219   C221    1.380   .     A
C219   H231    1.084   .     S
C220   C222    1.381   .     A
C220   H232    1.083   .     S
C221   H233    1.083   .     S
C221   C223    1.400   .     A
C222   H234    1.083   .     S
C222   C224    1.400   .     A
C223   C518    1.445   1_545 S
C224   C517    1.445   .     S
H225   C15     1.088   1_655 S
N239   Zn250   2.005   .     S
N240   Zn249   2.005   .     S
O241   Zn249   1.997   .     S
O242   Zn250   1.997   .     S
O243   Zn250   2.000   .     S
O244   Zn249   2.000   .     S
O245   Zn249   1.960   .     S
O246   Zn250   1.960   .     S
O247   Zn250   1.976   .     S
O248   Zn249   1.976   .     S
O251   C252    1.412   .     S
C252   H253    1.117   .     S
C252   C255    1.529   .     S
C252   H254    1.113   .     S
C255   H256    1.111   .     S
C255   C258    1.526   .     S
H257   C59     1.112   1_655 S
C258   H260    1.110   .     S
C258   H259    1.111   .     S
C258   H261    1.111   .     S
O262   C263    1.419   .     S
C263   H264    1.111   .     S
C263   H265    1.118   .     S
C263   C266    1.533   .     S
C266   H267    1.111   .     S
C266   H268    1.108   .     S
C266   C73     1.528   1_655 S
C269   H270    1.111   .     S
C269   H271    1.111   .     S
C269   H272    1.111   .     S
O273   C274    1.413   .     S
C274   H276    1.112   .     S
C274   C277    1.533   .     S
C274   H79     1.111   1_655 S
C277   H278    1.112   .     S
C277   H279    1.110   .     S
C277   C84     1.525   1_655 S
C280   H283    1.111   .     S
C280   H281    1.109   .     S
C280   H282    1.110   .     S
O284   C285    1.416   .     S
C285   H287    1.117   .     S
C285   C288    1.533   .     S
C285   H874    1.111   .     S
H286   C873    1.111   1_554 S
C288   C291    1.526   .     S
C288   H290    1.111   .     S
C288   H289    1.112   .     S
C291   H292    1.111   .     S
C291   H294    1.111   .     S
C291   H293    1.111   .     S
C295   C315    1.437   .     S
C295   O341    1.286   .     A
C295   O339    1.286   .     A
C296   O340    1.286   .     A
C296   C316    1.437   .     S
C296   O342    1.287   .     A
C297   C299    1.407   .     A
C297   C305    1.403   .     A
C297   H333    1.082   .     S
C298   H334    1.082   .     S
C298   C306    1.405   .     A
C298   C300    1.406   .     A
C299   N337    1.365   .     A
C299   O349    1.379   .     S
C300   N338    1.369   .     A
C300   O360    1.381   .     S
C301   N337    1.363   .     A
C301   C303    1.430   .     A
C301   H335    1.077   .     S
C302   H336    1.082   .     S
C302   N338    1.363   .     A
C302   C304    1.412   .     A
C303   O371    1.400   .     S
C303   C305    1.420   .     A
C304   O382    1.383   .     S
C304   C306    1.420   .     A
C305   C894    1.515   1_554 S
C306   C893    1.515   .     S
C307   O345    1.279   .     A
C307   O343    1.274   .     A
C307   C309    1.399   .     S
C308   O346    1.279   .     A
C308   O344    1.274   .     A
C308   C310    1.399   .     S
C309   C506    1.332   1_455 S
C309   H519    1.088   1_455 S
C310   C407    1.332   .     S
C310   H422    1.088   .     S
C311   C321    1.399   .     A
C311   H325    1.083   .     S
C311   C313    1.380   .     A
C312   C314    1.380   .     A
C312   C322    1.399   .     A
C312   H326    1.083   .     S
C313   C315    1.400   .     A
C313   H327    1.084   .     S
C314   H328    1.083   .     S
C314   C316    1.399   .     A
C315   C317    1.398   .     A
C316   C318    1.398   .     A
C317   C319    1.380   .     A
C317   H329    1.084   .     S
C318   C320    1.381   .     A
C318   H330    1.083   .     S
C319   H331    1.083   .     S
C319   C321    1.400   .     A
C320   H332    1.083   .     S
C320   C322    1.400   .     A
C322   C27     1.445   1_565 S
H323   C407    1.088   .     S
H324   C506    1.088   1_455 S
N337   Zn348   2.005   .     S
N338   Zn347   2.005   .     S
O339   Zn347   1.997   .     S
O340   Zn348   1.997   .     S
O341   Zn348   2.000   .     S
O342   Zn347   2.000   .     S
O343   Zn347   1.960   .     S
O344   Zn348   1.960   .     S
O345   Zn348   1.976   .     S
O346   Zn347   1.976   .     S
O349   C350    1.412   .     S
C350   H351    1.117   .     S
C350   C353    1.529   .     S
C350   H352    1.113   .     S
C353   H354    1.111   .     S
C353   C356    1.526   .     S
C353   H551    1.112   1_455 S
H355   C451    1.112   .     S
C356   H358    1.110   .     S
C356   H357    1.111   .     S
C356   H359    1.111   .     S
O360   C361    1.419   .     S
C361   H362    1.111   .     S
C361   H363    1.118   .     S
C361   C364    1.533   .     S
C364   H365    1.111   .     S
C364   H366    1.108   .     S
C364   C465    1.528   .     S
C367   H368    1.111   .     S
C367   H369    1.111   .     S
C367   H370    1.111   .     S
C367   C560    1.528   1_455 S
O371   C372    1.413   .     S
C372   H374    1.112   .     S
C372   C375    1.533   .     S
C372   H471    1.111   .     S
H373   C568    1.111   1_455 S
C375   H376    1.112   .     S
C375   H377    1.110   .     S
C375   C476    1.525   .     S
C378   H381    1.111   .     S
C378   H379    1.109   .     S
C378   H380    1.110   .     S
C378   C571    1.525   1_455 S
O382   C383    1.416   .     S
C383   H385    1.117   .     S
C383   C386    1.533   .     S
C383   H972    1.111   .     S
H384   C971    1.111   1_554 S
C386   C389    1.526   .     S
C386   H388    1.111   .     S
C386   H387    1.112   .     S
C389   H390    1.111   .     S
C389   H392    1.111   .     S
C389   H391    1.111   .     S
C393   C413    1.437   .     S
C393   O439    1.286   .     A
C393   O437    1.286   .     A
C394   O438    1.286   .     A
C394   C414    1.437   .     S
C394   O440    1.287   .     A
C395   C397    1.407   .     A
C395   C403    1.403   .     A
C395   H431    1.082   .     S
C396   H432    1.082   .     S
C396   C404    1.405   .     A
C396   C398    1.406   .     A
C397   N435    1.365   .     A
C397   O447    1.379   .     S
C398   N436    1.369   .     A
C398   O458    1.381   .     S
C399   N435    1.363   .     A
C399   C401    1.430   .     A
C399   H433    1.077   .     S
C400   H434    1.082   .     S
C400   N436    1.363   .     A
C400   C402    1.412   .     A
C401   O469    1.400   .     S
C401   C403    1.420   .     A
C402   O480    1.383   .     S
C402   C404    1.420   .     A
C403   C992    1.515   1_554 S
C404   C991    1.515   .     S
C405   O443    1.279   .     A
C405   O441    1.274   .     A
C405   C407    1.399   .     S
C406   O444    1.279   .     A
C406   O442    1.274   .     A
C406   C408    1.399   .     S
C408   C505    1.332   .     S
C408   H520    1.088   .     S
C409   C419    1.399   .     A
C409   H423    1.083   .     S
C409   C411    1.380   .     A
C410   C412    1.380   .     A
C410   C420    1.399   .     A
C410   H424    1.083   .     S
C411   C413    1.400   .     A
C411   H425    1.084   .     S
C412   H426    1.083   .     S
C412   C414    1.399   .     A
C413   C415    1.398   .     A
C414   C416    1.398   .     A
C415   C417    1.380   .     A
C415   H427    1.084   .     S
C416   C418    1.381   .     A
C416   H428    1.083   .     S
C417   H429    1.083   .     S
C417   C419    1.400   .     A
C418   H430    1.083   .     S
C418   C420    1.400   .     A
C420   C125    1.445   1_565 S
H421   C505    1.088   .     S
N435   Zn446   2.005   .     S
N436   Zn445   2.005   .     S
O437   Zn445   1.997   .     S
O438   Zn446   1.997   .     S
O439   Zn446   2.000   .     S
O440   Zn445   2.000   .     S
O441   Zn445   1.960   .     S
O442   Zn446   1.960   .     S
O443   Zn446   1.976   .     S
O444   Zn445   1.976   .     S
O447   C448    1.412   .     S
C448   H449    1.117   .     S
C448   C451    1.529   .     S
C448   H450    1.113   .     S
C451   H452    1.111   .     S
C451   C454    1.526   .     S
H453   C549    1.112   .     S
C454   H456    1.110   .     S
C454   H455    1.111   .     S
C454   H457    1.111   .     S
O458   C459    1.419   .     S
C459   H460    1.111   .     S
C459   H461    1.118   .     S
C459   C462    1.533   .     S
C462   H463    1.111   .     S
C462   H464    1.108   .     S
C462   C563    1.528   .     S
C465   H466    1.111   .     S
C465   H467    1.111   .     S
C465   H468    1.111   .     S
O469   C470    1.413   .     S
C470   H472    1.112   .     S
C470   C473    1.533   .     S
C470   H569    1.111   .     S
C473   H474    1.112   .     S
C473   H475    1.110   .     S
C473   C574    1.525   .     S
C476   H479    1.111   .     S
C476   H477    1.109   .     S
C476   H478    1.110   .     S
O480   C481    1.416   .     S
C481   H483    1.117   .     S
C481   C484    1.533   .     S
C481   H1070   1.111   .     S
H482   C1069   1.111   1_554 S
C484   C487    1.526   .     S
C484   H486    1.111   .     S
C484   H485    1.112   .     S
C487   H488    1.111   .     S
C487   H490    1.111   .     S
C487   H489    1.111   .     S
C491   C511    1.437   .     S
C491   O537    1.286   .     A
C491   O535    1.286   .     A
C492   O536    1.286   .     A
C492   C512    1.437   .     S
C492   O538    1.287   .     A
C493   C495    1.407   .     A
C493   C501    1.403   .     A
C493   H529    1.082   .     S
C494   H530    1.082   .     S
C494   C502    1.405   .     A
C494   C496    1.406   .     A
C495   N533    1.365   .     A
C495   O545    1.379   .     S
C496   N534    1.369   .     A
C496   O556    1.381   .     S
C497   N533    1.363   .     A
C497   C499    1.430   .     A
C497   H531    1.077   .     S
C498   H532    1.082   .     S
C498   N534    1.363   .     A
C498   C500    1.412   .     A
C499   O567    1.400   .     S
C499   C501    1.420   .     A
C500   O578    1.383   .     S
C500   C502    1.420   .     A
C501   C1090   1.515   1_554 S
C502   C1089   1.515   .     S
C503   O541    1.279   .     A
C503   O539    1.274   .     A
C503   C505    1.399   .     S
C504   O542    1.279   .     A
C504   O540    1.274   .     A
C504   C506    1.399   .     S
C506   C309    1.332   1_655 S
C506   H324    1.088   1_655 S
C507   C517    1.399   .     A
C507   H521    1.083   .     S
C507   C509    1.380   .     A
C508   C510    1.380   .     A
C508   C518    1.399   .     A
C508   H522    1.083   .     S
C509   C511    1.400   .     A
C509   H523    1.084   .     S
C510   H524    1.083   .     S
C510   C512    1.399   .     A
C511   C513    1.398   .     A
C512   C514    1.398   .     A
C513   C515    1.380   .     A
C513   H525    1.084   .     S
C514   C516    1.381   .     A
C514   H526    1.083   .     S
C515   H527    1.083   .     S
C515   C517    1.400   .     A
C516   H528    1.083   .     S
C516   C518    1.400   .     A
C518   C223    1.445   1_565 S
H519   C309    1.088   1_655 S
N533   Zn544   2.005   .     S
N534   Zn543   2.005   .     S
O535   Zn543   1.997   .     S
O536   Zn544   1.997   .     S
O537   Zn544   2.000   .     S
O538   Zn543   2.000   .     S
O539   Zn543   1.960   .     S
O540   Zn544   1.960   .     S
O541   Zn544   1.976   .     S
O542   Zn543   1.976   .     S
O545   C546    1.412   .     S
C546   H547    1.117   .     S
C546   C549    1.529   .     S
C546   H548    1.113   .     S
C549   H550    1.111   .     S
C549   C552    1.526   .     S
H551   C353    1.112   1_655 S
C552   H554    1.110   .     S
C552   H553    1.111   .     S
C552   H555    1.111   .     S
O556   C557    1.419   .     S
C557   H558    1.111   .     S
C557   H559    1.118   .     S
C557   C560    1.533   .     S
C560   H561    1.111   .     S
C560   H562    1.108   .     S
C560   C367    1.528   1_655 S
C563   H564    1.111   .     S
C563   H565    1.111   .     S
C563   H566    1.111   .     S
O567   C568    1.413   .     S
C568   H570    1.112   .     S
C568   C571    1.533   .     S
C568   H373    1.111   1_655 S
C571   H572    1.112   .     S
C571   H573    1.110   .     S
C571   C378    1.525   1_655 S
C574   H577    1.111   .     S
C574   H575    1.109   .     S
C574   H576    1.110   .     S
O578   C579    1.416   .     S
C579   H581    1.117   .     S
C579   C582    1.533   .     S
C579   H1168   1.111   .     S
H580   C1167   1.111   1_554 S
C582   C585    1.526   .     S
C582   H584    1.111   .     S
C582   H583    1.112   .     S
C585   H586    1.111   .     S
C585   H588    1.111   .     S
C585   H587    1.111   .     S
C589   C609    1.437   .     S
C589   O635    1.286   .     A
C589   O633    1.286   .     A
C590   O634    1.286   .     A
C590   C610    1.437   .     S
C590   O636    1.287   .     A
C591   C593    1.407   .     A
C591   C599    1.403   .     A
C591   H627    1.082   .     S
C592   H628    1.082   .     S
C592   C600    1.405   .     A
C592   C594    1.406   .     A
C593   N631    1.365   .     A
C593   O643    1.379   .     S
C594   N632    1.369   .     A
C594   O654    1.381   .     S
C595   N631    1.363   .     A
C595   C597    1.430   .     A
C595   H629    1.077   .     S
C596   H630    1.082   .     S
C596   N632    1.363   .     A
C596   C598    1.412   .     A
C597   O665    1.400   .     S
C597   C599    1.420   .     A
C598   O676    1.383   .     S
C598   C600    1.420   .     A
C600   C11     1.515   1_556 S
C601   O639    1.279   .     A
C601   O637    1.274   .     A
C601   C603    1.399   .     S
C602   O640    1.279   .     A
C602   O638    1.274   .     A
C602   C604    1.399   .     S
C603   C800    1.332   1_455 S
C603   H813    1.088   1_455 S
C604   C701    1.332   .     S
C604   H716    1.088   .     S
C605   C615    1.399   .     A
C605   H619    1.083   .     S
C605   C607    1.380   .     A
C606   C608    1.380   .     A
C606   C616    1.399   .     A
C606   H620    1.083   .     S
C607   C609    1.400   .     A
C607   H621    1.084   .     S
C608   H622    1.083   .     S
C608   C610    1.399   .     A
C609   C611    1.398   .     A
C610   C612    1.398   .     A
C611   C613    1.380   .     A
C611   H623    1.084   .     S
C612   C614    1.381   .     A
C612   H624    1.083   .     S
C613   H625    1.083   .     S
C613   C615    1.400   .     A
C614   H626    1.083   .     S
C614   C616    1.400   .     A
C615   C910    1.445   1_545 S
C616   C909    1.445   .     S
H617   C701    1.088   .     S
H618   C800    1.088   1_455 S
N631   Zn642   2.005   .     S
N632   Zn641   2.005   .     S
O633   Zn641   1.997   .     S
O634   Zn642   1.997   .     S
O635   Zn642   2.000   .     S
O636   Zn641   2.000   .     S
O637   Zn641   1.960   .     S
O638   Zn642   1.960   .     S
O639   Zn642   1.976   .     S
O640   Zn641   1.976   .     S
O643   C644    1.412   .     S
C644   H645    1.117   .     S
C644   C647    1.529   .     S
C644   H646    1.113   .     S
C647   H648    1.111   .     S
C647   C650    1.526   .     S
C647   H845    1.112   1_455 S
H649   C745    1.112   .     S
C650   H652    1.110   .     S
C650   H651    1.111   .     S
C650   H653    1.111   .     S
O654   C655    1.419   .     S
C655   H656    1.111   .     S
C655   H657    1.118   .     S
C655   C658    1.533   .     S
C658   H659    1.111   .     S
C658   H660    1.108   .     S
C658   C759    1.528   .     S
C661   H662    1.111   .     S
C661   H663    1.111   .     S
C661   H664    1.111   .     S
C661   C854    1.528   1_455 S
O665   C666    1.413   .     S
C666   H668    1.112   .     S
C666   C669    1.533   .     S
C666   H765    1.111   .     S
H667   C862    1.111   1_455 S
C669   H670    1.112   .     S
C669   H671    1.110   .     S
C669   C770    1.525   .     S
C672   H675    1.111   .     S
C672   H673    1.109   .     S
C672   H674    1.110   .     S
C672   C865    1.525   1_455 S
O676   C677    1.416   .     S
C677   H679    1.117   .     S
C677   C680    1.533   .     S
C677   H90     1.111   1_556 S
C680   C683    1.526   .     S
C680   H682    1.111   .     S
C680   H681    1.112   .     S
C683   H684    1.111   .     S
C683   H686    1.111   .     S
C683   H685    1.111   .     S
C687   C707    1.437   .     S
C687   O733    1.286   .     A
C687   O731    1.286   .     A
C688   O732    1.286   .     A
C688   C708    1.437   .     S
C688   O734    1.287   .     A
C689   C691    1.407   .     A
C689   C697    1.403   .     A
C689   H725    1.082   .     S
C690   H726    1.082   .     S
C690   C698    1.405   .     A
C690   C692    1.406   .     A
C691   N729    1.365   .     A
C691   O741    1.379   .     S
C692   N730    1.369   .     A
C692   O752    1.381   .     S
C693   N729    1.363   .     A
C693   C695    1.430   .     A
C693   H727    1.077   .     S
C694   H728    1.082   .     S
C694   N730    1.363   .     A
C694   C696    1.412   .     A
C695   O763    1.400   .     S
C695   C697    1.420   .     A
C696   O774    1.383   .     S
C696   C698    1.420   .     A
C698   C109    1.515   1_556 S
C699   O737    1.279   .     A
C699   O735    1.274   .     A
C699   C701    1.399   .     S
C700   O738    1.279   .     A
C700   O736    1.274   .     A
C700   C702    1.399   .     S
C702   C799    1.332   .     S
C702   H814    1.088   .     S
C703   C713    1.399   .     A
C703   H717    1.083   .     S
C703   C705    1.380   .     A
C704   C706    1.380   .     A
C704   C714    1.399   .     A
C704   H718    1.083   .     S
C705   C707    1.400   .     A
C705   H719    1.084   .     S
C706   H720    1.083   .     S
C706   C708    1.399   .     A
C707   C709    1.398   .     A
C708   C710    1.398   .     A
C709   C711    1.380   .     A
C709   H721    1.084   .     S
C710   C712    1.381   .     A
C710   H722    1.083   .     S
C711   H723    1.083   .     S
C711   C713    1.400   .     A
C712   H724    1.083   .     S
C712   C714    1.400   .     A
C713   C1008   1.445   1_545 S
C714   C1007   1.445   .     S
H715   C799    1.088   .     S
N729   Zn740   2.005   .     S
N730   Zn739   2.005   .     S
O731   Zn739   1.997   .     S
O732   Zn740   1.997   .     S
O733   Zn740   2.000   .     S
O734   Zn739   2.000   .     S
O735   Zn739   1.960   .     S
O736   Zn740   1.960   .     S
O737   Zn740   1.976   .     S
O738   Zn739   1.976   .     S
O741   C742    1.412   .     S
C742   H743    1.117   .     S
C742   C745    1.529   .     S
C742   H744    1.113   .     S
C745   H746    1.111   .     S
C745   C748    1.526   .     S
H747   C843    1.112   .     S
C748   H750    1.110   .     S
C748   H749    1.111   .     S
C748   H751    1.111   .     S
O752   C753    1.419   .     S
C753   H754    1.111   .     S
C753   H755    1.118   .     S
C753   C756    1.533   .     S
C756   H757    1.111   .     S
C756   H758    1.108   .     S
C756   C857    1.528   .     S
C759   H760    1.111   .     S
C759   H761    1.111   .     S
C759   H762    1.111   .     S
O763   C764    1.413   .     S
C764   H766    1.112   .     S
C764   C767    1.533   .     S
C764   H863    1.111   .     S
C767   H768    1.112   .     S
C767   H769    1.110   .     S
C767   C868    1.525   .     S
C770   H773    1.111   .     S
C770   H771    1.109   .     S
C770   H772    1.110   .     S
O774   C775    1.416   .     S
C775   H777    1.117   .     S
C775   C778    1.533   .     S
C775   H188    1.111   1_556 S
C778   C781    1.526   .     S
C778   H780    1.111   .     S
C778   H779    1.112   .     S
C781   H782    1.111   .     S
C781   H784    1.111   .     S
C781   H783    1.111   .     S
C785   C805    1.437   .     S
C785   O831    1.286   .     A
C785   O829    1.286   .     A
C786   O830    1.286   .     A
C786   C806    1.437   .     S
C786   O832    1.287   .     A
C787   C789    1.407   .     A
C787   C795    1.403   .     A
C787   H823    1.082   .     S
C788   H824    1.082   .     S
C788   C796    1.405   .     A
C788   C790    1.406   .     A
C789   N827    1.365   .     A
C789   O839    1.379   .     S
C790   N828    1.369   .     A
C790   O850    1.381   .     S
C791   N827    1.363   .     A
C791   C793    1.430   .     A
C791   H825    1.077   .     S
C792   H826    1.082   .     S
C792   N828    1.363   .     A
C792   C794    1.412   .     A
C793   O861    1.400   .     S
C793   C795    1.420   .     A
C794   O872    1.383   .     S
C794   C796    1.420   .     A
C796   C207    1.515   1_556 S
C797   O835    1.279   .     A
C797   O833    1.274   .     A
C797   C799    1.399   .     S
C798   O836    1.279   .     A
C798   O834    1.274   .     A
C798   C800    1.399   .     S
C800   C603    1.332   1_655 S
C800   H618    1.088   1_655 S
C801   C811    1.399   .     A
C801   H815    1.083   .     S
C801   C803    1.380   .     A
C802   C804    1.380   .     A
C802   C812    1.399   .     A
C802   H816    1.083   .     S
C803   C805    1.400   .     A
C803   H817    1.084   .     S
C804   H818    1.083   .     S
C804   C806    1.399   .     A
C805   C807    1.398   .     A
C806   C808    1.398   .     A
C807   C809    1.380   .     A
C807   H819    1.084   .     S
C808   C810    1.381   .     A
C808   H820    1.083   .     S
C809   H821    1.083   .     S
C809   C811    1.400   .     A
C810   H822    1.083   .     S
C810   C812    1.400   .     A
C811   C1106   1.445   1_545 S
C812   C1105   1.445   .     S
H813   C603    1.088   1_655 S
N827   Zn838   2.005   .     S
N828   Zn837   2.005   .     S
O829   Zn837   1.997   .     S
O830   Zn838   1.997   .     S
O831   Zn838   2.000   .     S
O832   Zn837   2.000   .     S
O833   Zn837   1.960   .     S
O834   Zn838   1.960   .     S
O835   Zn838   1.976   .     S
O836   Zn837   1.976   .     S
O839   C840    1.412   .     S
C840   H841    1.117   .     S
C840   C843    1.529   .     S
C840   H842    1.113   .     S
C843   H844    1.111   .     S
C843   C846    1.526   .     S
H845   C647    1.112   1_655 S
C846   H848    1.110   .     S
C846   H847    1.111   .     S
C846   H849    1.111   .     S
O850   C851    1.419   .     S
C851   H852    1.111   .     S
C851   H853    1.118   .     S
C851   C854    1.533   .     S
C854   H855    1.111   .     S
C854   H856    1.108   .     S
C854   C661    1.528   1_655 S
C857   H858    1.111   .     S
C857   H859    1.111   .     S
C857   H860    1.111   .     S
O861   C862    1.413   .     S
C862   H864    1.112   .     S
C862   C865    1.533   .     S
C862   H667    1.111   1_655 S
C865   H866    1.112   .     S
C865   H867    1.110   .     S
C865   C672    1.525   1_655 S
C868   H871    1.111   .     S
C868   H869    1.109   .     S
C868   H870    1.110   .     S
O872   C873    1.416   .     S
C873   H875    1.117   .     S
C873   C876    1.533   .     S
C873   H286    1.111   1_556 S
C876   C879    1.526   .     S
C876   H878    1.111   .     S
C876   H877    1.112   .     S
C879   H880    1.111   .     S
C879   H882    1.111   .     S
C879   H881    1.111   .     S
C883   C903    1.437   .     S
C883   O929    1.286   .     A
C883   O927    1.286   .     A
C884   O928    1.286   .     A
C884   C904    1.437   .     S
C884   O930    1.287   .     A
C885   C887    1.407   .     A
C885   C893    1.403   .     A
C885   H921    1.082   .     S
C886   H922    1.082   .     S
C886   C894    1.405   .     A
C886   C888    1.406   .     A
C887   N925    1.365   .     A
C887   O937    1.379   .     S
C888   N926    1.369   .     A
C888   O948    1.381   .     S
C889   N925    1.363   .     A
C889   C891    1.430   .     A
C889   H923    1.077   .     S
C890   H924    1.082   .     S
C890   N926    1.363   .     A
C890   C892    1.412   .     A
C891   O959    1.400   .     S
C891   C893    1.420   .     A
C892   O970    1.383   .     S
C892   C894    1.420   .     A
C894   C305    1.515   1_556 S
C895   O933    1.279   .     A
C895   O931    1.274   .     A
C895   C897    1.399   .     S
C896   O934    1.279   .     A
C896   O932    1.274   .     A
C896   C898    1.399   .     S
C897   C1094   1.332   1_455 S
C897   H1107   1.088   1_455 S
C898   C995    1.332   .     S
C898   H1010   1.088   .     S
C899   C909    1.399   .     A
C899   H913    1.083   .     S
C899   C901    1.380   .     A
C900   C902    1.380   .     A
C900   C910    1.399   .     A
C900   H914    1.083   .     S
C901   C903    1.400   .     A
C901   H915    1.084   .     S
C902   H916    1.083   .     S
C902   C904    1.399   .     A
C903   C905    1.398   .     A
C904   C906    1.398   .     A
C905   C907    1.380   .     A
C905   H917    1.084   .     S
C906   C908    1.381   .     A
C906   H918    1.083   .     S
C907   H919    1.083   .     S
C907   C909    1.400   .     A
C908   H920    1.083   .     S
C908   C910    1.400   .     A
C910   C615    1.445   1_565 S
H911   C995    1.088   .     S
H912   C1094   1.088   1_455 S
N925   Zn936   2.005   .     S
N926   Zn935   2.005   .     S
O927   Zn935   1.997   .     S
O928   Zn936   1.997   .     S
O929   Zn936   2.000   .     S
O930   Zn935   2.000   .     S
O931   Zn935   1.960   .     S
O932   Zn936   1.960   .     S
O933   Zn936   1.976   .     S
O934   Zn935   1.976   .     S
O937   C938    1.412   .     S
C938   H939    1.117   .     S
C938   C941    1.529   .     S
C938   H940    1.113   .     S
C941   H942    1.111   .     S
C941   C944    1.526   .     S
C941   H1139   1.112   1_455 S
H943   C1039   1.112   .     S
C944   H946    1.110   .     S
C944   H945    1.111   .     S
C944   H947    1.111   .     S
O948   C949    1.419   .     S
C949   H950    1.111   .     S
C949   H951    1.118   .     S
C949   C952    1.533   .     S
C952   H953    1.111   .     S
C952   H954    1.108   .     S
C952   C1053   1.528   .     S
C955   H956    1.111   .     S
C955   H957    1.111   .     S
C955   H958    1.111   .     S
C955   C1148   1.528   1_455 S
O959   C960    1.413   .     S
C960   H962    1.112   .     S
C960   C963    1.533   .     S
C960   H1059   1.111   .     S
H961   C1156   1.111   1_455 S
C963   H964    1.112   .     S
C963   H965    1.110   .     S
C963   C1064   1.525   .     S
C966   H969    1.111   .     S
C966   H967    1.109   .     S
C966   H968    1.110   .     S
C966   C1159   1.525   1_455 S
O970   C971    1.416   .     S
C971   H973    1.117   .     S
C971   C974    1.533   .     S
C971   H384    1.111   1_556 S
C974   C977    1.526   .     S
C974   H976    1.111   .     S
C974   H975    1.112   .     S
C977   H978    1.111   .     S
C977   H980    1.111   .     S
C977   H979    1.111   .     S
C981   C1001   1.437   .     S
C981   O1027   1.286   .     A
C981   O1025   1.286   .     A
C982   O1026   1.286   .     A
C982   C1002   1.437   .     S
C982   O1028   1.287   .     A
C983   C985    1.407   .     A
C983   C991    1.403   .     A
C983   H1019   1.082   .     S
C984   H1020   1.082   .     S
C984   C992    1.405   .     A
C984   C986    1.406   .     A
C985   N1023   1.365   .     A
C985   O1035   1.379   .     S
C986   N1024   1.369   .     A
C986   O1046   1.381   .     S
C987   N1023   1.363   .     A
C987   C989    1.430   .     A
C987   H1021   1.077   .     S
C988   H1022   1.082   .     S
C988   N1024   1.363   .     A
C988   C990    1.412   .     A
C989   O1057   1.400   .     S
C989   C991    1.420   .     A
C990   O1068   1.383   .     S
C990   C992    1.420   .     A
C992   C403    1.515   1_556 S
C993   O1031   1.279   .     A
C993   O1029   1.274   .     A
C993   C995    1.399   .     S
C994   O1032   1.279   .     A
C994   O1030   1.274   .     A
C994   C996    1.399   .     S
C996   C1093   1.332   .     S
C996   H1108   1.088   .     S
C997   C1007   1.399   .     A
C997   H1011   1.083   .     S
C997   C999    1.380   .     A
C998   C1000   1.380   .     A
C998   C1008   1.399   .     A
C998   H1012   1.083   .     S
C999   C1001   1.400   .     A
C999   H1013   1.084   .     S
C1000  H1014   1.083   .     S
C1000  C1002   1.399   .     A
C1001  C1003   1.398   .     A
C1002  C1004   1.398   .     A
C1003  C1005   1.380   .     A
C1003  H1015   1.084   .     S
C1004  C1006   1.381   .     A
C1004  H1016   1.083   .     S
C1005  H1017   1.083   .     S
C1005  C1007   1.400   .     A
C1006  H1018   1.083   .     S
C1006  C1008   1.400   .     A
C1008  C713    1.445   1_565 S
H1009  C1093   1.088   .     S
N1023  Zn1034  2.005   .     S
N1024  Zn1033  2.005   .     S
O1025  Zn1033  1.997   .     S
O1026  Zn1034  1.997   .     S
O1027  Zn1034  2.000   .     S
O1028  Zn1033  2.000   .     S
O1029  Zn1033  1.960   .     S
O1030  Zn1034  1.960   .     S
O1031  Zn1034  1.976   .     S
O1032  Zn1033  1.976   .     S
O1035  C1036   1.412   .     S
C1036  H1037   1.117   .     S
C1036  C1039   1.529   .     S
C1036  H1038   1.113   .     S
C1039  H1040   1.111   .     S
C1039  C1042   1.526   .     S
H1041  C1137   1.112   .     S
C1042  H1044   1.110   .     S
C1042  H1043   1.111   .     S
C1042  H1045   1.111   .     S
O1046  C1047   1.419   .     S
C1047  H1048   1.111   .     S
C1047  H1049   1.118   .     S
C1047  C1050   1.533   .     S
C1050  H1051   1.111   .     S
C1050  H1052   1.108   .     S
C1050  C1151   1.528   .     S
C1053  H1054   1.111   .     S
C1053  H1055   1.111   .     S
C1053  H1056   1.111   .     S
O1057  C1058   1.413   .     S
C1058  H1060   1.112   .     S
C1058  C1061   1.533   .     S
C1058  H1157   1.111   .     S
C1061  H1062   1.112   .     S
C1061  H1063   1.110   .     S
C1061  C1162   1.525   .     S
C1064  H1067   1.111   .     S
C1064  H1065   1.109   .     S
C1064  H1066   1.110   .     S
O1068  C1069   1.416   .     S
C1069  H1071   1.117   .     S
C1069  C1072   1.533   .     S
C1069  H482    1.111   1_556 S
C1072  C1075   1.526   .     S
C1072  H1074   1.111   .     S
C1072  H1073   1.112   .     S
C1075  H1076   1.111   .     S
C1075  H1078   1.111   .     S
C1075  H1077   1.111   .     S
C1079  C1099   1.437   .     S
C1079  O1125   1.286   .     A
C1079  O1123   1.286   .     A
C1080  O1124   1.286   .     A
C1080  C1100   1.437   .     S
C1080  O1126   1.287   .     A
C1081  C1083   1.407   .     A
C1081  C1089   1.403   .     A
C1081  H1117   1.082   .     S
C1082  H1118   1.082   .     S
C1082  C1090   1.405   .     A
C1082  C1084   1.406   .     A
C1083  N1121   1.365   .     A
C1083  O1133   1.379   .     S
C1084  N1122   1.369   .     A
C1084  O1144   1.381   .     S
C1085  N1121   1.363   .     A
C1085  C1087   1.430   .     A
C1085  H1119   1.077   .     S
C1086  H1120   1.082   .     S
C1086  N1122   1.363   .     A
C1086  C1088   1.412   .     A
C1087  O1155   1.400   .     S
C1087  C1089   1.420   .     A
C1088  O1166   1.383   .     S
C1088  C1090   1.420   .     A
C1090  C501    1.515   1_556 S
C1091  O1129   1.279   .     A
C1091  O1127   1.274   .     A
C1091  C1093   1.399   .     S
C1092  O1130   1.279   .     A
C1092  O1128   1.274   .     A
C1092  C1094   1.399   .     S
C1094  C897    1.332   1_655 S
C1094  H912    1.088   1_655 S
C1095  C1105   1.399   .     A
C1095  H1109   1.083   .     S
C1095  C1097   1.380   .     A
C1096  C1098   1.380   .     A
C1096  C1106   1.399   .     A
C1096  H1110   1.083   .     S
C1097  C1099   1.400   .     A
C1097  H1111   1.084   .     S
C1098  H1112   1.083   .     S
C1098  C1100   1.399   .     A
C1099  C1101   1.398   .     A
C1100  C1102   1.398   .     A
C1101  C1103   1.380   .     A
C1101  H1113   1.084   .     S
C1102  C1104   1.381   .     A
C1102  H1114   1.083   .     S
C1103  H1115   1.083   .     S
C1103  C1105   1.400   .     A
C1104  H1116   1.083   .     S
C1104  C1106   1.400   .     A
C1106  C811    1.445   1_565 S
H1107  C897    1.088   1_655 S
N1121  Zn1132  2.005   .     S
N1122  Zn1131  2.005   .     S
O1123  Zn1131  1.997   .     S
O1124  Zn1132  1.997   .     S
O1125  Zn1132  2.000   .     S
O1126  Zn1131  2.000   .     S
O1127  Zn1131  1.960   .     S
O1128  Zn1132  1.960   .     S
O1129  Zn1132  1.976   .     S
O1130  Zn1131  1.976   .     S
O1133  C1134   1.412   .     S
C1134  H1135   1.117   .     S
C1134  C1137   1.529   .     S
C1134  H1136   1.113   .     S
C1137  H1138   1.111   .     S
C1137  C1140   1.526   .     S
H1139  C941    1.112   1_655 S
C1140  H1142   1.110   .     S
C1140  H1141   1.111   .     S
C1140  H1143   1.111   .     S
O1144  C1145   1.419   .     S
C1145  H1146   1.111   .     S
C1145  H1147   1.118   .     S
C1145  C1148   1.533   .     S
C1148  H1149   1.111   .     S
C1148  H1150   1.108   .     S
C1148  C955    1.528   1_655 S
C1151  H1152   1.111   .     S
C1151  H1153   1.111   .     S
C1151  H1154   1.111   .     S
O1155  C1156   1.413   .     S
C1156  H1158   1.112   .     S
C1156  C1159   1.533   .     S
C1156  H961    1.111   1_655 S
C1159  H1160   1.112   .     S
C1159  H1161   1.110   .     S
C1159  C966    1.525   1_655 S
C1162  H1165   1.111   .     S
C1162  H1163   1.109   .     S
C1162  H1164   1.110   .     S
O1166  C1167   1.416   .     S
C1167  H1169   1.117   .     S
C1167  C1170   1.533   .     S
C1167  H580    1.111   1_556 S
C1170  C1173   1.526   .     S
C1170  H1172   1.111   .     S
C1170  H1171   1.112   .     S
C1173  H1174   1.111   .     S
C1173  H1176   1.111   .     S
C1173  H1175   1.111   .     S
