data_str_m3_o1_o2_pcu_sym.129
_audit_creation_date              2020-01-03
_audit_creation_method            'Materials Studio'
_symmetry_space_group_name_H-M    'P1'
_symmetry_Int_Tables_number       1
_symmetry_cell_setting            triclinic
loop_
_symmetry_equiv_pos_as_xyz
  x,y,z
_cell_length_a                    32.0786
_cell_length_b                    29.5352
_cell_length_c                    29.9126
_cell_angle_alpha                 89.9436
_cell_angle_beta                  90.1255
_cell_angle_gamma                 89.9834
loop_
_atom_site_label
_atom_site_type_symbol
_atom_site_fract_x
_atom_site_fract_y
_atom_site_fract_z
_atom_site_U_iso_or_equiv
_atom_site_adp_type
_atom_site_occupancy
C1     C     0.08664   0.16667   0.24997   0.00000  Uiso   1.00
C2     C     0.24669   0.16666   0.25003   0.00000  Uiso   1.00
C3     C     0.16668   0.16668   0.16412   0.00000  Uiso   1.00
C4     C     0.16672   0.16665   0.33588   0.00000  Uiso   1.00
C5     C     0.19418   0.02394   0.27599   0.00000  Uiso   1.00
C6     C     0.13915   0.30939   0.22402   0.00000  Uiso   1.00
C7     C     0.13915   0.02401   0.22401   0.00000  Uiso   1.00
C8     C     0.19419   0.30932   0.27598   0.00000  Uiso   1.00
C9     C     0.02133   0.12802   0.23560   0.00000  Uiso   1.00
C10    C     0.31199   0.20530   0.26443   0.00000  Uiso   1.00
C11    C     0.31195   0.12801   0.23562   0.00000  Uiso   1.00
C12    C     0.02137   0.20533   0.26435   0.00000  Uiso   1.00
C13    C     0.13253   0.18410   0.04683   0.00000  Uiso   1.00
C14    C     0.13253   0.14922   0.45299   0.00000  Uiso   1.00
C15    C     0.20132   0.18388   0.45302   0.00000  Uiso   1.00
C16    C     0.20127   0.14930   0.04716   0.00000  Uiso   1.00
C17    C     0.13199   0.18422   0.09318   0.00000  Uiso   1.00
C18    C     0.13199   0.14915   0.40664   0.00000  Uiso   1.00
C19    C     0.20171   0.18400   0.40666   0.00000  Uiso   1.00
C20    C     0.20166   0.14921   0.09352   0.00000  Uiso   1.00
C21    C     0.16678   0.16672   0.11630   0.00000  Uiso   1.00
C22    C     0.16681   0.16660   0.38370   0.00000  Uiso   1.00
C23    C     0.16693   0.16667   0.02411   0.00000  Uiso   1.00
C24    C     0.16694   0.16657   0.47588   0.00000  Uiso   1.00
C25    C     0.29082   0.16665   0.25004   0.00000  Uiso   1.00
C26    C     0.04250   0.16668   0.24996   0.00000  Uiso   1.00
H27    H     0.21617   0.04208   0.29678   0.00000  Uiso   1.00
H28    H     0.11714   0.29126   0.20326   0.00000  Uiso   1.00
H29    H     0.11716   0.04221   0.20323   0.00000  Uiso   1.00
H30    H     0.21620   0.29113   0.29674   0.00000  Uiso   1.00
H31    H     0.10632   0.19778   0.02827   0.00000  Uiso   1.00
H32    H     0.10629   0.13559   0.47141   0.00000  Uiso   1.00
H33    H     0.22759   0.19752   0.47147   0.00000  Uiso   1.00
H34    H     0.22754   0.13559   0.02885   0.00000  Uiso   1.00
H35    H     0.03770   0.09815   0.22402   0.00000  Uiso   1.00
H36    H     0.29562   0.23515   0.27607   0.00000  Uiso   1.00
H37    H     0.29554   0.09816   0.22401   0.00000  Uiso   1.00
H38    H     0.03777   0.23520   0.27590   0.00000  Uiso   1.00
N39    N     0.16667   0.28573   0.25000   0.00000  Uiso   1.00
N40    N     0.16667   0.04760   0.25000   0.00000  Uiso   1.00
O41    O     0.10559   0.20487   0.24999   0.00000  Uiso   1.00
O42    O     0.22774   0.12846   0.25000   0.00000  Uiso   1.00
O43    O     0.22774   0.20487   0.25000   0.00000  Uiso   1.00
O44    O     0.10559   0.12846   0.24999   0.00000  Uiso   1.00
O45    O     0.16666   0.20489   0.18453   0.00000  Uiso   1.00
O46    O     0.16667   0.12845   0.31547   0.00000  Uiso   1.00
O47    O     0.16667   0.20489   0.31547   0.00000  Uiso   1.00
O48    O     0.16666   0.12845   0.18453   0.00000  Uiso   1.00
Zn49   Zn    0.16667   0.21771   0.25000   0.00000  Uiso   1.00
Zn50   Zn    0.16667   0.11563   0.25000   0.00000  Uiso   1.00
C51    C     0.09408   0.20206   0.11729   0.00000  Uiso   1.00
H52    H     0.10259   0.23230   0.13731   0.00000  Uiso   1.00
H53    H     0.06899   0.21211   0.09362   0.00000  Uiso   1.00
H54    H     0.08138   0.17552   0.13980   0.00000  Uiso   1.00
C55    C     0.09406   0.13141   0.38232   0.00000  Uiso   1.00
H56    H     0.10253   0.10121   0.36225   0.00000  Uiso   1.00
H57    H     0.06898   0.12134   0.40587   0.00000  Uiso   1.00
H58    H     0.08136   0.15803   0.35984   0.00000  Uiso   1.00
C59    C     0.23955   0.20181   0.38237   0.00000  Uiso   1.00
H60    H     0.25215   0.17528   0.35984   0.00000  Uiso   1.00
H61    H     0.23100   0.23208   0.36234   0.00000  Uiso   1.00
H62    H     0.26473   0.21180   0.40592   0.00000  Uiso   1.00
C63    C     0.23948   0.13134   0.11801   0.00000  Uiso   1.00
H64    H     0.25214   0.15789   0.14052   0.00000  Uiso   1.00
H65    H     0.23089   0.10114   0.13808   0.00000  Uiso   1.00
H66    H     0.26463   0.12123   0.09458   0.00000  Uiso   1.00
C67    C     0.41998   0.16667   0.24997   0.00000  Uiso   1.00
C68    C     0.58002   0.16666   0.25003   0.00000  Uiso   1.00
C69    C     0.50001   0.16668   0.16412   0.00000  Uiso   1.00
C70    C     0.50005   0.16665   0.33588   0.00000  Uiso   1.00
C71    C     0.52751   0.02394   0.27599   0.00000  Uiso   1.00
C72    C     0.47248   0.30939   0.22402   0.00000  Uiso   1.00
C73    C     0.47249   0.02401   0.22401   0.00000  Uiso   1.00
C74    C     0.52752   0.30932   0.27598   0.00000  Uiso   1.00
C75    C     0.35467   0.12802   0.23560   0.00000  Uiso   1.00
C76    C     0.64532   0.20530   0.26443   0.00000  Uiso   1.00
C77    C     0.64528   0.12801   0.23562   0.00000  Uiso   1.00
C78    C     0.35471   0.20533   0.26435   0.00000  Uiso   1.00
C79    C     0.46587   0.18410   0.04683   0.00000  Uiso   1.00
C80    C     0.46586   0.14922   0.45299   0.00000  Uiso   1.00
C81    C     0.53465   0.18388   0.45302   0.00000  Uiso   1.00
C82    C     0.53461   0.14930   0.04716   0.00000  Uiso   1.00
C83    C     0.46532   0.18422   0.09318   0.00000  Uiso   1.00
C84    C     0.46532   0.14915   0.40664   0.00000  Uiso   1.00
C85    C     0.53504   0.18400   0.40666   0.00000  Uiso   1.00
C86    C     0.53500   0.14921   0.09352   0.00000  Uiso   1.00
C87    C     0.50012   0.16672   0.11630   0.00000  Uiso   1.00
C88    C     0.50014   0.16660   0.38370   0.00000  Uiso   1.00
C89    C     0.50026   0.16667   0.02411   0.00000  Uiso   1.00
C90    C     0.50028   0.16657   0.47588   0.00000  Uiso   1.00
C91    C     0.62416   0.16665   0.25004   0.00000  Uiso   1.00
C92    C     0.37584   0.16668   0.24996   0.00000  Uiso   1.00
H93    H     0.54950   0.04208   0.29678   0.00000  Uiso   1.00
H94    H     0.45047   0.29126   0.20326   0.00000  Uiso   1.00
H95    H     0.45049   0.04221   0.20323   0.00000  Uiso   1.00
H96    H     0.54954   0.29113   0.29674   0.00000  Uiso   1.00
H97    H     0.43965   0.19778   0.02827   0.00000  Uiso   1.00
H98    H     0.43963   0.13559   0.47141   0.00000  Uiso   1.00
H99    H     0.56092   0.19752   0.47147   0.00000  Uiso   1.00
H100   H     0.56087   0.13559   0.02885   0.00000  Uiso   1.00
H101   H     0.37103   0.09815   0.22402   0.00000  Uiso   1.00
H102   H     0.62895   0.23515   0.27607   0.00000  Uiso   1.00
H103   H     0.62888   0.09816   0.22401   0.00000  Uiso   1.00
H104   H     0.37110   0.23520   0.27590   0.00000  Uiso   1.00
N105   N     0.50000   0.28573   0.25000   0.00000  Uiso   1.00
N106   N     0.50000   0.04760   0.25000   0.00000  Uiso   1.00
O107   O     0.43892   0.20487   0.24999   0.00000  Uiso   1.00
O108   O     0.56108   0.12846   0.25000   0.00000  Uiso   1.00
O109   O     0.56108   0.20487   0.25000   0.00000  Uiso   1.00
O110   O     0.43892   0.12846   0.24999   0.00000  Uiso   1.00
O111   O     0.50000   0.20489   0.18453   0.00000  Uiso   1.00
O112   O     0.50000   0.12845   0.31547   0.00000  Uiso   1.00
O113   O     0.50000   0.20489   0.31547   0.00000  Uiso   1.00
O114   O     0.50000   0.12845   0.18453   0.00000  Uiso   1.00
Zn115  Zn    0.50000   0.21771   0.25000   0.00000  Uiso   1.00
Zn116  Zn    0.50000   0.11563   0.25000   0.00000  Uiso   1.00
C117   C     0.42741   0.20206   0.11729   0.00000  Uiso   1.00
H118   H     0.43592   0.23230   0.13731   0.00000  Uiso   1.00
H119   H     0.40232   0.21211   0.09362   0.00000  Uiso   1.00
H120   H     0.41472   0.17552   0.13980   0.00000  Uiso   1.00
C121   C     0.42739   0.13141   0.38232   0.00000  Uiso   1.00
H122   H     0.43587   0.10121   0.36225   0.00000  Uiso   1.00
H123   H     0.40231   0.12134   0.40587   0.00000  Uiso   1.00
H124   H     0.41470   0.15803   0.35984   0.00000  Uiso   1.00
C125   C     0.57289   0.20181   0.38237   0.00000  Uiso   1.00
H126   H     0.58548   0.17528   0.35984   0.00000  Uiso   1.00
H127   H     0.56434   0.23208   0.36234   0.00000  Uiso   1.00
H128   H     0.59806   0.21180   0.40592   0.00000  Uiso   1.00
C129   C     0.57282   0.13134   0.11801   0.00000  Uiso   1.00
H130   H     0.58548   0.15789   0.14052   0.00000  Uiso   1.00
H131   H     0.56423   0.10114   0.13808   0.00000  Uiso   1.00
H132   H     0.59797   0.12123   0.09458   0.00000  Uiso   1.00
C133   C     0.75331   0.16667   0.24997   0.00000  Uiso   1.00
C134   C     0.91335   0.16666   0.25003   0.00000  Uiso   1.00
C135   C     0.83335   0.16668   0.16412   0.00000  Uiso   1.00
C136   C     0.83338   0.16665   0.33588   0.00000  Uiso   1.00
C137   C     0.86084   0.02394   0.27599   0.00000  Uiso   1.00
C138   C     0.80582   0.30939   0.22402   0.00000  Uiso   1.00
C139   C     0.80582   0.02401   0.22401   0.00000  Uiso   1.00
C140   C     0.86085   0.30932   0.27598   0.00000  Uiso   1.00
C141   C     0.68800   0.12802   0.23560   0.00000  Uiso   1.00
C142   C     0.97865   0.20530   0.26443   0.00000  Uiso   1.00
C143   C     0.97861   0.12801   0.23562   0.00000  Uiso   1.00
C144   C     0.68804   0.20533   0.26435   0.00000  Uiso   1.00
C145   C     0.79920   0.18410   0.04683   0.00000  Uiso   1.00
C146   C     0.79920   0.14922   0.45299   0.00000  Uiso   1.00
C147   C     0.86798   0.18388   0.45302   0.00000  Uiso   1.00
C148   C     0.86794   0.14930   0.04716   0.00000  Uiso   1.00
C149   C     0.79866   0.18422   0.09318   0.00000  Uiso   1.00
C150   C     0.79866   0.14915   0.40664   0.00000  Uiso   1.00
C151   C     0.86838   0.18400   0.40666   0.00000  Uiso   1.00
C152   C     0.86833   0.14921   0.09352   0.00000  Uiso   1.00
C153   C     0.83345   0.16672   0.11630   0.00000  Uiso   1.00
C154   C     0.83348   0.16660   0.38370   0.00000  Uiso   1.00
C155   C     0.83360   0.16667   0.02411   0.00000  Uiso   1.00
C156   C     0.83361   0.16657   0.47588   0.00000  Uiso   1.00
C157   C     0.95749   0.16665   0.25004   0.00000  Uiso   1.00
C158   C     0.70917   0.16668   0.24996   0.00000  Uiso   1.00
H159   H     0.88284   0.04208   0.29678   0.00000  Uiso   1.00
H160   H     0.78380   0.29126   0.20326   0.00000  Uiso   1.00
H161   H     0.78383   0.04221   0.20323   0.00000  Uiso   1.00
H162   H     0.88287   0.29113   0.29674   0.00000  Uiso   1.00
H163   H     0.77299   0.19778   0.02827   0.00000  Uiso   1.00
H164   H     0.77296   0.13559   0.47141   0.00000  Uiso   1.00
H165   H     0.89426   0.19752   0.47147   0.00000  Uiso   1.00
H166   H     0.89420   0.13559   0.02885   0.00000  Uiso   1.00
H167   H     0.70436   0.09815   0.22402   0.00000  Uiso   1.00
H168   H     0.96228   0.23515   0.27607   0.00000  Uiso   1.00
H169   H     0.96221   0.09816   0.22401   0.00000  Uiso   1.00
H170   H     0.70444   0.23520   0.27590   0.00000  Uiso   1.00
N171   N     0.83333   0.28573   0.25000   0.00000  Uiso   1.00
N172   N     0.83333   0.04760   0.25000   0.00000  Uiso   1.00
O173   O     0.77226   0.20487   0.24999   0.00000  Uiso   1.00
O174   O     0.89441   0.12846   0.25000   0.00000  Uiso   1.00
O175   O     0.89441   0.20487   0.25000   0.00000  Uiso   1.00
O176   O     0.77226   0.12846   0.24999   0.00000  Uiso   1.00
O177   O     0.83333   0.20489   0.18453   0.00000  Uiso   1.00
O178   O     0.83334   0.12845   0.31547   0.00000  Uiso   1.00
O179   O     0.83334   0.20489   0.31547   0.00000  Uiso   1.00
O180   O     0.83333   0.12845   0.18453   0.00000  Uiso   1.00
Zn181  Zn    0.83333   0.21771   0.25000   0.00000  Uiso   1.00
Zn182  Zn    0.83333   0.11563   0.25000   0.00000  Uiso   1.00
C183   C     0.76075   0.20206   0.11729   0.00000  Uiso   1.00
H184   H     0.76925   0.23230   0.13731   0.00000  Uiso   1.00
H185   H     0.73566   0.21211   0.09362   0.00000  Uiso   1.00
H186   H     0.74805   0.17552   0.13980   0.00000  Uiso   1.00
C187   C     0.76072   0.13141   0.38232   0.00000  Uiso   1.00
H188   H     0.76920   0.10121   0.36225   0.00000  Uiso   1.00
H189   H     0.73564   0.12134   0.40587   0.00000  Uiso   1.00
H190   H     0.74803   0.15803   0.35984   0.00000  Uiso   1.00
C191   C     0.90622   0.20181   0.38237   0.00000  Uiso   1.00
H192   H     0.91882   0.17528   0.35984   0.00000  Uiso   1.00
H193   H     0.89767   0.23208   0.36234   0.00000  Uiso   1.00
H194   H     0.93140   0.21180   0.40592   0.00000  Uiso   1.00
C195   C     0.90615   0.13134   0.11801   0.00000  Uiso   1.00
H196   H     0.91881   0.15789   0.14052   0.00000  Uiso   1.00
H197   H     0.89756   0.10114   0.13808   0.00000  Uiso   1.00
H198   H     0.93130   0.12123   0.09458   0.00000  Uiso   1.00
C199   C     0.08664   0.50001   0.24997   0.00000  Uiso   1.00
C200   C     0.24669   0.49999   0.25003   0.00000  Uiso   1.00
C201   C     0.16668   0.50002   0.16412   0.00000  Uiso   1.00
C202   C     0.16672   0.49998   0.33588   0.00000  Uiso   1.00
C203   C     0.19418   0.35728   0.27599   0.00000  Uiso   1.00
C204   C     0.13915   0.64272   0.22402   0.00000  Uiso   1.00
C205   C     0.13915   0.35735   0.22401   0.00000  Uiso   1.00
C206   C     0.19419   0.64265   0.27598   0.00000  Uiso   1.00
C207   C     0.02133   0.46135   0.23560   0.00000  Uiso   1.00
C208   C     0.31199   0.53864   0.26443   0.00000  Uiso   1.00
C209   C     0.31195   0.46134   0.23562   0.00000  Uiso   1.00
C210   C     0.02137   0.53866   0.26435   0.00000  Uiso   1.00
C211   C     0.13253   0.51744   0.04683   0.00000  Uiso   1.00
C212   C     0.13253   0.48256   0.45299   0.00000  Uiso   1.00
C213   C     0.20132   0.51721   0.45302   0.00000  Uiso   1.00
C214   C     0.20127   0.48263   0.04716   0.00000  Uiso   1.00
C215   C     0.13199   0.51755   0.09318   0.00000  Uiso   1.00
C216   C     0.13199   0.48248   0.40664   0.00000  Uiso   1.00
C217   C     0.20171   0.51734   0.40666   0.00000  Uiso   1.00
C218   C     0.20166   0.48254   0.09352   0.00000  Uiso   1.00
C219   C     0.16678   0.50005   0.11630   0.00000  Uiso   1.00
C220   C     0.16681   0.49993   0.38370   0.00000  Uiso   1.00
C221   C     0.16693   0.50001   0.02411   0.00000  Uiso   1.00
C222   C     0.16694   0.49990   0.47588   0.00000  Uiso   1.00
C223   C     0.29082   0.49999   0.25004   0.00000  Uiso   1.00
C224   C     0.04250   0.50001   0.24996   0.00000  Uiso   1.00
H225   H     0.21617   0.37541   0.29678   0.00000  Uiso   1.00
H226   H     0.11714   0.62459   0.20326   0.00000  Uiso   1.00
H227   H     0.11716   0.37554   0.20323   0.00000  Uiso   1.00
H228   H     0.21620   0.62447   0.29674   0.00000  Uiso   1.00
H229   H     0.10632   0.53112   0.02827   0.00000  Uiso   1.00
H230   H     0.10629   0.46892   0.47141   0.00000  Uiso   1.00
H231   H     0.22759   0.53085   0.47147   0.00000  Uiso   1.00
H232   H     0.22754   0.46892   0.02885   0.00000  Uiso   1.00
H233   H     0.03770   0.43149   0.22402   0.00000  Uiso   1.00
H234   H     0.29562   0.56848   0.27607   0.00000  Uiso   1.00
H235   H     0.29554   0.43149   0.22401   0.00000  Uiso   1.00
H236   H     0.03777   0.56854   0.27590   0.00000  Uiso   1.00
N237   N     0.16667   0.61907   0.25000   0.00000  Uiso   1.00
N238   N     0.16667   0.38093   0.25000   0.00000  Uiso   1.00
O239   O     0.10559   0.53821   0.24999   0.00000  Uiso   1.00
O240   O     0.22774   0.46179   0.25000   0.00000  Uiso   1.00
O241   O     0.22774   0.53821   0.25000   0.00000  Uiso   1.00
O242   O     0.10559   0.46179   0.24999   0.00000  Uiso   1.00
O243   O     0.16666   0.53822   0.18453   0.00000  Uiso   1.00
O244   O     0.16667   0.46178   0.31547   0.00000  Uiso   1.00
O245   O     0.16667   0.53822   0.31547   0.00000  Uiso   1.00
O246   O     0.16666   0.46178   0.18453   0.00000  Uiso   1.00
Zn247  Zn    0.16667   0.55104   0.25000   0.00000  Uiso   1.00
Zn248  Zn    0.16667   0.44896   0.25000   0.00000  Uiso   1.00
C249   C     0.09408   0.53540   0.11729   0.00000  Uiso   1.00
H250   H     0.10259   0.56563   0.13731   0.00000  Uiso   1.00
H251   H     0.06899   0.54544   0.09362   0.00000  Uiso   1.00
H252   H     0.08138   0.50886   0.13980   0.00000  Uiso   1.00
C253   C     0.09406   0.46474   0.38232   0.00000  Uiso   1.00
H254   H     0.10253   0.43455   0.36225   0.00000  Uiso   1.00
H255   H     0.06898   0.45467   0.40587   0.00000  Uiso   1.00
H256   H     0.08136   0.49136   0.35984   0.00000  Uiso   1.00
C257   C     0.23955   0.53515   0.38237   0.00000  Uiso   1.00
H258   H     0.25215   0.50861   0.35984   0.00000  Uiso   1.00
H259   H     0.23100   0.56541   0.36234   0.00000  Uiso   1.00
H260   H     0.26473   0.54514   0.40592   0.00000  Uiso   1.00
C261   C     0.23948   0.46467   0.11801   0.00000  Uiso   1.00
H262   H     0.25214   0.49122   0.14052   0.00000  Uiso   1.00
H263   H     0.23089   0.43447   0.13808   0.00000  Uiso   1.00
H264   H     0.26463   0.45456   0.09458   0.00000  Uiso   1.00
C265   C     0.41998   0.50001   0.24997   0.00000  Uiso   1.00
C266   C     0.58002   0.49999   0.25003   0.00000  Uiso   1.00
C267   C     0.50001   0.50002   0.16412   0.00000  Uiso   1.00
C268   C     0.50005   0.49998   0.33588   0.00000  Uiso   1.00
C269   C     0.52751   0.35728   0.27599   0.00000  Uiso   1.00
C270   C     0.47248   0.64272   0.22402   0.00000  Uiso   1.00
C271   C     0.47249   0.35735   0.22401   0.00000  Uiso   1.00
C272   C     0.52752   0.64265   0.27598   0.00000  Uiso   1.00
C273   C     0.35467   0.46135   0.23560   0.00000  Uiso   1.00
C274   C     0.64532   0.53864   0.26443   0.00000  Uiso   1.00
C275   C     0.64528   0.46134   0.23562   0.00000  Uiso   1.00
C276   C     0.35471   0.53866   0.26435   0.00000  Uiso   1.00
C277   C     0.46587   0.51744   0.04683   0.00000  Uiso   1.00
C278   C     0.46586   0.48256   0.45299   0.00000  Uiso   1.00
C279   C     0.53465   0.51721   0.45302   0.00000  Uiso   1.00
C280   C     0.53461   0.48263   0.04716   0.00000  Uiso   1.00
C281   C     0.46532   0.51755   0.09318   0.00000  Uiso   1.00
C282   C     0.46532   0.48248   0.40664   0.00000  Uiso   1.00
C283   C     0.53504   0.51734   0.40666   0.00000  Uiso   1.00
C284   C     0.53500   0.48254   0.09352   0.00000  Uiso   1.00
C285   C     0.50012   0.50005   0.11630   0.00000  Uiso   1.00
C286   C     0.50014   0.49993   0.38370   0.00000  Uiso   1.00
C287   C     0.50026   0.50001   0.02411   0.00000  Uiso   1.00
C288   C     0.50028   0.49990   0.47588   0.00000  Uiso   1.00
C289   C     0.62416   0.49999   0.25004   0.00000  Uiso   1.00
C290   C     0.37584   0.50001   0.24996   0.00000  Uiso   1.00
H291   H     0.54950   0.37541   0.29678   0.00000  Uiso   1.00
H292   H     0.45047   0.62459   0.20326   0.00000  Uiso   1.00
H293   H     0.45049   0.37554   0.20323   0.00000  Uiso   1.00
H294   H     0.54954   0.62447   0.29674   0.00000  Uiso   1.00
H295   H     0.43965   0.53112   0.02827   0.00000  Uiso   1.00
H296   H     0.43963   0.46892   0.47141   0.00000  Uiso   1.00
H297   H     0.56092   0.53085   0.47147   0.00000  Uiso   1.00
H298   H     0.56087   0.46892   0.02885   0.00000  Uiso   1.00
H299   H     0.37103   0.43149   0.22402   0.00000  Uiso   1.00
H300   H     0.62895   0.56848   0.27607   0.00000  Uiso   1.00
H301   H     0.62888   0.43149   0.22401   0.00000  Uiso   1.00
H302   H     0.37110   0.56854   0.27590   0.00000  Uiso   1.00
N303   N     0.50000   0.61907   0.25000   0.00000  Uiso   1.00
N304   N     0.50000   0.38093   0.25000   0.00000  Uiso   1.00
O305   O     0.43892   0.53821   0.24999   0.00000  Uiso   1.00
O306   O     0.56108   0.46179   0.25000   0.00000  Uiso   1.00
O307   O     0.56108   0.53821   0.25000   0.00000  Uiso   1.00
O308   O     0.43892   0.46179   0.24999   0.00000  Uiso   1.00
O309   O     0.50000   0.53822   0.18453   0.00000  Uiso   1.00
O310   O     0.50000   0.46178   0.31547   0.00000  Uiso   1.00
O311   O     0.50000   0.53822   0.31547   0.00000  Uiso   1.00
O312   O     0.50000   0.46178   0.18453   0.00000  Uiso   1.00
Zn313  Zn    0.50000   0.55104   0.25000   0.00000  Uiso   1.00
Zn314  Zn    0.50000   0.44896   0.25000   0.00000  Uiso   1.00
C315   C     0.42741   0.53540   0.11729   0.00000  Uiso   1.00
H316   H     0.43592   0.56563   0.13731   0.00000  Uiso   1.00
H317   H     0.40232   0.54544   0.09362   0.00000  Uiso   1.00
H318   H     0.41472   0.50886   0.13980   0.00000  Uiso   1.00
C319   C     0.42739   0.46474   0.38232   0.00000  Uiso   1.00
H320   H     0.43587   0.43455   0.36225   0.00000  Uiso   1.00
H321   H     0.40231   0.45467   0.40587   0.00000  Uiso   1.00
H322   H     0.41470   0.49136   0.35984   0.00000  Uiso   1.00
C323   C     0.57289   0.53515   0.38237   0.00000  Uiso   1.00
H324   H     0.58548   0.50861   0.35984   0.00000  Uiso   1.00
H325   H     0.56434   0.56541   0.36234   0.00000  Uiso   1.00
H326   H     0.59806   0.54514   0.40592   0.00000  Uiso   1.00
C327   C     0.57282   0.46467   0.11801   0.00000  Uiso   1.00
H328   H     0.58548   0.49122   0.14052   0.00000  Uiso   1.00
H329   H     0.56423   0.43447   0.13808   0.00000  Uiso   1.00
H330   H     0.59797   0.45456   0.09458   0.00000  Uiso   1.00
C331   C     0.75331   0.50001   0.24997   0.00000  Uiso   1.00
C332   C     0.91335   0.49999   0.25003   0.00000  Uiso   1.00
C333   C     0.83335   0.50002   0.16412   0.00000  Uiso   1.00
C334   C     0.83338   0.49998   0.33588   0.00000  Uiso   1.00
C335   C     0.86084   0.35728   0.27599   0.00000  Uiso   1.00
C336   C     0.80582   0.64272   0.22402   0.00000  Uiso   1.00
C337   C     0.80582   0.35735   0.22401   0.00000  Uiso   1.00
C338   C     0.86085   0.64265   0.27598   0.00000  Uiso   1.00
C339   C     0.68800   0.46135   0.23560   0.00000  Uiso   1.00
C340   C     0.97865   0.53864   0.26443   0.00000  Uiso   1.00
C341   C     0.97861   0.46134   0.23562   0.00000  Uiso   1.00
C342   C     0.68804   0.53866   0.26435   0.00000  Uiso   1.00
C343   C     0.79920   0.51744   0.04683   0.00000  Uiso   1.00
C344   C     0.79920   0.48256   0.45299   0.00000  Uiso   1.00
C345   C     0.86798   0.51721   0.45302   0.00000  Uiso   1.00
C346   C     0.86794   0.48263   0.04716   0.00000  Uiso   1.00
C347   C     0.79866   0.51755   0.09318   0.00000  Uiso   1.00
C348   C     0.79866   0.48248   0.40664   0.00000  Uiso   1.00
C349   C     0.86838   0.51734   0.40666   0.00000  Uiso   1.00
C350   C     0.86833   0.48254   0.09352   0.00000  Uiso   1.00
C351   C     0.83345   0.50005   0.11630   0.00000  Uiso   1.00
C352   C     0.83348   0.49993   0.38370   0.00000  Uiso   1.00
C353   C     0.83360   0.50001   0.02411   0.00000  Uiso   1.00
C354   C     0.83361   0.49990   0.47588   0.00000  Uiso   1.00
C355   C     0.95749   0.49999   0.25004   0.00000  Uiso   1.00
C356   C     0.70917   0.50001   0.24996   0.00000  Uiso   1.00
H357   H     0.88284   0.37541   0.29678   0.00000  Uiso   1.00
H358   H     0.78380   0.62459   0.20326   0.00000  Uiso   1.00
H359   H     0.78383   0.37554   0.20323   0.00000  Uiso   1.00
H360   H     0.88287   0.62447   0.29674   0.00000  Uiso   1.00
H361   H     0.77299   0.53112   0.02827   0.00000  Uiso   1.00
H362   H     0.77296   0.46892   0.47141   0.00000  Uiso   1.00
H363   H     0.89426   0.53085   0.47147   0.00000  Uiso   1.00
H364   H     0.89420   0.46892   0.02885   0.00000  Uiso   1.00
H365   H     0.70436   0.43149   0.22402   0.00000  Uiso   1.00
H366   H     0.96228   0.56848   0.27607   0.00000  Uiso   1.00
H367   H     0.96221   0.43149   0.22401   0.00000  Uiso   1.00
H368   H     0.70444   0.56854   0.27590   0.00000  Uiso   1.00
N369   N     0.83333   0.61907   0.25000   0.00000  Uiso   1.00
N370   N     0.83333   0.38093   0.25000   0.00000  Uiso   1.00
O371   O     0.77226   0.53821   0.24999   0.00000  Uiso   1.00
O372   O     0.89441   0.46179   0.25000   0.00000  Uiso   1.00
O373   O     0.89441   0.53821   0.25000   0.00000  Uiso   1.00
O374   O     0.77226   0.46179   0.24999   0.00000  Uiso   1.00
O375   O     0.83333   0.53822   0.18453   0.00000  Uiso   1.00
O376   O     0.83334   0.46178   0.31547   0.00000  Uiso   1.00
O377   O     0.83334   0.53822   0.31547   0.00000  Uiso   1.00
O378   O     0.83333   0.46178   0.18453   0.00000  Uiso   1.00
Zn379  Zn    0.83333   0.55104   0.25000   0.00000  Uiso   1.00
Zn380  Zn    0.83333   0.44896   0.25000   0.00000  Uiso   1.00
C381   C     0.76075   0.53540   0.11729   0.00000  Uiso   1.00
H382   H     0.76925   0.56563   0.13731   0.00000  Uiso   1.00
H383   H     0.73566   0.54544   0.09362   0.00000  Uiso   1.00
H384   H     0.74805   0.50886   0.13980   0.00000  Uiso   1.00
C385   C     0.76072   0.46474   0.38232   0.00000  Uiso   1.00
H386   H     0.76920   0.43455   0.36225   0.00000  Uiso   1.00
H387   H     0.73564   0.45467   0.40587   0.00000  Uiso   1.00
H388   H     0.74803   0.49136   0.35984   0.00000  Uiso   1.00
C389   C     0.90622   0.53515   0.38237   0.00000  Uiso   1.00
H390   H     0.91882   0.50861   0.35984   0.00000  Uiso   1.00
H391   H     0.89767   0.56541   0.36234   0.00000  Uiso   1.00
H392   H     0.93140   0.54514   0.40592   0.00000  Uiso   1.00
C393   C     0.90615   0.46467   0.11801   0.00000  Uiso   1.00
H394   H     0.91881   0.49122   0.14052   0.00000  Uiso   1.00
H395   H     0.89756   0.43447   0.13808   0.00000  Uiso   1.00
H396   H     0.93130   0.45456   0.09458   0.00000  Uiso   1.00
C397   C     0.08664   0.83334   0.24997   0.00000  Uiso   1.00
C398   C     0.24669   0.83333   0.25003   0.00000  Uiso   1.00
C399   C     0.16668   0.83335   0.16412   0.00000  Uiso   1.00
C400   C     0.16672   0.83331   0.33588   0.00000  Uiso   1.00
C401   C     0.19418   0.69061   0.27599   0.00000  Uiso   1.00
C402   C     0.13915   0.97606   0.22402   0.00000  Uiso   1.00
C403   C     0.13915   0.69068   0.22401   0.00000  Uiso   1.00
C404   C     0.19419   0.97599   0.27598   0.00000  Uiso   1.00
C405   C     0.02133   0.79468   0.23560   0.00000  Uiso   1.00
C406   C     0.31199   0.87197   0.26443   0.00000  Uiso   1.00
C407   C     0.31195   0.79468   0.23562   0.00000  Uiso   1.00
C408   C     0.02137   0.87200   0.26435   0.00000  Uiso   1.00
C409   C     0.13253   0.85077   0.04683   0.00000  Uiso   1.00
C410   C     0.13253   0.81589   0.45299   0.00000  Uiso   1.00
C411   C     0.20132   0.85055   0.45302   0.00000  Uiso   1.00
C412   C     0.20127   0.81596   0.04716   0.00000  Uiso   1.00
C413   C     0.13199   0.85088   0.09318   0.00000  Uiso   1.00
C414   C     0.13199   0.81582   0.40664   0.00000  Uiso   1.00
C415   C     0.20171   0.85067   0.40666   0.00000  Uiso   1.00
C416   C     0.20166   0.81587   0.09352   0.00000  Uiso   1.00
C417   C     0.16678   0.83338   0.11630   0.00000  Uiso   1.00
C418   C     0.16681   0.83327   0.38370   0.00000  Uiso   1.00
C419   C     0.16693   0.83334   0.02411   0.00000  Uiso   1.00
C420   C     0.16694   0.83323   0.47588   0.00000  Uiso   1.00
C421   C     0.29082   0.83332   0.25004   0.00000  Uiso   1.00
C422   C     0.04250   0.83335   0.24996   0.00000  Uiso   1.00
H423   H     0.21617   0.70875   0.29678   0.00000  Uiso   1.00
H424   H     0.11714   0.95793   0.20326   0.00000  Uiso   1.00
H425   H     0.11716   0.70887   0.20323   0.00000  Uiso   1.00
H426   H     0.21620   0.95780   0.29674   0.00000  Uiso   1.00
H427   H     0.10632   0.86445   0.02827   0.00000  Uiso   1.00
H428   H     0.10629   0.80226   0.47141   0.00000  Uiso   1.00
H429   H     0.22759   0.86419   0.47147   0.00000  Uiso   1.00
H430   H     0.22754   0.80226   0.02885   0.00000  Uiso   1.00
H431   H     0.03770   0.76482   0.22402   0.00000  Uiso   1.00
H432   H     0.29562   0.90181   0.27607   0.00000  Uiso   1.00
H433   H     0.29554   0.76483   0.22401   0.00000  Uiso   1.00
H434   H     0.03777   0.90187   0.27590   0.00000  Uiso   1.00
N435   N     0.16667   0.95240   0.25000   0.00000  Uiso   1.00
N436   N     0.16667   0.71427   0.25000   0.00000  Uiso   1.00
O437   O     0.10559   0.87154   0.24999   0.00000  Uiso   1.00
O438   O     0.22774   0.79513   0.25000   0.00000  Uiso   1.00
O439   O     0.22774   0.87154   0.25000   0.00000  Uiso   1.00
O440   O     0.10559   0.79513   0.24999   0.00000  Uiso   1.00
O441   O     0.16666   0.87155   0.18453   0.00000  Uiso   1.00
O442   O     0.16667   0.79511   0.31547   0.00000  Uiso   1.00
O443   O     0.16667   0.87155   0.31547   0.00000  Uiso   1.00
O444   O     0.16666   0.79511   0.18453   0.00000  Uiso   1.00
Zn445  Zn    0.16667   0.88437   0.25000   0.00000  Uiso   1.00
Zn446  Zn    0.16667   0.78229   0.25000   0.00000  Uiso   1.00
C447   C     0.09408   0.86873   0.11729   0.00000  Uiso   1.00
H448   H     0.10259   0.89897   0.13731   0.00000  Uiso   1.00
H449   H     0.06899   0.87877   0.09362   0.00000  Uiso   1.00
H450   H     0.08138   0.84219   0.13980   0.00000  Uiso   1.00
C451   C     0.09406   0.79808   0.38232   0.00000  Uiso   1.00
H452   H     0.10253   0.76788   0.36225   0.00000  Uiso   1.00
H453   H     0.06898   0.78800   0.40587   0.00000  Uiso   1.00
H454   H     0.08136   0.82470   0.35984   0.00000  Uiso   1.00
C455   C     0.23955   0.86848   0.38237   0.00000  Uiso   1.00
H456   H     0.25215   0.84195   0.35984   0.00000  Uiso   1.00
H457   H     0.23100   0.89874   0.36234   0.00000  Uiso   1.00
H458   H     0.26473   0.87847   0.40592   0.00000  Uiso   1.00
C459   C     0.23948   0.79801   0.11801   0.00000  Uiso   1.00
H460   H     0.25214   0.82456   0.14052   0.00000  Uiso   1.00
H461   H     0.23089   0.76781   0.13808   0.00000  Uiso   1.00
H462   H     0.26463   0.78790   0.09458   0.00000  Uiso   1.00
C463   C     0.41998   0.83334   0.24997   0.00000  Uiso   1.00
C464   C     0.58002   0.83333   0.25003   0.00000  Uiso   1.00
C465   C     0.50001   0.83335   0.16412   0.00000  Uiso   1.00
C466   C     0.50005   0.83331   0.33588   0.00000  Uiso   1.00
C467   C     0.52751   0.69061   0.27599   0.00000  Uiso   1.00
C468   C     0.47248   0.97606   0.22402   0.00000  Uiso   1.00
C469   C     0.47249   0.69068   0.22401   0.00000  Uiso   1.00
C470   C     0.52752   0.97599   0.27598   0.00000  Uiso   1.00
C471   C     0.35467   0.79468   0.23560   0.00000  Uiso   1.00
C472   C     0.64532   0.87197   0.26443   0.00000  Uiso   1.00
C473   C     0.64528   0.79468   0.23562   0.00000  Uiso   1.00
C474   C     0.35471   0.87200   0.26435   0.00000  Uiso   1.00
C475   C     0.46587   0.85077   0.04683   0.00000  Uiso   1.00
C476   C     0.46586   0.81589   0.45299   0.00000  Uiso   1.00
C477   C     0.53465   0.85055   0.45302   0.00000  Uiso   1.00
C478   C     0.53461   0.81596   0.04716   0.00000  Uiso   1.00
C479   C     0.46532   0.85088   0.09318   0.00000  Uiso   1.00
C480   C     0.46532   0.81582   0.40664   0.00000  Uiso   1.00
C481   C     0.53504   0.85067   0.40666   0.00000  Uiso   1.00
C482   C     0.53500   0.81587   0.09352   0.00000  Uiso   1.00
C483   C     0.50012   0.83338   0.11630   0.00000  Uiso   1.00
C484   C     0.50014   0.83327   0.38370   0.00000  Uiso   1.00
C485   C     0.50026   0.83334   0.02411   0.00000  Uiso   1.00
C486   C     0.50028   0.83323   0.47588   0.00000  Uiso   1.00
C487   C     0.62416   0.83332   0.25004   0.00000  Uiso   1.00
C488   C     0.37584   0.83335   0.24996   0.00000  Uiso   1.00
H489   H     0.54950   0.70875   0.29678   0.00000  Uiso   1.00
H490   H     0.45047   0.95793   0.20326   0.00000  Uiso   1.00
H491   H     0.45049   0.70887   0.20323   0.00000  Uiso   1.00
H492   H     0.54954   0.95780   0.29674   0.00000  Uiso   1.00
H493   H     0.43965   0.86445   0.02827   0.00000  Uiso   1.00
H494   H     0.43963   0.80226   0.47141   0.00000  Uiso   1.00
H495   H     0.56092   0.86419   0.47147   0.00000  Uiso   1.00
H496   H     0.56087   0.80226   0.02885   0.00000  Uiso   1.00
H497   H     0.37103   0.76482   0.22402   0.00000  Uiso   1.00
H498   H     0.62895   0.90181   0.27607   0.00000  Uiso   1.00
H499   H     0.62888   0.76483   0.22401   0.00000  Uiso   1.00
H500   H     0.37110   0.90187   0.27590   0.00000  Uiso   1.00
N501   N     0.50000   0.95240   0.25000   0.00000  Uiso   1.00
N502   N     0.50000   0.71427   0.25000   0.00000  Uiso   1.00
O503   O     0.43892   0.87154   0.24999   0.00000  Uiso   1.00
O504   O     0.56108   0.79513   0.25000   0.00000  Uiso   1.00
O505   O     0.56108   0.87154   0.25000   0.00000  Uiso   1.00
O506   O     0.43892   0.79513   0.24999   0.00000  Uiso   1.00
O507   O     0.50000   0.87155   0.18453   0.00000  Uiso   1.00
O508   O     0.50000   0.79511   0.31547   0.00000  Uiso   1.00
O509   O     0.50000   0.87155   0.31547   0.00000  Uiso   1.00
O510   O     0.50000   0.79511   0.18453   0.00000  Uiso   1.00
Zn511  Zn    0.50000   0.88437   0.25000   0.00000  Uiso   1.00
Zn512  Zn    0.50000   0.78229   0.25000   0.00000  Uiso   1.00
C513   C     0.42741   0.86873   0.11729   0.00000  Uiso   1.00
H514   H     0.43592   0.89897   0.13731   0.00000  Uiso   1.00
H515   H     0.40232   0.87877   0.09362   0.00000  Uiso   1.00
H516   H     0.41472   0.84219   0.13980   0.00000  Uiso   1.00
C517   C     0.42739   0.79808   0.38232   0.00000  Uiso   1.00
H518   H     0.43587   0.76788   0.36225   0.00000  Uiso   1.00
H519   H     0.40231   0.78800   0.40587   0.00000  Uiso   1.00
H520   H     0.41470   0.82470   0.35984   0.00000  Uiso   1.00
C521   C     0.57289   0.86848   0.38237   0.00000  Uiso   1.00
H522   H     0.58548   0.84195   0.35984   0.00000  Uiso   1.00
H523   H     0.56434   0.89874   0.36234   0.00000  Uiso   1.00
H524   H     0.59806   0.87847   0.40592   0.00000  Uiso   1.00
C525   C     0.57282   0.79801   0.11801   0.00000  Uiso   1.00
H526   H     0.58548   0.82456   0.14052   0.00000  Uiso   1.00
H527   H     0.56423   0.76781   0.13808   0.00000  Uiso   1.00
H528   H     0.59797   0.78790   0.09458   0.00000  Uiso   1.00
C529   C     0.75331   0.83334   0.24997   0.00000  Uiso   1.00
C530   C     0.91335   0.83333   0.25003   0.00000  Uiso   1.00
C531   C     0.83335   0.83335   0.16412   0.00000  Uiso   1.00
C532   C     0.83338   0.83331   0.33588   0.00000  Uiso   1.00
C533   C     0.86084   0.69061   0.27599   0.00000  Uiso   1.00
C534   C     0.80582   0.97606   0.22402   0.00000  Uiso   1.00
C535   C     0.80582   0.69068   0.22401   0.00000  Uiso   1.00
C536   C     0.86085   0.97599   0.27598   0.00000  Uiso   1.00
C537   C     0.68800   0.79468   0.23560   0.00000  Uiso   1.00
C538   C     0.97865   0.87197   0.26443   0.00000  Uiso   1.00
C539   C     0.97861   0.79468   0.23562   0.00000  Uiso   1.00
C540   C     0.68804   0.87200   0.26435   0.00000  Uiso   1.00
C541   C     0.79920   0.85077   0.04683   0.00000  Uiso   1.00
C542   C     0.79920   0.81589   0.45299   0.00000  Uiso   1.00
C543   C     0.86798   0.85055   0.45302   0.00000  Uiso   1.00
C544   C     0.86794   0.81596   0.04716   0.00000  Uiso   1.00
C545   C     0.79866   0.85088   0.09318   0.00000  Uiso   1.00
C546   C     0.79866   0.81582   0.40664   0.00000  Uiso   1.00
C547   C     0.86838   0.85067   0.40666   0.00000  Uiso   1.00
C548   C     0.86833   0.81587   0.09352   0.00000  Uiso   1.00
C549   C     0.83345   0.83338   0.11630   0.00000  Uiso   1.00
C550   C     0.83348   0.83327   0.38370   0.00000  Uiso   1.00
C551   C     0.83360   0.83334   0.02411   0.00000  Uiso   1.00
C552   C     0.83361   0.83323   0.47588   0.00000  Uiso   1.00
C553   C     0.95749   0.83332   0.25004   0.00000  Uiso   1.00
C554   C     0.70917   0.83335   0.24996   0.00000  Uiso   1.00
H555   H     0.88284   0.70875   0.29678   0.00000  Uiso   1.00
H556   H     0.78380   0.95793   0.20326   0.00000  Uiso   1.00
H557   H     0.78383   0.70887   0.20323   0.00000  Uiso   1.00
H558   H     0.88287   0.95780   0.29674   0.00000  Uiso   1.00
H559   H     0.77299   0.86445   0.02827   0.00000  Uiso   1.00
H560   H     0.77296   0.80226   0.47141   0.00000  Uiso   1.00
H561   H     0.89426   0.86419   0.47147   0.00000  Uiso   1.00
H562   H     0.89420   0.80226   0.02885   0.00000  Uiso   1.00
H563   H     0.70436   0.76482   0.22402   0.00000  Uiso   1.00
H564   H     0.96228   0.90181   0.27607   0.00000  Uiso   1.00
H565   H     0.96221   0.76483   0.22401   0.00000  Uiso   1.00
H566   H     0.70444   0.90187   0.27590   0.00000  Uiso   1.00
N567   N     0.83333   0.95240   0.25000   0.00000  Uiso   1.00
N568   N     0.83333   0.71427   0.25000   0.00000  Uiso   1.00
O569   O     0.77226   0.87154   0.24999   0.00000  Uiso   1.00
O570   O     0.89441   0.79513   0.25000   0.00000  Uiso   1.00
O571   O     0.89441   0.87154   0.25000   0.00000  Uiso   1.00
O572   O     0.77226   0.79513   0.24999   0.00000  Uiso   1.00
O573   O     0.83333   0.87155   0.18453   0.00000  Uiso   1.00
O574   O     0.83334   0.79511   0.31547   0.00000  Uiso   1.00
O575   O     0.83334   0.87155   0.31547   0.00000  Uiso   1.00
O576   O     0.83333   0.79511   0.18453   0.00000  Uiso   1.00
Zn577  Zn    0.83333   0.88437   0.25000   0.00000  Uiso   1.00
Zn578  Zn    0.83333   0.78229   0.25000   0.00000  Uiso   1.00
C579   C     0.76075   0.86873   0.11729   0.00000  Uiso   1.00
H580   H     0.76925   0.89897   0.13731   0.00000  Uiso   1.00
H581   H     0.73566   0.87877   0.09362   0.00000  Uiso   1.00
H582   H     0.74805   0.84219   0.13980   0.00000  Uiso   1.00
C583   C     0.76072   0.79808   0.38232   0.00000  Uiso   1.00
H584   H     0.76920   0.76788   0.36225   0.00000  Uiso   1.00
H585   H     0.73564   0.78800   0.40587   0.00000  Uiso   1.00
H586   H     0.74803   0.82470   0.35984   0.00000  Uiso   1.00
C587   C     0.90622   0.86848   0.38237   0.00000  Uiso   1.00
H588   H     0.91882   0.84195   0.35984   0.00000  Uiso   1.00
H589   H     0.89767   0.89874   0.36234   0.00000  Uiso   1.00
H590   H     0.93140   0.87847   0.40592   0.00000  Uiso   1.00
C591   C     0.90615   0.79801   0.11801   0.00000  Uiso   1.00
H592   H     0.91881   0.82456   0.14052   0.00000  Uiso   1.00
H593   H     0.89756   0.76781   0.13808   0.00000  Uiso   1.00
H594   H     0.93130   0.78790   0.09458   0.00000  Uiso   1.00
C595   C     0.08664   0.16667   0.74997   0.00000  Uiso   1.00
C596   C     0.24669   0.16666   0.75003   0.00000  Uiso   1.00
C597   C     0.16668   0.16668   0.66412   0.00000  Uiso   1.00
C598   C     0.16672   0.16665   0.83588   0.00000  Uiso   1.00
C599   C     0.19418   0.02394   0.77599   0.00000  Uiso   1.00
C600   C     0.13915   0.30939   0.72402   0.00000  Uiso   1.00
C601   C     0.13915   0.02401   0.72401   0.00000  Uiso   1.00
C602   C     0.19419   0.30932   0.77598   0.00000  Uiso   1.00
C603   C     0.02133   0.12802   0.73560   0.00000  Uiso   1.00
C604   C     0.31199   0.20530   0.76443   0.00000  Uiso   1.00
C605   C     0.31195   0.12801   0.73562   0.00000  Uiso   1.00
C606   C     0.02137   0.20533   0.76435   0.00000  Uiso   1.00
C607   C     0.13253   0.18410   0.54683   0.00000  Uiso   1.00
C608   C     0.13253   0.14922   0.95299   0.00000  Uiso   1.00
C609   C     0.20132   0.18388   0.95302   0.00000  Uiso   1.00
C610   C     0.20127   0.14930   0.54716   0.00000  Uiso   1.00
C611   C     0.13199   0.18422   0.59318   0.00000  Uiso   1.00
C612   C     0.13199   0.14915   0.90664   0.00000  Uiso   1.00
C613   C     0.20171   0.18400   0.90666   0.00000  Uiso   1.00
C614   C     0.20166   0.14921   0.59352   0.00000  Uiso   1.00
C615   C     0.16678   0.16672   0.61630   0.00000  Uiso   1.00
C616   C     0.16681   0.16660   0.88370   0.00000  Uiso   1.00
C617   C     0.16693   0.16667   0.52411   0.00000  Uiso   1.00
C618   C     0.16694   0.16657   0.97588   0.00000  Uiso   1.00
C619   C     0.29082   0.16665   0.75004   0.00000  Uiso   1.00
C620   C     0.04250   0.16668   0.74996   0.00000  Uiso   1.00
H621   H     0.21617   0.04208   0.79678   0.00000  Uiso   1.00
H622   H     0.11714   0.29126   0.70326   0.00000  Uiso   1.00
H623   H     0.11716   0.04221   0.70323   0.00000  Uiso   1.00
H624   H     0.21620   0.29113   0.79674   0.00000  Uiso   1.00
H625   H     0.10632   0.19778   0.52827   0.00000  Uiso   1.00
H626   H     0.10629   0.13559   0.97141   0.00000  Uiso   1.00
H627   H     0.22759   0.19752   0.97147   0.00000  Uiso   1.00
H628   H     0.22754   0.13559   0.52885   0.00000  Uiso   1.00
H629   H     0.03770   0.09815   0.72402   0.00000  Uiso   1.00
H630   H     0.29562   0.23515   0.77607   0.00000  Uiso   1.00
H631   H     0.29554   0.09816   0.72401   0.00000  Uiso   1.00
H632   H     0.03777   0.23520   0.77590   0.00000  Uiso   1.00
N633   N     0.16667   0.28573   0.75000   0.00000  Uiso   1.00
N634   N     0.16667   0.04760   0.75000   0.00000  Uiso   1.00
O635   O     0.10559   0.20487   0.74999   0.00000  Uiso   1.00
O636   O     0.22774   0.12846   0.75000   0.00000  Uiso   1.00
O637   O     0.22774   0.20487   0.75000   0.00000  Uiso   1.00
O638   O     0.10559   0.12846   0.74999   0.00000  Uiso   1.00
O639   O     0.16666   0.20489   0.68453   0.00000  Uiso   1.00
O640   O     0.16667   0.12845   0.81547   0.00000  Uiso   1.00
O641   O     0.16667   0.20489   0.81547   0.00000  Uiso   1.00
O642   O     0.16666   0.12845   0.68453   0.00000  Uiso   1.00
Zn643  Zn    0.16667   0.21771   0.75000   0.00000  Uiso   1.00
Zn644  Zn    0.16667   0.11563   0.75000   0.00000  Uiso   1.00
C645   C     0.09408   0.20206   0.61729   0.00000  Uiso   1.00
H646   H     0.10259   0.23230   0.63731   0.00000  Uiso   1.00
H647   H     0.06899   0.21211   0.59362   0.00000  Uiso   1.00
H648   H     0.08138   0.17552   0.63980   0.00000  Uiso   1.00
C649   C     0.09406   0.13141   0.88232   0.00000  Uiso   1.00
H650   H     0.10253   0.10121   0.86225   0.00000  Uiso   1.00
H651   H     0.06898   0.12134   0.90587   0.00000  Uiso   1.00
H652   H     0.08136   0.15803   0.85984   0.00000  Uiso   1.00
C653   C     0.23955   0.20181   0.88237   0.00000  Uiso   1.00
H654   H     0.25215   0.17528   0.85984   0.00000  Uiso   1.00
H655   H     0.23100   0.23208   0.86234   0.00000  Uiso   1.00
H656   H     0.26473   0.21180   0.90592   0.00000  Uiso   1.00
C657   C     0.23948   0.13134   0.61801   0.00000  Uiso   1.00
H658   H     0.25214   0.15789   0.64052   0.00000  Uiso   1.00
H659   H     0.23089   0.10114   0.63808   0.00000  Uiso   1.00
H660   H     0.26463   0.12123   0.59458   0.00000  Uiso   1.00
C661   C     0.41998   0.16667   0.74997   0.00000  Uiso   1.00
C662   C     0.58002   0.16666   0.75003   0.00000  Uiso   1.00
C663   C     0.50001   0.16668   0.66412   0.00000  Uiso   1.00
C664   C     0.50005   0.16665   0.83588   0.00000  Uiso   1.00
C665   C     0.52751   0.02394   0.77599   0.00000  Uiso   1.00
C666   C     0.47248   0.30939   0.72402   0.00000  Uiso   1.00
C667   C     0.47249   0.02401   0.72401   0.00000  Uiso   1.00
C668   C     0.52752   0.30932   0.77598   0.00000  Uiso   1.00
C669   C     0.35467   0.12802   0.73560   0.00000  Uiso   1.00
C670   C     0.64532   0.20530   0.76443   0.00000  Uiso   1.00
C671   C     0.64528   0.12801   0.73562   0.00000  Uiso   1.00
C672   C     0.35471   0.20533   0.76435   0.00000  Uiso   1.00
C673   C     0.46587   0.18410   0.54683   0.00000  Uiso   1.00
C674   C     0.46586   0.14922   0.95299   0.00000  Uiso   1.00
C675   C     0.53465   0.18388   0.95302   0.00000  Uiso   1.00
C676   C     0.53461   0.14930   0.54716   0.00000  Uiso   1.00
C677   C     0.46532   0.18422   0.59318   0.00000  Uiso   1.00
C678   C     0.46532   0.14915   0.90664   0.00000  Uiso   1.00
C679   C     0.53504   0.18400   0.90666   0.00000  Uiso   1.00
C680   C     0.53500   0.14921   0.59352   0.00000  Uiso   1.00
C681   C     0.50012   0.16672   0.61630   0.00000  Uiso   1.00
C682   C     0.50014   0.16660   0.88370   0.00000  Uiso   1.00
C683   C     0.50026   0.16667   0.52411   0.00000  Uiso   1.00
C684   C     0.50028   0.16657   0.97588   0.00000  Uiso   1.00
C685   C     0.62416   0.16665   0.75004   0.00000  Uiso   1.00
C686   C     0.37584   0.16668   0.74996   0.00000  Uiso   1.00
H687   H     0.54950   0.04208   0.79678   0.00000  Uiso   1.00
H688   H     0.45047   0.29126   0.70326   0.00000  Uiso   1.00
H689   H     0.45049   0.04221   0.70323   0.00000  Uiso   1.00
H690   H     0.54954   0.29113   0.79674   0.00000  Uiso   1.00
H691   H     0.43965   0.19778   0.52827   0.00000  Uiso   1.00
H692   H     0.43963   0.13559   0.97141   0.00000  Uiso   1.00
H693   H     0.56092   0.19752   0.97147   0.00000  Uiso   1.00
H694   H     0.56087   0.13559   0.52885   0.00000  Uiso   1.00
H695   H     0.37103   0.09815   0.72402   0.00000  Uiso   1.00
H696   H     0.62895   0.23515   0.77607   0.00000  Uiso   1.00
H697   H     0.62888   0.09816   0.72401   0.00000  Uiso   1.00
H698   H     0.37110   0.23520   0.77590   0.00000  Uiso   1.00
N699   N     0.50000   0.28573   0.75000   0.00000  Uiso   1.00
N700   N     0.50000   0.04760   0.75000   0.00000  Uiso   1.00
O701   O     0.43892   0.20487   0.74999   0.00000  Uiso   1.00
O702   O     0.56108   0.12846   0.75000   0.00000  Uiso   1.00
O703   O     0.56108   0.20487   0.75000   0.00000  Uiso   1.00
O704   O     0.43892   0.12846   0.74999   0.00000  Uiso   1.00
O705   O     0.50000   0.20489   0.68453   0.00000  Uiso   1.00
O706   O     0.50000   0.12845   0.81547   0.00000  Uiso   1.00
O707   O     0.50000   0.20489   0.81547   0.00000  Uiso   1.00
O708   O     0.50000   0.12845   0.68453   0.00000  Uiso   1.00
Zn709  Zn    0.50000   0.21771   0.75000   0.00000  Uiso   1.00
Zn710  Zn    0.50000   0.11563   0.75000   0.00000  Uiso   1.00
C711   C     0.42741   0.20206   0.61729   0.00000  Uiso   1.00
H712   H     0.43592   0.23230   0.63731   0.00000  Uiso   1.00
H713   H     0.40232   0.21211   0.59362   0.00000  Uiso   1.00
H714   H     0.41472   0.17552   0.63980   0.00000  Uiso   1.00
C715   C     0.42739   0.13141   0.88232   0.00000  Uiso   1.00
H716   H     0.43587   0.10121   0.86225   0.00000  Uiso   1.00
H717   H     0.40231   0.12134   0.90587   0.00000  Uiso   1.00
H718   H     0.41470   0.15803   0.85984   0.00000  Uiso   1.00
C719   C     0.57289   0.20181   0.88237   0.00000  Uiso   1.00
H720   H     0.58548   0.17528   0.85984   0.00000  Uiso   1.00
H721   H     0.56434   0.23208   0.86234   0.00000  Uiso   1.00
H722   H     0.59806   0.21180   0.90592   0.00000  Uiso   1.00
C723   C     0.57282   0.13134   0.61801   0.00000  Uiso   1.00
H724   H     0.58548   0.15789   0.64052   0.00000  Uiso   1.00
H725   H     0.56423   0.10114   0.63808   0.00000  Uiso   1.00
H726   H     0.59797   0.12123   0.59458   0.00000  Uiso   1.00
C727   C     0.75331   0.16667   0.74997   0.00000  Uiso   1.00
C728   C     0.91335   0.16666   0.75003   0.00000  Uiso   1.00
C729   C     0.83335   0.16668   0.66412   0.00000  Uiso   1.00
C730   C     0.83338   0.16665   0.83588   0.00000  Uiso   1.00
C731   C     0.86084   0.02394   0.77599   0.00000  Uiso   1.00
C732   C     0.80582   0.30939   0.72402   0.00000  Uiso   1.00
C733   C     0.80582   0.02401   0.72401   0.00000  Uiso   1.00
C734   C     0.86085   0.30932   0.77598   0.00000  Uiso   1.00
C735   C     0.68800   0.12802   0.73560   0.00000  Uiso   1.00
C736   C     0.97865   0.20530   0.76443   0.00000  Uiso   1.00
C737   C     0.97861   0.12801   0.73562   0.00000  Uiso   1.00
C738   C     0.68804   0.20533   0.76435   0.00000  Uiso   1.00
C739   C     0.79920   0.18410   0.54683   0.00000  Uiso   1.00
C740   C     0.79920   0.14922   0.95299   0.00000  Uiso   1.00
C741   C     0.86798   0.18388   0.95302   0.00000  Uiso   1.00
C742   C     0.86794   0.14930   0.54716   0.00000  Uiso   1.00
C743   C     0.79866   0.18422   0.59318   0.00000  Uiso   1.00
C744   C     0.79866   0.14915   0.90664   0.00000  Uiso   1.00
C745   C     0.86838   0.18400   0.90666   0.00000  Uiso   1.00
C746   C     0.86833   0.14921   0.59352   0.00000  Uiso   1.00
C747   C     0.83345   0.16672   0.61630   0.00000  Uiso   1.00
C748   C     0.83348   0.16660   0.88370   0.00000  Uiso   1.00
C749   C     0.83360   0.16667   0.52411   0.00000  Uiso   1.00
C750   C     0.83361   0.16657   0.97588   0.00000  Uiso   1.00
C751   C     0.95749   0.16665   0.75004   0.00000  Uiso   1.00
C752   C     0.70917   0.16668   0.74996   0.00000  Uiso   1.00
H753   H     0.88284   0.04208   0.79678   0.00000  Uiso   1.00
H754   H     0.78380   0.29126   0.70326   0.00000  Uiso   1.00
H755   H     0.78383   0.04221   0.70323   0.00000  Uiso   1.00
H756   H     0.88287   0.29113   0.79674   0.00000  Uiso   1.00
H757   H     0.77299   0.19778   0.52827   0.00000  Uiso   1.00
H758   H     0.77296   0.13559   0.97141   0.00000  Uiso   1.00
H759   H     0.89426   0.19752   0.97147   0.00000  Uiso   1.00
H760   H     0.89420   0.13559   0.52885   0.00000  Uiso   1.00
H761   H     0.70436   0.09815   0.72402   0.00000  Uiso   1.00
H762   H     0.96228   0.23515   0.77607   0.00000  Uiso   1.00
H763   H     0.96221   0.09816   0.72401   0.00000  Uiso   1.00
H764   H     0.70444   0.23520   0.77590   0.00000  Uiso   1.00
N765   N     0.83333   0.28573   0.75000   0.00000  Uiso   1.00
N766   N     0.83333   0.04760   0.75000   0.00000  Uiso   1.00
O767   O     0.77226   0.20487   0.74999   0.00000  Uiso   1.00
O768   O     0.89441   0.12846   0.75000   0.00000  Uiso   1.00
O769   O     0.89441   0.20487   0.75000   0.00000  Uiso   1.00
O770   O     0.77226   0.12846   0.74999   0.00000  Uiso   1.00
O771   O     0.83333   0.20489   0.68453   0.00000  Uiso   1.00
O772   O     0.83334   0.12845   0.81547   0.00000  Uiso   1.00
O773   O     0.83334   0.20489   0.81547   0.00000  Uiso   1.00
O774   O     0.83333   0.12845   0.68453   0.00000  Uiso   1.00
Zn775  Zn    0.83333   0.21771   0.75000   0.00000  Uiso   1.00
Zn776  Zn    0.83333   0.11563   0.75000   0.00000  Uiso   1.00
C777   C     0.76075   0.20206   0.61729   0.00000  Uiso   1.00
H778   H     0.76925   0.23230   0.63731   0.00000  Uiso   1.00
H779   H     0.73566   0.21211   0.59362   0.00000  Uiso   1.00
H780   H     0.74805   0.17552   0.63980   0.00000  Uiso   1.00
C781   C     0.76072   0.13141   0.88232   0.00000  Uiso   1.00
H782   H     0.76920   0.10121   0.86225   0.00000  Uiso   1.00
H783   H     0.73564   0.12134   0.90587   0.00000  Uiso   1.00
H784   H     0.74803   0.15803   0.85984   0.00000  Uiso   1.00
C785   C     0.90622   0.20181   0.88237   0.00000  Uiso   1.00
H786   H     0.91882   0.17528   0.85984   0.00000  Uiso   1.00
H787   H     0.89767   0.23208   0.86234   0.00000  Uiso   1.00
H788   H     0.93140   0.21180   0.90592   0.00000  Uiso   1.00
C789   C     0.90615   0.13134   0.61801   0.00000  Uiso   1.00
H790   H     0.91881   0.15789   0.64052   0.00000  Uiso   1.00
H791   H     0.89756   0.10114   0.63808   0.00000  Uiso   1.00
H792   H     0.93130   0.12123   0.59458   0.00000  Uiso   1.00
C793   C     0.08664   0.50001   0.74997   0.00000  Uiso   1.00
C794   C     0.24669   0.49999   0.75003   0.00000  Uiso   1.00
C795   C     0.16668   0.50002   0.66412   0.00000  Uiso   1.00
C796   C     0.16672   0.49998   0.83588   0.00000  Uiso   1.00
C797   C     0.19418   0.35728   0.77599   0.00000  Uiso   1.00
C798   C     0.13915   0.64272   0.72402   0.00000  Uiso   1.00
C799   C     0.13915   0.35735   0.72401   0.00000  Uiso   1.00
C800   C     0.19419   0.64265   0.77598   0.00000  Uiso   1.00
C801   C     0.02133   0.46135   0.73560   0.00000  Uiso   1.00
C802   C     0.31199   0.53864   0.76443   0.00000  Uiso   1.00
C803   C     0.31195   0.46134   0.73562   0.00000  Uiso   1.00
C804   C     0.02137   0.53866   0.76435   0.00000  Uiso   1.00
C805   C     0.13253   0.51744   0.54683   0.00000  Uiso   1.00
C806   C     0.13253   0.48256   0.95299   0.00000  Uiso   1.00
C807   C     0.20132   0.51721   0.95302   0.00000  Uiso   1.00
C808   C     0.20127   0.48263   0.54716   0.00000  Uiso   1.00
C809   C     0.13199   0.51755   0.59318   0.00000  Uiso   1.00
C810   C     0.13199   0.48248   0.90664   0.00000  Uiso   1.00
C811   C     0.20171   0.51734   0.90666   0.00000  Uiso   1.00
C812   C     0.20166   0.48254   0.59352   0.00000  Uiso   1.00
C813   C     0.16678   0.50005   0.61630   0.00000  Uiso   1.00
C814   C     0.16681   0.49993   0.88370   0.00000  Uiso   1.00
C815   C     0.16693   0.50001   0.52411   0.00000  Uiso   1.00
C816   C     0.16694   0.49990   0.97588   0.00000  Uiso   1.00
C817   C     0.29082   0.49999   0.75004   0.00000  Uiso   1.00
C818   C     0.04250   0.50001   0.74996   0.00000  Uiso   1.00
H819   H     0.21617   0.37541   0.79678   0.00000  Uiso   1.00
H820   H     0.11714   0.62459   0.70326   0.00000  Uiso   1.00
H821   H     0.11716   0.37554   0.70323   0.00000  Uiso   1.00
H822   H     0.21620   0.62447   0.79674   0.00000  Uiso   1.00
H823   H     0.10632   0.53112   0.52827   0.00000  Uiso   1.00
H824   H     0.10629   0.46892   0.97141   0.00000  Uiso   1.00
H825   H     0.22759   0.53085   0.97147   0.00000  Uiso   1.00
H826   H     0.22754   0.46892   0.52885   0.00000  Uiso   1.00
H827   H     0.03770   0.43149   0.72402   0.00000  Uiso   1.00
H828   H     0.29562   0.56848   0.77607   0.00000  Uiso   1.00
H829   H     0.29554   0.43149   0.72401   0.00000  Uiso   1.00
H830   H     0.03777   0.56854   0.77590   0.00000  Uiso   1.00
N831   N     0.16667   0.61907   0.75000   0.00000  Uiso   1.00
N832   N     0.16667   0.38093   0.75000   0.00000  Uiso   1.00
O833   O     0.10559   0.53821   0.74999   0.00000  Uiso   1.00
O834   O     0.22774   0.46179   0.75000   0.00000  Uiso   1.00
O835   O     0.22774   0.53821   0.75000   0.00000  Uiso   1.00
O836   O     0.10559   0.46179   0.74999   0.00000  Uiso   1.00
O837   O     0.16666   0.53822   0.68453   0.00000  Uiso   1.00
O838   O     0.16667   0.46178   0.81547   0.00000  Uiso   1.00
O839   O     0.16667   0.53822   0.81547   0.00000  Uiso   1.00
O840   O     0.16666   0.46178   0.68453   0.00000  Uiso   1.00
Zn841  Zn    0.16667   0.55104   0.75000   0.00000  Uiso   1.00
Zn842  Zn    0.16667   0.44896   0.75000   0.00000  Uiso   1.00
C843   C     0.09408   0.53540   0.61729   0.00000  Uiso   1.00
H844   H     0.10259   0.56563   0.63731   0.00000  Uiso   1.00
H845   H     0.06899   0.54544   0.59362   0.00000  Uiso   1.00
H846   H     0.08138   0.50886   0.63980   0.00000  Uiso   1.00
C847   C     0.09406   0.46474   0.88232   0.00000  Uiso   1.00
H848   H     0.10253   0.43455   0.86225   0.00000  Uiso   1.00
H849   H     0.06898   0.45467   0.90587   0.00000  Uiso   1.00
H850   H     0.08136   0.49136   0.85984   0.00000  Uiso   1.00
C851   C     0.23955   0.53515   0.88237   0.00000  Uiso   1.00
H852   H     0.25215   0.50861   0.85984   0.00000  Uiso   1.00
H853   H     0.23100   0.56541   0.86234   0.00000  Uiso   1.00
H854   H     0.26473   0.54514   0.90592   0.00000  Uiso   1.00
C855   C     0.23948   0.46467   0.61801   0.00000  Uiso   1.00
H856   H     0.25214   0.49122   0.64052   0.00000  Uiso   1.00
H857   H     0.23089   0.43447   0.63808   0.00000  Uiso   1.00
H858   H     0.26463   0.45456   0.59458   0.00000  Uiso   1.00
C859   C     0.41998   0.50001   0.74997   0.00000  Uiso   1.00
C860   C     0.58002   0.49999   0.75003   0.00000  Uiso   1.00
C861   C     0.50001   0.50002   0.66412   0.00000  Uiso   1.00
C862   C     0.50005   0.49998   0.83588   0.00000  Uiso   1.00
C863   C     0.52751   0.35728   0.77599   0.00000  Uiso   1.00
C864   C     0.47248   0.64272   0.72402   0.00000  Uiso   1.00
C865   C     0.47249   0.35735   0.72401   0.00000  Uiso   1.00
C866   C     0.52752   0.64265   0.77598   0.00000  Uiso   1.00
C867   C     0.35467   0.46135   0.73560   0.00000  Uiso   1.00
C868   C     0.64532   0.53864   0.76443   0.00000  Uiso   1.00
C869   C     0.64528   0.46134   0.73562   0.00000  Uiso   1.00
C870   C     0.35471   0.53866   0.76435   0.00000  Uiso   1.00
C871   C     0.46587   0.51744   0.54683   0.00000  Uiso   1.00
C872   C     0.46586   0.48256   0.95299   0.00000  Uiso   1.00
C873   C     0.53465   0.51721   0.95302   0.00000  Uiso   1.00
C874   C     0.53461   0.48263   0.54716   0.00000  Uiso   1.00
C875   C     0.46532   0.51755   0.59318   0.00000  Uiso   1.00
C876   C     0.46532   0.48248   0.90664   0.00000  Uiso   1.00
C877   C     0.53504   0.51734   0.90666   0.00000  Uiso   1.00
C878   C     0.53500   0.48254   0.59352   0.00000  Uiso   1.00
C879   C     0.50012   0.50005   0.61630   0.00000  Uiso   1.00
C880   C     0.50014   0.49993   0.88370   0.00000  Uiso   1.00
C881   C     0.50026   0.50001   0.52411   0.00000  Uiso   1.00
C882   C     0.50028   0.49990   0.97588   0.00000  Uiso   1.00
C883   C     0.62416   0.49999   0.75004   0.00000  Uiso   1.00
C884   C     0.37584   0.50001   0.74996   0.00000  Uiso   1.00
H885   H     0.54950   0.37541   0.79678   0.00000  Uiso   1.00
H886   H     0.45047   0.62459   0.70326   0.00000  Uiso   1.00
H887   H     0.45049   0.37554   0.70323   0.00000  Uiso   1.00
H888   H     0.54954   0.62447   0.79674   0.00000  Uiso   1.00
H889   H     0.43965   0.53112   0.52827   0.00000  Uiso   1.00
H890   H     0.43963   0.46892   0.97141   0.00000  Uiso   1.00
H891   H     0.56092   0.53085   0.97147   0.00000  Uiso   1.00
H892   H     0.56087   0.46892   0.52885   0.00000  Uiso   1.00
H893   H     0.37103   0.43149   0.72402   0.00000  Uiso   1.00
H894   H     0.62895   0.56848   0.77607   0.00000  Uiso   1.00
H895   H     0.62888   0.43149   0.72401   0.00000  Uiso   1.00
H896   H     0.37110   0.56854   0.77590   0.00000  Uiso   1.00
N897   N     0.50000   0.61907   0.75000   0.00000  Uiso   1.00
N898   N     0.50000   0.38093   0.75000   0.00000  Uiso   1.00
O899   O     0.43892   0.53821   0.74999   0.00000  Uiso   1.00
O900   O     0.56108   0.46179   0.75000   0.00000  Uiso   1.00
O901   O     0.56108   0.53821   0.75000   0.00000  Uiso   1.00
O902   O     0.43892   0.46179   0.74999   0.00000  Uiso   1.00
O903   O     0.50000   0.53822   0.68453   0.00000  Uiso   1.00
O904   O     0.50000   0.46178   0.81547   0.00000  Uiso   1.00
O905   O     0.50000   0.53822   0.81547   0.00000  Uiso   1.00
O906   O     0.50000   0.46178   0.68453   0.00000  Uiso   1.00
Zn907  Zn    0.50000   0.55104   0.75000   0.00000  Uiso   1.00
Zn908  Zn    0.50000   0.44896   0.75000   0.00000  Uiso   1.00
C909   C     0.42741   0.53540   0.61729   0.00000  Uiso   1.00
H910   H     0.43592   0.56563   0.63731   0.00000  Uiso   1.00
H911   H     0.40232   0.54544   0.59362   0.00000  Uiso   1.00
H912   H     0.41472   0.50886   0.63980   0.00000  Uiso   1.00
C913   C     0.42739   0.46474   0.88232   0.00000  Uiso   1.00
H914   H     0.43587   0.43455   0.86225   0.00000  Uiso   1.00
H915   H     0.40231   0.45467   0.90587   0.00000  Uiso   1.00
H916   H     0.41470   0.49136   0.85984   0.00000  Uiso   1.00
C917   C     0.57289   0.53515   0.88237   0.00000  Uiso   1.00
H918   H     0.58548   0.50861   0.85984   0.00000  Uiso   1.00
H919   H     0.56434   0.56541   0.86234   0.00000  Uiso   1.00
H920   H     0.59806   0.54514   0.90592   0.00000  Uiso   1.00
C921   C     0.57282   0.46467   0.61801   0.00000  Uiso   1.00
H922   H     0.58548   0.49122   0.64052   0.00000  Uiso   1.00
H923   H     0.56423   0.43447   0.63808   0.00000  Uiso   1.00
H924   H     0.59797   0.45456   0.59458   0.00000  Uiso   1.00
C925   C     0.75331   0.50001   0.74997   0.00000  Uiso   1.00
C926   C     0.91335   0.49999   0.75003   0.00000  Uiso   1.00
C927   C     0.83335   0.50002   0.66412   0.00000  Uiso   1.00
C928   C     0.83338   0.49998   0.83588   0.00000  Uiso   1.00
C929   C     0.86084   0.35728   0.77599   0.00000  Uiso   1.00
C930   C     0.80582   0.64272   0.72402   0.00000  Uiso   1.00
C931   C     0.80582   0.35735   0.72401   0.00000  Uiso   1.00
C932   C     0.86085   0.64265   0.77598   0.00000  Uiso   1.00
C933   C     0.68800   0.46135   0.73560   0.00000  Uiso   1.00
C934   C     0.97865   0.53864   0.76443   0.00000  Uiso   1.00
C935   C     0.97861   0.46134   0.73562   0.00000  Uiso   1.00
C936   C     0.68804   0.53866   0.76435   0.00000  Uiso   1.00
C937   C     0.79920   0.51744   0.54683   0.00000  Uiso   1.00
C938   C     0.79920   0.48256   0.95299   0.00000  Uiso   1.00
C939   C     0.86798   0.51721   0.95302   0.00000  Uiso   1.00
C940   C     0.86794   0.48263   0.54716   0.00000  Uiso   1.00
C941   C     0.79866   0.51755   0.59318   0.00000  Uiso   1.00
C942   C     0.79866   0.48248   0.90664   0.00000  Uiso   1.00
C943   C     0.86838   0.51734   0.90666   0.00000  Uiso   1.00
C944   C     0.86833   0.48254   0.59352   0.00000  Uiso   1.00
C945   C     0.83345   0.50005   0.61630   0.00000  Uiso   1.00
C946   C     0.83348   0.49993   0.88370   0.00000  Uiso   1.00
C947   C     0.83360   0.50001   0.52411   0.00000  Uiso   1.00
C948   C     0.83361   0.49990   0.97588   0.00000  Uiso   1.00
C949   C     0.95749   0.49999   0.75004   0.00000  Uiso   1.00
C950   C     0.70917   0.50001   0.74996   0.00000  Uiso   1.00
H951   H     0.88284   0.37541   0.79678   0.00000  Uiso   1.00
H952   H     0.78380   0.62459   0.70326   0.00000  Uiso   1.00
H953   H     0.78383   0.37554   0.70323   0.00000  Uiso   1.00
H954   H     0.88287   0.62447   0.79674   0.00000  Uiso   1.00
H955   H     0.77299   0.53112   0.52827   0.00000  Uiso   1.00
H956   H     0.77296   0.46892   0.97141   0.00000  Uiso   1.00
H957   H     0.89426   0.53085   0.97147   0.00000  Uiso   1.00
H958   H     0.89420   0.46892   0.52885   0.00000  Uiso   1.00
H959   H     0.70436   0.43149   0.72402   0.00000  Uiso   1.00
H960   H     0.96228   0.56848   0.77607   0.00000  Uiso   1.00
H961   H     0.96221   0.43149   0.72401   0.00000  Uiso   1.00
H962   H     0.70444   0.56854   0.77590   0.00000  Uiso   1.00
N963   N     0.83333   0.61907   0.75000   0.00000  Uiso   1.00
N964   N     0.83333   0.38093   0.75000   0.00000  Uiso   1.00
O965   O     0.77226   0.53821   0.74999   0.00000  Uiso   1.00
O966   O     0.89441   0.46179   0.75000   0.00000  Uiso   1.00
O967   O     0.89441   0.53821   0.75000   0.00000  Uiso   1.00
O968   O     0.77226   0.46179   0.74999   0.00000  Uiso   1.00
O969   O     0.83333   0.53822   0.68453   0.00000  Uiso   1.00
O970   O     0.83334   0.46178   0.81547   0.00000  Uiso   1.00
O971   O     0.83334   0.53822   0.81547   0.00000  Uiso   1.00
O972   O     0.83333   0.46178   0.68453   0.00000  Uiso   1.00
Zn973  Zn    0.83333   0.55104   0.75000   0.00000  Uiso   1.00
Zn974  Zn    0.83333   0.44896   0.75000   0.00000  Uiso   1.00
C975   C     0.76075   0.53540   0.61729   0.00000  Uiso   1.00
H976   H     0.76925   0.56563   0.63731   0.00000  Uiso   1.00
H977   H     0.73566   0.54544   0.59362   0.00000  Uiso   1.00
H978   H     0.74805   0.50886   0.63980   0.00000  Uiso   1.00
C979   C     0.76072   0.46474   0.88232   0.00000  Uiso   1.00
H980   H     0.76920   0.43455   0.86225   0.00000  Uiso   1.00
H981   H     0.73564   0.45467   0.90587   0.00000  Uiso   1.00
H982   H     0.74803   0.49136   0.85984   0.00000  Uiso   1.00
C983   C     0.90622   0.53515   0.88237   0.00000  Uiso   1.00
H984   H     0.91882   0.50861   0.85984   0.00000  Uiso   1.00
H985   H     0.89767   0.56541   0.86234   0.00000  Uiso   1.00
H986   H     0.93140   0.54514   0.90592   0.00000  Uiso   1.00
C987   C     0.90615   0.46467   0.61801   0.00000  Uiso   1.00
H988   H     0.91881   0.49122   0.64052   0.00000  Uiso   1.00
H989   H     0.89756   0.43447   0.63808   0.00000  Uiso   1.00
H990   H     0.93130   0.45456   0.59458   0.00000  Uiso   1.00
C991   C     0.08664   0.83334   0.74997   0.00000  Uiso   1.00
C992   C     0.24669   0.83333   0.75003   0.00000  Uiso   1.00
C993   C     0.16668   0.83335   0.66412   0.00000  Uiso   1.00
C994   C     0.16672   0.83331   0.83588   0.00000  Uiso   1.00
C995   C     0.19418   0.69061   0.77599   0.00000  Uiso   1.00
C996   C     0.13915   0.97606   0.72402   0.00000  Uiso   1.00
C997   C     0.13915   0.69068   0.72401   0.00000  Uiso   1.00
C998   C     0.19419   0.97599   0.77598   0.00000  Uiso   1.00
C999   C     0.02133   0.79468   0.73560   0.00000  Uiso   1.00
C1000  C     0.31199   0.87197   0.76443   0.00000  Uiso   1.00
C1001  C     0.31195   0.79468   0.73562   0.00000  Uiso   1.00
C1002  C     0.02137   0.87200   0.76435   0.00000  Uiso   1.00
C1003  C     0.13253   0.85077   0.54683   0.00000  Uiso   1.00
C1004  C     0.13253   0.81589   0.95299   0.00000  Uiso   1.00
C1005  C     0.20132   0.85055   0.95302   0.00000  Uiso   1.00
C1006  C     0.20127   0.81596   0.54716   0.00000  Uiso   1.00
C1007  C     0.13199   0.85088   0.59318   0.00000  Uiso   1.00
C1008  C     0.13199   0.81582   0.90664   0.00000  Uiso   1.00
C1009  C     0.20171   0.85067   0.90666   0.00000  Uiso   1.00
C1010  C     0.20166   0.81587   0.59352   0.00000  Uiso   1.00
C1011  C     0.16678   0.83338   0.61630   0.00000  Uiso   1.00
C1012  C     0.16681   0.83327   0.88370   0.00000  Uiso   1.00
C1013  C     0.16693   0.83334   0.52411   0.00000  Uiso   1.00
C1014  C     0.16694   0.83323   0.97588   0.00000  Uiso   1.00
C1015  C     0.29082   0.83332   0.75004   0.00000  Uiso   1.00
C1016  C     0.04250   0.83335   0.74996   0.00000  Uiso   1.00
H1017  H     0.21617   0.70875   0.79678   0.00000  Uiso   1.00
H1018  H     0.11714   0.95793   0.70326   0.00000  Uiso   1.00
H1019  H     0.11716   0.70887   0.70323   0.00000  Uiso   1.00
H1020  H     0.21620   0.95780   0.79674   0.00000  Uiso   1.00
H1021  H     0.10632   0.86445   0.52827   0.00000  Uiso   1.00
H1022  H     0.10629   0.80226   0.97141   0.00000  Uiso   1.00
H1023  H     0.22759   0.86419   0.97147   0.00000  Uiso   1.00
H1024  H     0.22754   0.80226   0.52885   0.00000  Uiso   1.00
H1025  H     0.03770   0.76482   0.72402   0.00000  Uiso   1.00
H1026  H     0.29562   0.90181   0.77607   0.00000  Uiso   1.00
H1027  H     0.29554   0.76483   0.72401   0.00000  Uiso   1.00
H1028  H     0.03777   0.90187   0.77590   0.00000  Uiso   1.00
N1029  N     0.16667   0.95240   0.75000   0.00000  Uiso   1.00
N1030  N     0.16667   0.71427   0.75000   0.00000  Uiso   1.00
O1031  O     0.10559   0.87154   0.74999   0.00000  Uiso   1.00
O1032  O     0.22774   0.79513   0.75000   0.00000  Uiso   1.00
O1033  O     0.22774   0.87154   0.75000   0.00000  Uiso   1.00
O1034  O     0.10559   0.79513   0.74999   0.00000  Uiso   1.00
O1035  O     0.16666   0.87155   0.68453   0.00000  Uiso   1.00
O1036  O     0.16667   0.79511   0.81547   0.00000  Uiso   1.00
O1037  O     0.16667   0.87155   0.81547   0.00000  Uiso   1.00
O1038  O     0.16666   0.79511   0.68453   0.00000  Uiso   1.00
Zn1039 Zn    0.16667   0.88437   0.75000   0.00000  Uiso   1.00
Zn1040 Zn    0.16667   0.78229   0.75000   0.00000  Uiso   1.00
C1041  C     0.09408   0.86873   0.61729   0.00000  Uiso   1.00
H1042  H     0.10259   0.89897   0.63731   0.00000  Uiso   1.00
H1043  H     0.06899   0.87877   0.59362   0.00000  Uiso   1.00
H1044  H     0.08138   0.84219   0.63980   0.00000  Uiso   1.00
C1045  C     0.09406   0.79808   0.88232   0.00000  Uiso   1.00
H1046  H     0.10253   0.76788   0.86225   0.00000  Uiso   1.00
H1047  H     0.06898   0.78800   0.90587   0.00000  Uiso   1.00
H1048  H     0.08136   0.82470   0.85984   0.00000  Uiso   1.00
C1049  C     0.23955   0.86848   0.88237   0.00000  Uiso   1.00
H1050  H     0.25215   0.84195   0.85984   0.00000  Uiso   1.00
H1051  H     0.23100   0.89874   0.86234   0.00000  Uiso   1.00
H1052  H     0.26473   0.87847   0.90592   0.00000  Uiso   1.00
C1053  C     0.23948   0.79801   0.61801   0.00000  Uiso   1.00
H1054  H     0.25214   0.82456   0.64052   0.00000  Uiso   1.00
H1055  H     0.23089   0.76781   0.63808   0.00000  Uiso   1.00
H1056  H     0.26463   0.78790   0.59458   0.00000  Uiso   1.00
C1057  C     0.41998   0.83334   0.74997   0.00000  Uiso   1.00
C1058  C     0.58002   0.83333   0.75003   0.00000  Uiso   1.00
C1059  C     0.50001   0.83335   0.66412   0.00000  Uiso   1.00
C1060  C     0.50005   0.83331   0.83588   0.00000  Uiso   1.00
C1061  C     0.52751   0.69061   0.77599   0.00000  Uiso   1.00
C1062  C     0.47248   0.97606   0.72402   0.00000  Uiso   1.00
C1063  C     0.47249   0.69068   0.72401   0.00000  Uiso   1.00
C1064  C     0.52752   0.97599   0.77598   0.00000  Uiso   1.00
C1065  C     0.35467   0.79468   0.73560   0.00000  Uiso   1.00
C1066  C     0.64532   0.87197   0.76443   0.00000  Uiso   1.00
C1067  C     0.64528   0.79468   0.73562   0.00000  Uiso   1.00
C1068  C     0.35471   0.87200   0.76435   0.00000  Uiso   1.00
C1069  C     0.46587   0.85077   0.54683   0.00000  Uiso   1.00
C1070  C     0.46586   0.81589   0.95299   0.00000  Uiso   1.00
C1071  C     0.53465   0.85055   0.95302   0.00000  Uiso   1.00
C1072  C     0.53461   0.81596   0.54716   0.00000  Uiso   1.00
C1073  C     0.46532   0.85088   0.59318   0.00000  Uiso   1.00
C1074  C     0.46532   0.81582   0.90664   0.00000  Uiso   1.00
C1075  C     0.53504   0.85067   0.90666   0.00000  Uiso   1.00
C1076  C     0.53500   0.81587   0.59352   0.00000  Uiso   1.00
C1077  C     0.50012   0.83338   0.61630   0.00000  Uiso   1.00
C1078  C     0.50014   0.83327   0.88370   0.00000  Uiso   1.00
C1079  C     0.50026   0.83334   0.52411   0.00000  Uiso   1.00
C1080  C     0.50028   0.83323   0.97588   0.00000  Uiso   1.00
C1081  C     0.62416   0.83332   0.75004   0.00000  Uiso   1.00
C1082  C     0.37584   0.83335   0.74996   0.00000  Uiso   1.00
H1083  H     0.54950   0.70875   0.79678   0.00000  Uiso   1.00
H1084  H     0.45047   0.95793   0.70326   0.00000  Uiso   1.00
H1085  H     0.45049   0.70887   0.70323   0.00000  Uiso   1.00
H1086  H     0.54954   0.95780   0.79674   0.00000  Uiso   1.00
H1087  H     0.43965   0.86445   0.52827   0.00000  Uiso   1.00
H1088  H     0.43963   0.80226   0.97141   0.00000  Uiso   1.00
H1089  H     0.56092   0.86419   0.97147   0.00000  Uiso   1.00
H1090  H     0.56087   0.80226   0.52885   0.00000  Uiso   1.00
H1091  H     0.37103   0.76482   0.72402   0.00000  Uiso   1.00
H1092  H     0.62895   0.90181   0.77607   0.00000  Uiso   1.00
H1093  H     0.62888   0.76483   0.72401   0.00000  Uiso   1.00
H1094  H     0.37110   0.90187   0.77590   0.00000  Uiso   1.00
N1095  N     0.50000   0.95240   0.75000   0.00000  Uiso   1.00
N1096  N     0.50000   0.71427   0.75000   0.00000  Uiso   1.00
O1097  O     0.43892   0.87154   0.74999   0.00000  Uiso   1.00
O1098  O     0.56108   0.79513   0.75000   0.00000  Uiso   1.00
O1099  O     0.56108   0.87154   0.75000   0.00000  Uiso   1.00
O1100  O     0.43892   0.79513   0.74999   0.00000  Uiso   1.00
O1101  O     0.50000   0.87155   0.68453   0.00000  Uiso   1.00
O1102  O     0.50000   0.79511   0.81547   0.00000  Uiso   1.00
O1103  O     0.50000   0.87155   0.81547   0.00000  Uiso   1.00
O1104  O     0.50000   0.79511   0.68453   0.00000  Uiso   1.00
Zn1105 Zn    0.50000   0.88437   0.75000   0.00000  Uiso   1.00
Zn1106 Zn    0.50000   0.78229   0.75000   0.00000  Uiso   1.00
C1107  C     0.42741   0.86873   0.61729   0.00000  Uiso   1.00
H1108  H     0.43592   0.89897   0.63731   0.00000  Uiso   1.00
H1109  H     0.40232   0.87877   0.59362   0.00000  Uiso   1.00
H1110  H     0.41472   0.84219   0.63980   0.00000  Uiso   1.00
C1111  C     0.42739   0.79808   0.88232   0.00000  Uiso   1.00
H1112  H     0.43587   0.76788   0.86225   0.00000  Uiso   1.00
H1113  H     0.40231   0.78800   0.90587   0.00000  Uiso   1.00
H1114  H     0.41470   0.82470   0.85984   0.00000  Uiso   1.00
C1115  C     0.57289   0.86848   0.88237   0.00000  Uiso   1.00
H1116  H     0.58548   0.84195   0.85984   0.00000  Uiso   1.00
H1117  H     0.56434   0.89874   0.86234   0.00000  Uiso   1.00
H1118  H     0.59806   0.87847   0.90592   0.00000  Uiso   1.00
C1119  C     0.57282   0.79801   0.61801   0.00000  Uiso   1.00
H1120  H     0.58548   0.82456   0.64052   0.00000  Uiso   1.00
H1121  H     0.56423   0.76781   0.63808   0.00000  Uiso   1.00
H1122  H     0.59797   0.78790   0.59458   0.00000  Uiso   1.00
C1123  C     0.75331   0.83334   0.74997   0.00000  Uiso   1.00
C1124  C     0.91335   0.83333   0.75003   0.00000  Uiso   1.00
C1125  C     0.83335   0.83335   0.66412   0.00000  Uiso   1.00
C1126  C     0.83338   0.83331   0.83588   0.00000  Uiso   1.00
C1127  C     0.86084   0.69061   0.77599   0.00000  Uiso   1.00
C1128  C     0.80582   0.97606   0.72402   0.00000  Uiso   1.00
C1129  C     0.80582   0.69068   0.72401   0.00000  Uiso   1.00
C1130  C     0.86085   0.97599   0.77598   0.00000  Uiso   1.00
C1131  C     0.68800   0.79468   0.73560   0.00000  Uiso   1.00
C1132  C     0.97865   0.87197   0.76443   0.00000  Uiso   1.00
C1133  C     0.97861   0.79468   0.73562   0.00000  Uiso   1.00
C1134  C     0.68804   0.87200   0.76435   0.00000  Uiso   1.00
C1135  C     0.79920   0.85077   0.54683   0.00000  Uiso   1.00
C1136  C     0.79920   0.81589   0.95299   0.00000  Uiso   1.00
C1137  C     0.86798   0.85055   0.95302   0.00000  Uiso   1.00
C1138  C     0.86794   0.81596   0.54716   0.00000  Uiso   1.00
C1139  C     0.79866   0.85088   0.59318   0.00000  Uiso   1.00
C1140  C     0.79866   0.81582   0.90664   0.00000  Uiso   1.00
C1141  C     0.86838   0.85067   0.90666   0.00000  Uiso   1.00
C1142  C     0.86833   0.81587   0.59352   0.00000  Uiso   1.00
C1143  C     0.83345   0.83338   0.61630   0.00000  Uiso   1.00
C1144  C     0.83348   0.83327   0.88370   0.00000  Uiso   1.00
C1145  C     0.83360   0.83334   0.52411   0.00000  Uiso   1.00
C1146  C     0.83361   0.83323   0.97588   0.00000  Uiso   1.00
C1147  C     0.95749   0.83332   0.75004   0.00000  Uiso   1.00
C1148  C     0.70917   0.83335   0.74996   0.00000  Uiso   1.00
H1149  H     0.88284   0.70875   0.79678   0.00000  Uiso   1.00
H1150  H     0.78380   0.95793   0.70326   0.00000  Uiso   1.00
H1151  H     0.78383   0.70887   0.70323   0.00000  Uiso   1.00
H1152  H     0.88287   0.95780   0.79674   0.00000  Uiso   1.00
H1153  H     0.77299   0.86445   0.52827   0.00000  Uiso   1.00
H1154  H     0.77296   0.80226   0.97141   0.00000  Uiso   1.00
H1155  H     0.89426   0.86419   0.97147   0.00000  Uiso   1.00
H1156  H     0.89420   0.80226   0.52885   0.00000  Uiso   1.00
H1157  H     0.70436   0.76482   0.72402   0.00000  Uiso   1.00
H1158  H     0.96228   0.90181   0.77607   0.00000  Uiso   1.00
H1159  H     0.96221   0.76483   0.72401   0.00000  Uiso   1.00
H1160  H     0.70444   0.90187   0.77590   0.00000  Uiso   1.00
N1161  N     0.83333   0.95240   0.75000   0.00000  Uiso   1.00
N1162  N     0.83333   0.71427   0.75000   0.00000  Uiso   1.00
O1163  O     0.77226   0.87154   0.74999   0.00000  Uiso   1.00
O1164  O     0.89441   0.79513   0.75000   0.00000  Uiso   1.00
O1165  O     0.89441   0.87154   0.75000   0.00000  Uiso   1.00
O1166  O     0.77226   0.79513   0.74999   0.00000  Uiso   1.00
O1167  O     0.83333   0.87155   0.68453   0.00000  Uiso   1.00
O1168  O     0.83334   0.79511   0.81547   0.00000  Uiso   1.00
O1169  O     0.83334   0.87155   0.81547   0.00000  Uiso   1.00
O1170  O     0.83333   0.79511   0.68453   0.00000  Uiso   1.00
Zn1171 Zn    0.83333   0.88437   0.75000   0.00000  Uiso   1.00
Zn1172 Zn    0.83333   0.78229   0.75000   0.00000  Uiso   1.00
C1173  C     0.76075   0.86873   0.61729   0.00000  Uiso   1.00
H1174  H     0.76925   0.89897   0.63731   0.00000  Uiso   1.00
H1175  H     0.73566   0.87877   0.59362   0.00000  Uiso   1.00
H1176  H     0.74805   0.84219   0.63980   0.00000  Uiso   1.00
C1177  C     0.76072   0.79808   0.88232   0.00000  Uiso   1.00
H1178  H     0.76920   0.76788   0.86225   0.00000  Uiso   1.00
H1179  H     0.73564   0.78800   0.90587   0.00000  Uiso   1.00
H1180  H     0.74803   0.82470   0.85984   0.00000  Uiso   1.00
C1181  C     0.90622   0.86848   0.88237   0.00000  Uiso   1.00
H1182  H     0.91882   0.84195   0.85984   0.00000  Uiso   1.00
H1183  H     0.89767   0.89874   0.86234   0.00000  Uiso   1.00
H1184  H     0.93140   0.87847   0.90592   0.00000  Uiso   1.00
C1185  C     0.90615   0.79801   0.61801   0.00000  Uiso   1.00
H1186  H     0.91881   0.82456   0.64052   0.00000  Uiso   1.00
H1187  H     0.89756   0.76781   0.63808   0.00000  Uiso   1.00
H1188  H     0.93130   0.78790   0.59458   0.00000  Uiso   1.00
loop_
_geom_bond_atom_site_label_1
_geom_bond_atom_site_label_2
_geom_bond_distance
_geom_bond_site_symmetry_2
_ccdc_geom_bond_type
C1     O44     1.282   .     A
C1     C26     1.416   .     S
C1     O41     1.282   .     A
C2     O43     1.282   .     A
C2     O42     1.282   .     A
C2     C25     1.416   .     S
C3     C21     1.430   .     S
C3     O48     1.283   .     A
C3     O45     1.283   .     A
C4     C22     1.430   .     S
C4     O46     1.283   .     A
C4     O47     1.283   .     A
C5     N40     1.366   .     A
C5     H27     1.082   .     S
C5     C404    1.416   1_545 S
C6     H28     1.082   .     S
C6     N39     1.366   .     A
C6     C205    1.416   .     S
C7     H29     1.082   .     S
C7     N40     1.366   .     A
C7     C402    1.416   1_545 S
C8     N39     1.366   .     A
C8     H30     1.082   .     S
C8     C203    1.416   .     S
C9     C26     1.396   .     A
C9     H35     1.084   .     S
C9     C143    1.370   1_455 S
C10    C25     1.396   .     A
C10    H36     1.084   .     S
C10    C78     1.370   .     S
C11    C25     1.396   .     A
C11    H37     1.084   .     S
C11    C75     1.370   .     S
C12    H38     1.084   .     S
C12    C26     1.396   .     A
C12    C142    1.370   1_455 S
C13    C17     1.386   .     A
C13    H31     1.084   .     S
C13    C23     1.396   .     A
C14    C18     1.386   .     A
C14    H32     1.084   .     S
C14    C24     1.396   .     A
C15    C19     1.387   .     A
C15    C24     1.396   .     A
C15    H33     1.084   .     S
C16    C23     1.396   .     A
C16    C20     1.387   .     A
C16    H34     1.084   .     S
C17    C51     1.510   .     S
C17    C21     1.410   .     A
C18    C22     1.410   .     A
C18    C55     1.510   .     S
C19    C22     1.410   .     A
C19    C59     1.511   .     S
C20    C63     1.511   .     S
C20    C21     1.410   .     A
C23    C618    1.443   1_554 S
C24    C617    1.443   .     S
N39    Zn49    2.009   .     S
N40    Zn50    2.009   .     S
O41    Zn49    1.996   .     S
O42    Zn50    1.996   .     S
O43    Zn49    1.995   .     S
O44    Zn50    1.995   .     S
O45    Zn49    1.995   .     S
O46    Zn50    1.995   .     S
O47    Zn49    1.994   .     S
O48    Zn50    1.994   .     S
C51    H53     1.111   .     S
C51    H54     1.111   .     S
C51    H52     1.110   .     S
C55    H58     1.111   .     S
C55    H57     1.111   .     S
C55    H56     1.110   .     S
C59    H60     1.111   .     S
C59    H61     1.110   .     S
C59    H62     1.111   .     S
C63    H65     1.110   .     S
C63    H66     1.111   .     S
C63    H64     1.111   .     S
C67    O110    1.282   .     A
C67    C92     1.416   .     S
C67    O107    1.282   .     A
C68    O109    1.282   .     A
C68    O108    1.282   .     A
C68    C91     1.416   .     S
C69    C87     1.430   .     S
C69    O114    1.283   .     A
C69    O111    1.283   .     A
C70    C88     1.430   .     S
C70    O112    1.283   .     A
C70    O113    1.283   .     A
C71    N106    1.366   .     A
C71    H93     1.082   .     S
C71    C470    1.416   1_545 S
C72    H94     1.082   .     S
C72    N105    1.366   .     A
C72    C271    1.416   .     S
C73    H95     1.082   .     S
C73    N106    1.366   .     A
C73    C468    1.416   1_545 S
C74    N105    1.366   .     A
C74    H96     1.082   .     S
C74    C269    1.416   .     S
C75    C92     1.396   .     A
C75    H101    1.084   .     S
C76    C91     1.396   .     A
C76    H102    1.084   .     S
C76    C144    1.370   .     S
C77    C91     1.396   .     A
C77    H103    1.084   .     S
C77    C141    1.370   .     S
C78    H104    1.084   .     S
C78    C92     1.396   .     A
C79    C83     1.386   .     A
C79    H97     1.084   .     S
C79    C89     1.396   .     A
C80    C84     1.386   .     A
C80    H98     1.084   .     S
C80    C90     1.396   .     A
C81    C85     1.387   .     A
C81    C90     1.396   .     A
C81    H99     1.084   .     S
C82    C89     1.396   .     A
C82    C86     1.387   .     A
C82    H100    1.084   .     S
C83    C117    1.510   .     S
C83    C87     1.410   .     A
C84    C88     1.410   .     A
C84    C121    1.510   .     S
C85    C88     1.410   .     A
C85    C125    1.511   .     S
C86    C129    1.511   .     S
C86    C87     1.410   .     A
C89    C684    1.443   1_554 S
C90    C683    1.443   .     S
N105   Zn115   2.009   .     S
N106   Zn116   2.009   .     S
O107   Zn115   1.996   .     S
O108   Zn116   1.996   .     S
O109   Zn115   1.995   .     S
O110   Zn116   1.995   .     S
O111   Zn115   1.995   .     S
O112   Zn116   1.995   .     S
O113   Zn115   1.994   .     S
O114   Zn116   1.994   .     S
C117   H119    1.111   .     S
C117   H120    1.111   .     S
C117   H118    1.110   .     S
C121   H124    1.111   .     S
C121   H123    1.111   .     S
C121   H122    1.110   .     S
C125   H126    1.111   .     S
C125   H127    1.110   .     S
C125   H128    1.111   .     S
C129   H131    1.110   .     S
C129   H132    1.111   .     S
C129   H130    1.111   .     S
C133   O176    1.282   .     A
C133   C158    1.416   .     S
C133   O173    1.282   .     A
C134   O175    1.282   .     A
C134   O174    1.282   .     A
C134   C157    1.416   .     S
C135   C153    1.430   .     S
C135   O180    1.283   .     A
C135   O177    1.283   .     A
C136   C154    1.430   .     S
C136   O178    1.283   .     A
C136   O179    1.283   .     A
C137   N172    1.366   .     A
C137   H159    1.082   .     S
C137   C536    1.416   1_545 S
C138   H160    1.082   .     S
C138   N171    1.366   .     A
C138   C337    1.416   .     S
C139   H161    1.082   .     S
C139   N172    1.366   .     A
C139   C534    1.416   1_545 S
C140   N171    1.366   .     A
C140   H162    1.082   .     S
C140   C335    1.416   .     S
C141   C158    1.396   .     A
C141   H167    1.084   .     S
C142   C157    1.396   .     A
C142   H168    1.084   .     S
C142   C12     1.370   1_655 S
C143   C157    1.396   .     A
C143   H169    1.084   .     S
C143   C9      1.370   1_655 S
C144   H170    1.084   .     S
C144   C158    1.396   .     A
C145   C149    1.386   .     A
C145   H163    1.084   .     S
C145   C155    1.396   .     A
C146   C150    1.386   .     A
C146   H164    1.084   .     S
C146   C156    1.396   .     A
C147   C151    1.387   .     A
C147   C156    1.396   .     A
C147   H165    1.084   .     S
C148   C155    1.396   .     A
C148   C152    1.387   .     A
C148   H166    1.084   .     S
C149   C183    1.510   .     S
C149   C153    1.410   .     A
C150   C154    1.410   .     A
C150   C187    1.510   .     S
C151   C154    1.410   .     A
C151   C191    1.511   .     S
C152   C195    1.511   .     S
C152   C153    1.410   .     A
C155   C750    1.443   1_554 S
C156   C749    1.443   .     S
N171   Zn181   2.009   .     S
N172   Zn182   2.009   .     S
O173   Zn181   1.996   .     S
O174   Zn182   1.996   .     S
O175   Zn181   1.995   .     S
O176   Zn182   1.995   .     S
O177   Zn181   1.995   .     S
O178   Zn182   1.995   .     S
O179   Zn181   1.994   .     S
O180   Zn182   1.994   .     S
C183   H185    1.111   .     S
C183   H186    1.111   .     S
C183   H184    1.110   .     S
C187   H190    1.111   .     S
C187   H189    1.111   .     S
C187   H188    1.110   .     S
C191   H192    1.111   .     S
C191   H193    1.110   .     S
C191   H194    1.111   .     S
C195   H197    1.110   .     S
C195   H198    1.111   .     S
C195   H196    1.111   .     S
C199   O242    1.282   .     A
C199   C224    1.416   .     S
C199   O239    1.282   .     A
C200   O241    1.282   .     A
C200   O240    1.282   .     A
C200   C223    1.416   .     S
C201   C219    1.430   .     S
C201   O246    1.283   .     A
C201   O243    1.283   .     A
C202   C220    1.430   .     S
C202   O244    1.283   .     A
C202   O245    1.283   .     A
C203   N238    1.366   .     A
C203   H225    1.082   .     S
C204   H226    1.082   .     S
C204   N237    1.366   .     A
C204   C403    1.416   .     S
C205   H227    1.082   .     S
C205   N238    1.366   .     A
C206   N237    1.366   .     A
C206   H228    1.082   .     S
C206   C401    1.416   .     S
C207   C224    1.396   .     A
C207   H233    1.084   .     S
C207   C341    1.370   1_455 S
C208   C223    1.396   .     A
C208   H234    1.084   .     S
C208   C276    1.370   .     S
C209   C223    1.396   .     A
C209   H235    1.084   .     S
C209   C273    1.370   .     S
C210   H236    1.084   .     S
C210   C224    1.396   .     A
C210   C340    1.370   1_455 S
C211   C215    1.386   .     A
C211   H229    1.084   .     S
C211   C221    1.396   .     A
C212   C216    1.386   .     A
C212   H230    1.084   .     S
C212   C222    1.396   .     A
C213   C217    1.387   .     A
C213   C222    1.396   .     A
C213   H231    1.084   .     S
C214   C221    1.396   .     A
C214   C218    1.387   .     A
C214   H232    1.084   .     S
C215   C249    1.510   .     S
C215   C219    1.410   .     A
C216   C220    1.410   .     A
C216   C253    1.510   .     S
C217   C220    1.410   .     A
C217   C257    1.511   .     S
C218   C261    1.511   .     S
C218   C219    1.410   .     A
C221   C816    1.443   1_554 S
C222   C815    1.443   .     S
N237   Zn247   2.009   .     S
N238   Zn248   2.009   .     S
O239   Zn247   1.996   .     S
O240   Zn248   1.996   .     S
O241   Zn247   1.995   .     S
O242   Zn248   1.995   .     S
O243   Zn247   1.995   .     S
O244   Zn248   1.995   .     S
O245   Zn247   1.994   .     S
O246   Zn248   1.994   .     S
C249   H251    1.111   .     S
C249   H252    1.111   .     S
C249   H250    1.110   .     S
C253   H256    1.111   .     S
C253   H255    1.111   .     S
C253   H254    1.110   .     S
C257   H258    1.111   .     S
C257   H259    1.110   .     S
C257   H260    1.111   .     S
C261   H263    1.110   .     S
C261   H264    1.111   .     S
C261   H262    1.111   .     S
C265   O308    1.282   .     A
C265   C290    1.416   .     S
C265   O305    1.282   .     A
C266   O307    1.282   .     A
C266   O306    1.282   .     A
C266   C289    1.416   .     S
C267   C285    1.430   .     S
C267   O312    1.283   .     A
C267   O309    1.283   .     A
C268   C286    1.430   .     S
C268   O310    1.283   .     A
C268   O311    1.283   .     A
C269   N304    1.366   .     A
C269   H291    1.082   .     S
C270   H292    1.082   .     S
C270   N303    1.366   .     A
C270   C469    1.416   .     S
C271   H293    1.082   .     S
C271   N304    1.366   .     A
C272   N303    1.366   .     A
C272   H294    1.082   .     S
C272   C467    1.416   .     S
C273   C290    1.396   .     A
C273   H299    1.084   .     S
C274   C289    1.396   .     A
C274   H300    1.084   .     S
C274   C342    1.370   .     S
C275   C289    1.396   .     A
C275   H301    1.084   .     S
C275   C339    1.370   .     S
C276   H302    1.084   .     S
C276   C290    1.396   .     A
C277   C281    1.386   .     A
C277   H295    1.084   .     S
C277   C287    1.396   .     A
C278   C282    1.386   .     A
C278   H296    1.084   .     S
C278   C288    1.396   .     A
C279   C283    1.387   .     A
C279   C288    1.396   .     A
C279   H297    1.084   .     S
C280   C287    1.396   .     A
C280   C284    1.387   .     A
C280   H298    1.084   .     S
C281   C315    1.510   .     S
C281   C285    1.410   .     A
C282   C286    1.410   .     A
C282   C319    1.510   .     S
C283   C286    1.410   .     A
C283   C323    1.511   .     S
C284   C327    1.511   .     S
C284   C285    1.410   .     A
C287   C882    1.443   1_554 S
C288   C881    1.443   .     S
N303   Zn313   2.009   .     S
N304   Zn314   2.009   .     S
O305   Zn313   1.996   .     S
O306   Zn314   1.996   .     S
O307   Zn313   1.995   .     S
O308   Zn314   1.995   .     S
O309   Zn313   1.995   .     S
O310   Zn314   1.995   .     S
O311   Zn313   1.994   .     S
O312   Zn314   1.994   .     S
C315   H317    1.111   .     S
C315   H318    1.111   .     S
C315   H316    1.110   .     S
C319   H322    1.111   .     S
C319   H321    1.111   .     S
C319   H320    1.110   .     S
C323   H324    1.111   .     S
C323   H325    1.110   .     S
C323   H326    1.111   .     S
C327   H329    1.110   .     S
C327   H330    1.111   .     S
C327   H328    1.111   .     S
C331   O374    1.282   .     A
C331   C356    1.416   .     S
C331   O371    1.282   .     A
C332   O373    1.282   .     A
C332   O372    1.282   .     A
C332   C355    1.416   .     S
C333   C351    1.430   .     S
C333   O378    1.283   .     A
C333   O375    1.283   .     A
C334   C352    1.430   .     S
C334   O376    1.283   .     A
C334   O377    1.283   .     A
C335   N370    1.366   .     A
C335   H357    1.082   .     S
C336   H358    1.082   .     S
C336   N369    1.366   .     A
C336   C535    1.416   .     S
C337   H359    1.082   .     S
C337   N370    1.366   .     A
C338   N369    1.366   .     A
C338   H360    1.082   .     S
C338   C533    1.416   .     S
C339   C356    1.396   .     A
C339   H365    1.084   .     S
C340   C355    1.396   .     A
C340   H366    1.084   .     S
C340   C210    1.370   1_655 S
C341   C355    1.396   .     A
C341   H367    1.084   .     S
C341   C207    1.370   1_655 S
C342   H368    1.084   .     S
C342   C356    1.396   .     A
C343   C347    1.386   .     A
C343   H361    1.084   .     S
C343   C353    1.396   .     A
C344   C348    1.386   .     A
C344   H362    1.084   .     S
C344   C354    1.396   .     A
C345   C349    1.387   .     A
C345   C354    1.396   .     A
C345   H363    1.084   .     S
C346   C353    1.396   .     A
C346   C350    1.387   .     A
C346   H364    1.084   .     S
C347   C381    1.510   .     S
C347   C351    1.410   .     A
C348   C352    1.410   .     A
C348   C385    1.510   .     S
C349   C352    1.410   .     A
C349   C389    1.511   .     S
C350   C393    1.511   .     S
C350   C351    1.410   .     A
C353   C948    1.443   1_554 S
C354   C947    1.443   .     S
N369   Zn379   2.009   .     S
N370   Zn380   2.009   .     S
O371   Zn379   1.996   .     S
O372   Zn380   1.996   .     S
O373   Zn379   1.995   .     S
O374   Zn380   1.995   .     S
O375   Zn379   1.995   .     S
O376   Zn380   1.995   .     S
O377   Zn379   1.994   .     S
O378   Zn380   1.994   .     S
C381   H383    1.111   .     S
C381   H384    1.111   .     S
C381   H382    1.110   .     S
C385   H388    1.111   .     S
C385   H387    1.111   .     S
C385   H386    1.110   .     S
C389   H390    1.111   .     S
C389   H391    1.110   .     S
C389   H392    1.111   .     S
C393   H395    1.110   .     S
C393   H396    1.111   .     S
C393   H394    1.111   .     S
C397   O440    1.282   .     A
C397   C422    1.416   .     S
C397   O437    1.282   .     A
C398   O439    1.282   .     A
C398   O438    1.282   .     A
C398   C421    1.416   .     S
C399   C417    1.430   .     S
C399   O444    1.283   .     A
C399   O441    1.283   .     A
C400   C418    1.430   .     S
C400   O442    1.283   .     A
C400   O443    1.283   .     A
C401   N436    1.366   .     A
C401   H423    1.082   .     S
C402   H424    1.082   .     S
C402   N435    1.366   .     A
C402   C7      1.416   1_565 S
C403   H425    1.082   .     S
C403   N436    1.366   .     A
C404   N435    1.366   .     A
C404   H426    1.082   .     S
C404   C5      1.416   1_565 S
C405   C422    1.396   .     A
C405   H431    1.084   .     S
C405   C539    1.370   1_455 S
C406   C421    1.396   .     A
C406   H432    1.084   .     S
C406   C474    1.370   .     S
C407   C421    1.396   .     A
C407   H433    1.084   .     S
C407   C471    1.370   .     S
C408   H434    1.084   .     S
C408   C422    1.396   .     A
C408   C538    1.370   1_455 S
C409   C413    1.386   .     A
C409   H427    1.084   .     S
C409   C419    1.396   .     A
C410   C414    1.386   .     A
C410   H428    1.084   .     S
C410   C420    1.396   .     A
C411   C415    1.387   .     A
C411   C420    1.396   .     A
C411   H429    1.084   .     S
C412   C419    1.396   .     A
C412   C416    1.387   .     A
C412   H430    1.084   .     S
C413   C447    1.510   .     S
C413   C417    1.410   .     A
C414   C418    1.410   .     A
C414   C451    1.510   .     S
C415   C418    1.410   .     A
C415   C455    1.511   .     S
C416   C459    1.511   .     S
C416   C417    1.410   .     A
C419   C1014   1.443   1_554 S
C420   C1013   1.443   .     S
N435   Zn445   2.009   .     S
N436   Zn446   2.009   .     S
O437   Zn445   1.996   .     S
O438   Zn446   1.996   .     S
O439   Zn445   1.995   .     S
O440   Zn446   1.995   .     S
O441   Zn445   1.995   .     S
O442   Zn446   1.995   .     S
O443   Zn445   1.994   .     S
O444   Zn446   1.994   .     S
C447   H449    1.111   .     S
C447   H450    1.111   .     S
C447   H448    1.110   .     S
C451   H454    1.111   .     S
C451   H453    1.111   .     S
C451   H452    1.110   .     S
C455   H456    1.111   .     S
C455   H457    1.110   .     S
C455   H458    1.111   .     S
C459   H461    1.110   .     S
C459   H462    1.111   .     S
C459   H460    1.111   .     S
C463   O506    1.282   .     A
C463   C488    1.416   .     S
C463   O503    1.282   .     A
C464   O505    1.282   .     A
C464   O504    1.282   .     A
C464   C487    1.416   .     S
C465   C483    1.430   .     S
C465   O510    1.283   .     A
C465   O507    1.283   .     A
C466   C484    1.430   .     S
C466   O508    1.283   .     A
C466   O509    1.283   .     A
C467   N502    1.366   .     A
C467   H489    1.082   .     S
C468   H490    1.082   .     S
C468   N501    1.366   .     A
C468   C73     1.416   1_565 S
C469   H491    1.082   .     S
C469   N502    1.366   .     A
C470   N501    1.366   .     A
C470   H492    1.082   .     S
C470   C71     1.416   1_565 S
C471   C488    1.396   .     A
C471   H497    1.084   .     S
C472   C487    1.396   .     A
C472   H498    1.084   .     S
C472   C540    1.370   .     S
C473   C487    1.396   .     A
C473   H499    1.084   .     S
C473   C537    1.370   .     S
C474   H500    1.084   .     S
C474   C488    1.396   .     A
C475   C479    1.386   .     A
C475   H493    1.084   .     S
C475   C485    1.396   .     A
C476   C480    1.386   .     A
C476   H494    1.084   .     S
C476   C486    1.396   .     A
C477   C481    1.387   .     A
C477   C486    1.396   .     A
C477   H495    1.084   .     S
C478   C485    1.396   .     A
C478   C482    1.387   .     A
C478   H496    1.084   .     S
C479   C513    1.510   .     S
C479   C483    1.410   .     A
C480   C484    1.410   .     A
C480   C517    1.510   .     S
C481   C484    1.410   .     A
C481   C521    1.511   .     S
C482   C525    1.511   .     S
C482   C483    1.410   .     A
C485   C1080   1.443   1_554 S
C486   C1079   1.443   .     S
N501   Zn511   2.009   .     S
N502   Zn512   2.009   .     S
O503   Zn511   1.996   .     S
O504   Zn512   1.996   .     S
O505   Zn511   1.995   .     S
O506   Zn512   1.995   .     S
O507   Zn511   1.995   .     S
O508   Zn512   1.995   .     S
O509   Zn511   1.994   .     S
O510   Zn512   1.994   .     S
C513   H515    1.111   .     S
C513   H516    1.111   .     S
C513   H514    1.110   .     S
C517   H520    1.111   .     S
C517   H519    1.111   .     S
C517   H518    1.110   .     S
C521   H522    1.111   .     S
C521   H523    1.110   .     S
C521   H524    1.111   .     S
C525   H527    1.110   .     S
C525   H528    1.111   .     S
C525   H526    1.111   .     S
C529   O572    1.282   .     A
C529   C554    1.416   .     S
C529   O569    1.282   .     A
C530   O571    1.282   .     A
C530   O570    1.282   .     A
C530   C553    1.416   .     S
C531   C549    1.430   .     S
C531   O576    1.283   .     A
C531   O573    1.283   .     A
C532   C550    1.430   .     S
C532   O574    1.283   .     A
C532   O575    1.283   .     A
C533   N568    1.366   .     A
C533   H555    1.082   .     S
C534   H556    1.082   .     S
C534   N567    1.366   .     A
C534   C139    1.416   1_565 S
C535   H557    1.082   .     S
C535   N568    1.366   .     A
C536   N567    1.366   .     A
C536   H558    1.082   .     S
C536   C137    1.416   1_565 S
C537   C554    1.396   .     A
C537   H563    1.084   .     S
C538   C553    1.396   .     A
C538   H564    1.084   .     S
C538   C408    1.370   1_655 S
C539   C553    1.396   .     A
C539   H565    1.084   .     S
C539   C405    1.370   1_655 S
C540   H566    1.084   .     S
C540   C554    1.396   .     A
C541   C545    1.386   .     A
C541   H559    1.084   .     S
C541   C551    1.396   .     A
C542   C546    1.386   .     A
C542   H560    1.084   .     S
C542   C552    1.396   .     A
C543   C547    1.387   .     A
C543   C552    1.396   .     A
C543   H561    1.084   .     S
C544   C551    1.396   .     A
C544   C548    1.387   .     A
C544   H562    1.084   .     S
C545   C579    1.510   .     S
C545   C549    1.410   .     A
C546   C550    1.410   .     A
C546   C583    1.510   .     S
C547   C550    1.410   .     A
C547   C587    1.511   .     S
C548   C591    1.511   .     S
C548   C549    1.410   .     A
C551   C1146   1.443   1_554 S
C552   C1145   1.443   .     S
N567   Zn577   2.009   .     S
N568   Zn578   2.009   .     S
O569   Zn577   1.996   .     S
O570   Zn578   1.996   .     S
O571   Zn577   1.995   .     S
O572   Zn578   1.995   .     S
O573   Zn577   1.995   .     S
O574   Zn578   1.995   .     S
O575   Zn577   1.994   .     S
O576   Zn578   1.994   .     S
C579   H581    1.111   .     S
C579   H582    1.111   .     S
C579   H580    1.110   .     S
C583   H586    1.111   .     S
C583   H585    1.111   .     S
C583   H584    1.110   .     S
C587   H588    1.111   .     S
C587   H589    1.110   .     S
C587   H590    1.111   .     S
C591   H593    1.110   .     S
C591   H594    1.111   .     S
C591   H592    1.111   .     S
C595   O638    1.282   .     A
C595   C620    1.416   .     S
C595   O635    1.282   .     A
C596   O637    1.282   .     A
C596   O636    1.282   .     A
C596   C619    1.416   .     S
C597   C615    1.430   .     S
C597   O642    1.283   .     A
C597   O639    1.283   .     A
C598   C616    1.430   .     S
C598   O640    1.283   .     A
C598   O641    1.283   .     A
C599   N634    1.366   .     A
C599   H621    1.082   .     S
C599   C998    1.416   1_545 S
C600   H622    1.082   .     S
C600   N633    1.366   .     A
C600   C799    1.416   .     S
C601   H623    1.082   .     S
C601   N634    1.366   .     A
C601   C996    1.416   1_545 S
C602   N633    1.366   .     A
C602   H624    1.082   .     S
C602   C797    1.416   .     S
C603   C620    1.396   .     A
C603   H629    1.084   .     S
C603   C737    1.370   1_455 S
C604   C619    1.396   .     A
C604   H630    1.084   .     S
C604   C672    1.370   .     S
C605   C619    1.396   .     A
C605   H631    1.084   .     S
C605   C669    1.370   .     S
C606   H632    1.084   .     S
C606   C620    1.396   .     A
C606   C736    1.370   1_455 S
C607   C611    1.386   .     A
C607   H625    1.084   .     S
C607   C617    1.396   .     A
C608   C612    1.386   .     A
C608   H626    1.084   .     S
C608   C618    1.396   .     A
C609   C613    1.387   .     A
C609   C618    1.396   .     A
C609   H627    1.084   .     S
C610   C617    1.396   .     A
C610   C614    1.387   .     A
C610   H628    1.084   .     S
C611   C645    1.510   .     S
C611   C615    1.410   .     A
C612   C616    1.410   .     A
C612   C649    1.510   .     S
C613   C616    1.410   .     A
C613   C653    1.511   .     S
C614   C657    1.511   .     S
C614   C615    1.410   .     A
C618   C23     1.443   1_556 S
N633   Zn643   2.009   .     S
N634   Zn644   2.009   .     S
O635   Zn643   1.996   .     S
O636   Zn644   1.996   .     S
O637   Zn643   1.995   .     S
O638   Zn644   1.995   .     S
O639   Zn643   1.995   .     S
O640   Zn644   1.995   .     S
O641   Zn643   1.994   .     S
O642   Zn644   1.994   .     S
C645   H647    1.111   .     S
C645   H648    1.111   .     S
C645   H646    1.110   .     S
C649   H652    1.111   .     S
C649   H651    1.111   .     S
C649   H650    1.110   .     S
C653   H654    1.111   .     S
C653   H655    1.110   .     S
C653   H656    1.111   .     S
C657   H659    1.110   .     S
C657   H660    1.111   .     S
C657   H658    1.111   .     S
C661   O704    1.282   .     A
C661   C686    1.416   .     S
C661   O701    1.282   .     A
C662   O703    1.282   .     A
C662   O702    1.282   .     A
C662   C685    1.416   .     S
C663   C681    1.430   .     S
C663   O708    1.283   .     A
C663   O705    1.283   .     A
C664   C682    1.430   .     S
C664   O706    1.283   .     A
C664   O707    1.283   .     A
C665   N700    1.366   .     A
C665   H687    1.082   .     S
C665   C1064   1.416   1_545 S
C666   H688    1.082   .     S
C666   N699    1.366   .     A
C666   C865    1.416   .     S
C667   H689    1.082   .     S
C667   N700    1.366   .     A
C667   C1062   1.416   1_545 S
C668   N699    1.366   .     A
C668   H690    1.082   .     S
C668   C863    1.416   .     S
C669   C686    1.396   .     A
C669   H695    1.084   .     S
C670   C685    1.396   .     A
C670   H696    1.084   .     S
C670   C738    1.370   .     S
C671   C685    1.396   .     A
C671   H697    1.084   .     S
C671   C735    1.370   .     S
C672   H698    1.084   .     S
C672   C686    1.396   .     A
C673   C677    1.386   .     A
C673   H691    1.084   .     S
C673   C683    1.396   .     A
C674   C678    1.386   .     A
C674   H692    1.084   .     S
C674   C684    1.396   .     A
C675   C679    1.387   .     A
C675   C684    1.396   .     A
C675   H693    1.084   .     S
C676   C683    1.396   .     A
C676   C680    1.387   .     A
C676   H694    1.084   .     S
C677   C711    1.510   .     S
C677   C681    1.410   .     A
C678   C682    1.410   .     A
C678   C715    1.510   .     S
C679   C682    1.410   .     A
C679   C719    1.511   .     S
C680   C723    1.511   .     S
C680   C681    1.410   .     A
C684   C89     1.443   1_556 S
N699   Zn709   2.009   .     S
N700   Zn710   2.009   .     S
O701   Zn709   1.996   .     S
O702   Zn710   1.996   .     S
O703   Zn709   1.995   .     S
O704   Zn710   1.995   .     S
O705   Zn709   1.995   .     S
O706   Zn710   1.995   .     S
O707   Zn709   1.994   .     S
O708   Zn710   1.994   .     S
C711   H713    1.111   .     S
C711   H714    1.111   .     S
C711   H712    1.110   .     S
C715   H718    1.111   .     S
C715   H717    1.111   .     S
C715   H716    1.110   .     S
C719   H720    1.111   .     S
C719   H721    1.110   .     S
C719   H722    1.111   .     S
C723   H725    1.110   .     S
C723   H726    1.111   .     S
C723   H724    1.111   .     S
C727   O770    1.282   .     A
C727   C752    1.416   .     S
C727   O767    1.282   .     A
C728   O769    1.282   .     A
C728   O768    1.282   .     A
C728   C751    1.416   .     S
C729   C747    1.430   .     S
C729   O774    1.283   .     A
C729   O771    1.283   .     A
C730   C748    1.430   .     S
C730   O772    1.283   .     A
C730   O773    1.283   .     A
C731   N766    1.366   .     A
C731   H753    1.082   .     S
C731   C1130   1.416   1_545 S
C732   H754    1.082   .     S
C732   N765    1.366   .     A
C732   C931    1.416   .     S
C733   H755    1.082   .     S
C733   N766    1.366   .     A
C733   C1128   1.416   1_545 S
C734   N765    1.366   .     A
C734   H756    1.082   .     S
C734   C929    1.416   .     S
C735   C752    1.396   .     A
C735   H761    1.084   .     S
C736   C751    1.396   .     A
C736   H762    1.084   .     S
C736   C606    1.370   1_655 S
C737   C751    1.396   .     A
C737   H763    1.084   .     S
C737   C603    1.370   1_655 S
C738   H764    1.084   .     S
C738   C752    1.396   .     A
C739   C743    1.386   .     A
C739   H757    1.084   .     S
C739   C749    1.396   .     A
C740   C744    1.386   .     A
C740   H758    1.084   .     S
C740   C750    1.396   .     A
C741   C745    1.387   .     A
C741   C750    1.396   .     A
C741   H759    1.084   .     S
C742   C749    1.396   .     A
C742   C746    1.387   .     A
C742   H760    1.084   .     S
C743   C777    1.510   .     S
C743   C747    1.410   .     A
C744   C748    1.410   .     A
C744   C781    1.510   .     S
C745   C748    1.410   .     A
C745   C785    1.511   .     S
C746   C789    1.511   .     S
C746   C747    1.410   .     A
C750   C155    1.443   1_556 S
N765   Zn775   2.009   .     S
N766   Zn776   2.009   .     S
O767   Zn775   1.996   .     S
O768   Zn776   1.996   .     S
O769   Zn775   1.995   .     S
O770   Zn776   1.995   .     S
O771   Zn775   1.995   .     S
O772   Zn776   1.995   .     S
O773   Zn775   1.994   .     S
O774   Zn776   1.994   .     S
C777   H779    1.111   .     S
C777   H780    1.111   .     S
C777   H778    1.110   .     S
C781   H784    1.111   .     S
C781   H783    1.111   .     S
C781   H782    1.110   .     S
C785   H786    1.111   .     S
C785   H787    1.110   .     S
C785   H788    1.111   .     S
C789   H791    1.110   .     S
C789   H792    1.111   .     S
C789   H790    1.111   .     S
C793   O836    1.282   .     A
C793   C818    1.416   .     S
C793   O833    1.282   .     A
C794   O835    1.282   .     A
C794   O834    1.282   .     A
C794   C817    1.416   .     S
C795   C813    1.430   .     S
C795   O840    1.283   .     A
C795   O837    1.283   .     A
C796   C814    1.430   .     S
C796   O838    1.283   .     A
C796   O839    1.283   .     A
C797   N832    1.366   .     A
C797   H819    1.082   .     S
C798   H820    1.082   .     S
C798   N831    1.366   .     A
C798   C997    1.416   .     S
C799   H821    1.082   .     S
C799   N832    1.366   .     A
C800   N831    1.366   .     A
C800   H822    1.082   .     S
C800   C995    1.416   .     S
C801   C818    1.396   .     A
C801   H827    1.084   .     S
C801   C935    1.370   1_455 S
C802   C817    1.396   .     A
C802   H828    1.084   .     S
C802   C870    1.370   .     S
C803   C817    1.396   .     A
C803   H829    1.084   .     S
C803   C867    1.370   .     S
C804   H830    1.084   .     S
C804   C818    1.396   .     A
C804   C934    1.370   1_455 S
C805   C809    1.386   .     A
C805   H823    1.084   .     S
C805   C815    1.396   .     A
C806   C810    1.386   .     A
C806   H824    1.084   .     S
C806   C816    1.396   .     A
C807   C811    1.387   .     A
C807   C816    1.396   .     A
C807   H825    1.084   .     S
C808   C815    1.396   .     A
C808   C812    1.387   .     A
C808   H826    1.084   .     S
C809   C843    1.510   .     S
C809   C813    1.410   .     A
C810   C814    1.410   .     A
C810   C847    1.510   .     S
C811   C814    1.410   .     A
C811   C851    1.511   .     S
C812   C855    1.511   .     S
C812   C813    1.410   .     A
C816   C221    1.443   1_556 S
N831   Zn841   2.009   .     S
N832   Zn842   2.009   .     S
O833   Zn841   1.996   .     S
O834   Zn842   1.996   .     S
O835   Zn841   1.995   .     S
O836   Zn842   1.995   .     S
O837   Zn841   1.995   .     S
O838   Zn842   1.995   .     S
O839   Zn841   1.994   .     S
O840   Zn842   1.994   .     S
C843   H845    1.111   .     S
C843   H846    1.111   .     S
C843   H844    1.110   .     S
C847   H850    1.111   .     S
C847   H849    1.111   .     S
C847   H848    1.110   .     S
C851   H852    1.111   .     S
C851   H853    1.110   .     S
C851   H854    1.111   .     S
C855   H857    1.110   .     S
C855   H858    1.111   .     S
C855   H856    1.111   .     S
C859   O902    1.282   .     A
C859   C884    1.416   .     S
C859   O899    1.282   .     A
C860   O901    1.282   .     A
C860   O900    1.282   .     A
C860   C883    1.416   .     S
C861   C879    1.430   .     S
C861   O906    1.283   .     A
C861   O903    1.283   .     A
C862   C880    1.430   .     S
C862   O904    1.283   .     A
C862   O905    1.283   .     A
C863   N898    1.366   .     A
C863   H885    1.082   .     S
C864   H886    1.082   .     S
C864   N897    1.366   .     A
C864   C1063   1.416   .     S
C865   H887    1.082   .     S
C865   N898    1.366   .     A
C866   N897    1.366   .     A
C866   H888    1.082   .     S
C866   C1061   1.416   .     S
C867   C884    1.396   .     A
C867   H893    1.084   .     S
C868   C883    1.396   .     A
C868   H894    1.084   .     S
C868   C936    1.370   .     S
C869   C883    1.396   .     A
C869   H895    1.084   .     S
C869   C933    1.370   .     S
C870   H896    1.084   .     S
C870   C884    1.396   .     A
C871   C875    1.386   .     A
C871   H889    1.084   .     S
C871   C881    1.396   .     A
C872   C876    1.386   .     A
C872   H890    1.084   .     S
C872   C882    1.396   .     A
C873   C877    1.387   .     A
C873   C882    1.396   .     A
C873   H891    1.084   .     S
C874   C881    1.396   .     A
C874   C878    1.387   .     A
C874   H892    1.084   .     S
C875   C909    1.510   .     S
C875   C879    1.410   .     A
C876   C880    1.410   .     A
C876   C913    1.510   .     S
C877   C880    1.410   .     A
C877   C917    1.511   .     S
C878   C921    1.511   .     S
C878   C879    1.410   .     A
C882   C287    1.443   1_556 S
N897   Zn907   2.009   .     S
N898   Zn908   2.009   .     S
O899   Zn907   1.996   .     S
O900   Zn908   1.996   .     S
O901   Zn907   1.995   .     S
O902   Zn908   1.995   .     S
O903   Zn907   1.995   .     S
O904   Zn908   1.995   .     S
O905   Zn907   1.994   .     S
O906   Zn908   1.994   .     S
C909   H911    1.111   .     S
C909   H912    1.111   .     S
C909   H910    1.110   .     S
C913   H916    1.111   .     S
C913   H915    1.111   .     S
C913   H914    1.110   .     S
C917   H918    1.111   .     S
C917   H919    1.110   .     S
C917   H920    1.111   .     S
C921   H923    1.110   .     S
C921   H924    1.111   .     S
C921   H922    1.111   .     S
C925   O968    1.282   .     A
C925   C950    1.416   .     S
C925   O965    1.282   .     A
C926   O967    1.282   .     A
C926   O966    1.282   .     A
C926   C949    1.416   .     S
C927   C945    1.430   .     S
C927   O972    1.283   .     A
C927   O969    1.283   .     A
C928   C946    1.430   .     S
C928   O970    1.283   .     A
C928   O971    1.283   .     A
C929   N964    1.366   .     A
C929   H951    1.082   .     S
C930   H952    1.082   .     S
C930   N963    1.366   .     A
C930   C1129   1.416   .     S
C931   H953    1.082   .     S
C931   N964    1.366   .     A
C932   N963    1.366   .     A
C932   H954    1.082   .     S
C932   C1127   1.416   .     S
C933   C950    1.396   .     A
C933   H959    1.084   .     S
C934   C949    1.396   .     A
C934   H960    1.084   .     S
C934   C804    1.370   1_655 S
C935   C949    1.396   .     A
C935   H961    1.084   .     S
C935   C801    1.370   1_655 S
C936   H962    1.084   .     S
C936   C950    1.396   .     A
C937   C941    1.386   .     A
C937   H955    1.084   .     S
C937   C947    1.396   .     A
C938   C942    1.386   .     A
C938   H956    1.084   .     S
C938   C948    1.396   .     A
C939   C943    1.387   .     A
C939   C948    1.396   .     A
C939   H957    1.084   .     S
C940   C947    1.396   .     A
C940   C944    1.387   .     A
C940   H958    1.084   .     S
C941   C975    1.510   .     S
C941   C945    1.410   .     A
C942   C946    1.410   .     A
C942   C979    1.510   .     S
C943   C946    1.410   .     A
C943   C983    1.511   .     S
C944   C987    1.511   .     S
C944   C945    1.410   .     A
C948   C353    1.443   1_556 S
N963   Zn973   2.009   .     S
N964   Zn974   2.009   .     S
O965   Zn973   1.996   .     S
O966   Zn974   1.996   .     S
O967   Zn973   1.995   .     S
O968   Zn974   1.995   .     S
O969   Zn973   1.995   .     S
O970   Zn974   1.995   .     S
O971   Zn973   1.994   .     S
O972   Zn974   1.994   .     S
C975   H977    1.111   .     S
C975   H978    1.111   .     S
C975   H976    1.110   .     S
C979   H982    1.111   .     S
C979   H981    1.111   .     S
C979   H980    1.110   .     S
C983   H984    1.111   .     S
C983   H985    1.110   .     S
C983   H986    1.111   .     S
C987   H989    1.110   .     S
C987   H990    1.111   .     S
C987   H988    1.111   .     S
C991   O1034   1.282   .     A
C991   C1016   1.416   .     S
C991   O1031   1.282   .     A
C992   O1033   1.282   .     A
C992   O1032   1.282   .     A
C992   C1015   1.416   .     S
C993   C1011   1.430   .     S
C993   O1038   1.283   .     A
C993   O1035   1.283   .     A
C994   C1012   1.430   .     S
C994   O1036   1.283   .     A
C994   O1037   1.283   .     A
C995   N1030   1.366   .     A
C995   H1017   1.082   .     S
C996   H1018   1.082   .     S
C996   N1029   1.366   .     A
C996   C601    1.416   1_565 S
C997   H1019   1.082   .     S
C997   N1030   1.366   .     A
C998   N1029   1.366   .     A
C998   H1020   1.082   .     S
C998   C599    1.416   1_565 S
C999   C1016   1.396   .     A
C999   H1025   1.084   .     S
C999   C1133   1.370   1_455 S
C1000  C1015   1.396   .     A
C1000  H1026   1.084   .     S
C1000  C1068   1.370   .     S
C1001  C1015   1.396   .     A
C1001  H1027   1.084   .     S
C1001  C1065   1.370   .     S
C1002  H1028   1.084   .     S
C1002  C1016   1.396   .     A
C1002  C1132   1.370   1_455 S
C1003  C1007   1.386   .     A
C1003  H1021   1.084   .     S
C1003  C1013   1.396   .     A
C1004  C1008   1.386   .     A
C1004  H1022   1.084   .     S
C1004  C1014   1.396   .     A
C1005  C1009   1.387   .     A
C1005  C1014   1.396   .     A
C1005  H1023   1.084   .     S
C1006  C1013   1.396   .     A
C1006  C1010   1.387   .     A
C1006  H1024   1.084   .     S
C1007  C1041   1.510   .     S
C1007  C1011   1.410   .     A
C1008  C1012   1.410   .     A
C1008  C1045   1.510   .     S
C1009  C1012   1.410   .     A
C1009  C1049   1.511   .     S
C1010  C1053   1.511   .     S
C1010  C1011   1.410   .     A
C1014  C419    1.443   1_556 S
N1029  Zn1039  2.009   .     S
N1030  Zn1040  2.009   .     S
O1031  Zn1039  1.996   .     S
O1032  Zn1040  1.996   .     S
O1033  Zn1039  1.995   .     S
O1034  Zn1040  1.995   .     S
O1035  Zn1039  1.995   .     S
O1036  Zn1040  1.995   .     S
O1037  Zn1039  1.994   .     S
O1038  Zn1040  1.994   .     S
C1041  H1043   1.111   .     S
C1041  H1044   1.111   .     S
C1041  H1042   1.110   .     S
C1045  H1048   1.111   .     S
C1045  H1047   1.111   .     S
C1045  H1046   1.110   .     S
C1049  H1050   1.111   .     S
C1049  H1051   1.110   .     S
C1049  H1052   1.111   .     S
C1053  H1055   1.110   .     S
C1053  H1056   1.111   .     S
C1053  H1054   1.111   .     S
C1057  O1100   1.282   .     A
C1057  C1082   1.416   .     S
C1057  O1097   1.282   .     A
C1058  O1099   1.282   .     A
C1058  O1098   1.282   .     A
C1058  C1081   1.416   .     S
C1059  C1077   1.430   .     S
C1059  O1104   1.283   .     A
C1059  O1101   1.283   .     A
C1060  C1078   1.430   .     S
C1060  O1102   1.283   .     A
C1060  O1103   1.283   .     A
C1061  N1096   1.366   .     A
C1061  H1083   1.082   .     S
C1062  H1084   1.082   .     S
C1062  N1095   1.366   .     A
C1062  C667    1.416   1_565 S
C1063  H1085   1.082   .     S
C1063  N1096   1.366   .     A
C1064  N1095   1.366   .     A
C1064  H1086   1.082   .     S
C1064  C665    1.416   1_565 S
C1065  C1082   1.396   .     A
C1065  H1091   1.084   .     S
C1066  C1081   1.396   .     A
C1066  H1092   1.084   .     S
C1066  C1134   1.370   .     S
C1067  C1081   1.396   .     A
C1067  H1093   1.084   .     S
C1067  C1131   1.370   .     S
C1068  H1094   1.084   .     S
C1068  C1082   1.396   .     A
C1069  C1073   1.386   .     A
C1069  H1087   1.084   .     S
C1069  C1079   1.396   .     A
C1070  C1074   1.386   .     A
C1070  H1088   1.084   .     S
C1070  C1080   1.396   .     A
C1071  C1075   1.387   .     A
C1071  C1080   1.396   .     A
C1071  H1089   1.084   .     S
C1072  C1079   1.396   .     A
C1072  C1076   1.387   .     A
C1072  H1090   1.084   .     S
C1073  C1107   1.510   .     S
C1073  C1077   1.410   .     A
C1074  C1078   1.410   .     A
C1074  C1111   1.510   .     S
C1075  C1078   1.410   .     A
C1075  C1115   1.511   .     S
C1076  C1119   1.511   .     S
C1076  C1077   1.410   .     A
C1080  C485    1.443   1_556 S
N1095  Zn1105  2.009   .     S
N1096  Zn1106  2.009   .     S
O1097  Zn1105  1.996   .     S
O1098  Zn1106  1.996   .     S
O1099  Zn1105  1.995   .     S
O1100  Zn1106  1.995   .     S
O1101  Zn1105  1.995   .     S
O1102  Zn1106  1.995   .     S
O1103  Zn1105  1.994   .     S
O1104  Zn1106  1.994   .     S
C1107  H1109   1.111   .     S
C1107  H1110   1.111   .     S
C1107  H1108   1.110   .     S
C1111  H1114   1.111   .     S
C1111  H1113   1.111   .     S
C1111  H1112   1.110   .     S
C1115  H1116   1.111   .     S
C1115  H1117   1.110   .     S
C1115  H1118   1.111   .     S
C1119  H1121   1.110   .     S
C1119  H1122   1.111   .     S
C1119  H1120   1.111   .     S
C1123  O1166   1.282   .     A
C1123  C1148   1.416   .     S
C1123  O1163   1.282   .     A
C1124  O1165   1.282   .     A
C1124  O1164   1.282   .     A
C1124  C1147   1.416   .     S
C1125  C1143   1.430   .     S
C1125  O1170   1.283   .     A
C1125  O1167   1.283   .     A
C1126  C1144   1.430   .     S
C1126  O1168   1.283   .     A
C1126  O1169   1.283   .     A
C1127  N1162   1.366   .     A
C1127  H1149   1.082   .     S
C1128  H1150   1.082   .     S
C1128  N1161   1.366   .     A
C1128  C733    1.416   1_565 S
C1129  H1151   1.082   .     S
C1129  N1162   1.366   .     A
C1130  N1161   1.366   .     A
C1130  H1152   1.082   .     S
C1130  C731    1.416   1_565 S
C1131  C1148   1.396   .     A
C1131  H1157   1.084   .     S
C1132  C1147   1.396   .     A
C1132  H1158   1.084   .     S
C1132  C1002   1.370   1_655 S
C1133  C1147   1.396   .     A
C1133  H1159   1.084   .     S
C1133  C999    1.370   1_655 S
C1134  H1160   1.084   .     S
C1134  C1148   1.396   .     A
C1135  C1139   1.386   .     A
C1135  H1153   1.084   .     S
C1135  C1145   1.396   .     A
C1136  C1140   1.386   .     A
C1136  H1154   1.084   .     S
C1136  C1146   1.396   .     A
C1137  C1141   1.387   .     A
C1137  C1146   1.396   .     A
C1137  H1155   1.084   .     S
C1138  C1145   1.396   .     A
C1138  C1142   1.387   .     A
C1138  H1156   1.084   .     S
C1139  C1173   1.510   .     S
C1139  C1143   1.410   .     A
C1140  C1144   1.410   .     A
C1140  C1177   1.510   .     S
C1141  C1144   1.410   .     A
C1141  C1181   1.511   .     S
C1142  C1185   1.511   .     S
C1142  C1143   1.410   .     A
C1146  C551    1.443   1_556 S
N1161  Zn1171  2.009   .     S
N1162  Zn1172  2.009   .     S
O1163  Zn1171  1.996   .     S
O1164  Zn1172  1.996   .     S
O1165  Zn1171  1.995   .     S
O1166  Zn1172  1.995   .     S
O1167  Zn1171  1.995   .     S
O1168  Zn1172  1.995   .     S
O1169  Zn1171  1.994   .     S
O1170  Zn1172  1.994   .     S
C1173  H1175   1.111   .     S
C1173  H1176   1.111   .     S
C1173  H1174   1.110   .     S
C1177  H1180   1.111   .     S
C1177  H1179   1.111   .     S
C1177  H1178   1.110   .     S
C1181  H1182   1.111   .     S
C1181  H1183   1.110   .     S
C1181  H1184   1.111   .     S
C1185  H1187   1.110   .     S
C1185  H1188   1.111   .     S
C1185  H1186   1.111   .     S
