data_str_m1_o5_o17_pcu_sym.20
_audit_creation_date              2020-01-03
_audit_creation_method            'Materials Studio'
_symmetry_space_group_name_H-M    'P1'
_symmetry_Int_Tables_number       1
_symmetry_cell_setting            triclinic
loop_
_symmetry_equiv_pos_as_xyz
  x,y,z
_cell_length_a                    31.7662
_cell_length_b                    31.7657
_cell_length_c                    34.5639
_cell_angle_alpha                 89.9999
_cell_angle_beta                  90.0000
_cell_angle_gamma                 89.9981
loop_
_atom_site_label
_atom_site_type_symbol
_atom_site_fract_x
_atom_site_fract_y
_atom_site_fract_z
_atom_site_U_iso_or_equiv
_atom_site_adp_type
_atom_site_occupancy
C1     C     0.25000  -0.00000   0.35599   0.00000  Uiso   1.00
C2     C     0.33001   0.41998   0.75001   0.00000  Uiso   1.00
C3     C     0.43019   0.28323   0.01950   0.00000  Uiso   1.00
C4     C     0.21674   0.06981   0.98050   0.00000  Uiso   1.00
C5     C     0.28226   0.42995   0.02120   0.00000  Uiso   1.00
C6     C     0.42993   0.28222   0.97880   0.00000  Uiso   1.00
C7     C     0.06981   0.21676   0.01950   0.00000  Uiso   1.00
C8     C     0.00579   0.32807   0.39596   0.00000  Uiso   1.00
C9     C     0.44616   0.19292   0.60314   0.00000  Uiso   1.00
C10    C     0.19283   0.44626   0.39687   0.00000  Uiso   1.00
C11    C     0.32809   0.00554   0.60402   0.00000  Uiso   1.00
C12    C     0.49421   0.17193   0.39597   0.00000  Uiso   1.00
C13    C     0.41999   0.16998   0.25001   0.00000  Uiso   1.00
C14    C     0.05384   0.30708   0.60313   0.00000  Uiso   1.00
C15    C     0.30717   0.05374   0.39686   0.00000  Uiso   1.00
C16    C     0.17191   0.49447   0.60403   0.00000  Uiso   1.00
C17    C     0.19664   0.05754   0.89686   0.00000  Uiso   1.00
C18    C     0.25487   0.42187   0.10402   0.00000  Uiso   1.00
C19    C     0.42187   0.25482   0.89598   0.00000  Uiso   1.00
C20    C     0.05754   0.19665   0.10314   0.00000  Uiso   1.00
C21    C     0.30336   0.44246   0.89686   0.00000  Uiso   1.00
C22    C     0.24512   0.07813   0.10402   0.00000  Uiso   1.00
C23    C     0.07813   0.24518   0.89598   0.00000  Uiso   1.00
C24    C     0.08001   0.33002   0.74999   0.00000  Uiso   1.00
C25    C     0.44246   0.30335   0.10314   0.00000  Uiso   1.00
C26    C     0.40283   0.15812   0.44708   0.00000  Uiso   1.00
C27    C     0.01394   0.38554   0.54868   0.00000  Uiso   1.00
C28    C     0.38557   0.01371   0.45131   0.00000  Uiso   1.00
C29    C     0.15782   0.40314   0.55300   0.00000  Uiso   1.00
C30    C     0.09716   0.34191   0.44710   0.00000  Uiso   1.00
C31    C     0.48601   0.11446   0.54867   0.00000  Uiso   1.00
C32    C     0.11444   0.48636   0.45129   0.00000  Uiso   1.00
C33    C     0.34210   0.09691   0.55301   0.00000  Uiso   1.00
C34    C     0.26241   0.36438   0.95119   0.00000  Uiso   1.00
C35    C     0.33001   0.41998   0.24999   0.00000  Uiso   1.00
C36    C     0.15397   0.09315   0.05295   0.00000  Uiso   1.00
C37    C     0.09320   0.15405   0.94703   0.00000  Uiso   1.00
C38    C     0.36439   0.26237   0.04884   0.00000  Uiso   1.00
C39    C     0.23757   0.13563   0.95120   0.00000  Uiso   1.00
C40    C     0.34601   0.40684   0.05295   0.00000  Uiso   1.00
C41    C     0.40680   0.34595   0.94703   0.00000  Uiso   1.00
C42    C     0.13562   0.23761   0.04884   0.00000  Uiso   1.00
C43    C     0.16999   0.08002   0.75001   0.00000  Uiso   1.00
C44    C     0.08001   0.33002   0.25001   0.00000  Uiso   1.00
C45    C     0.41999   0.16998   0.74999   0.00000  Uiso   1.00
C46    C     0.16998   0.41999   0.74999   0.00000  Uiso   1.00
C47    C     0.33002   0.08001   0.25001   0.00000  Uiso   1.00
C48    C     0.41998   0.33001   0.75001   0.00000  Uiso   1.00
C49    C     0.25000  -0.00000   0.64429   0.00000  Uiso   1.00
C50    C     0.08002   0.16999   0.24999   0.00000  Uiso   1.00
C51    C     0.33002   0.08001   0.74999   0.00000  Uiso   1.00
C52    C     0.16998   0.41999   0.25001   0.00000  Uiso   1.00
C53    C     0.08002   0.16999   0.75001   0.00000  Uiso   1.00
C54    C     0.41998   0.33001   0.24999   0.00000  Uiso   1.00
C55    C     0.13833   0.38834   0.25002   0.00000  Uiso   1.00
C56    C     0.36168   0.11166   0.74998   0.00000  Uiso   1.00
C57    C     0.11167   0.13834   0.24998   0.00000  Uiso   1.00
C58    C     0.38832   0.36166   0.75002   0.00000  Uiso   1.00
C59    C     0.36167   0.11166   0.25002   0.00000  Uiso   1.00
C60    C     0.00000   0.25000   0.35570   0.00000  Uiso   1.00
C61    C     0.13832   0.38834   0.74998   0.00000  Uiso   1.00
C62    C     0.38833   0.36166   0.24998   0.00000  Uiso   1.00
C63    C     0.11168   0.13834   0.75002   0.00000  Uiso   1.00
C64    C     0.13834   0.11167   0.75002   0.00000  Uiso   1.00
C65    C     0.36166   0.38832   0.24998   0.00000  Uiso   1.00
C66    C     0.11166   0.36167   0.74998   0.00000  Uiso   1.00
C67    C     0.38834   0.13832   0.25002   0.00000  Uiso   1.00
C68    C     0.36166   0.38833   0.75002   0.00000  Uiso   1.00
C69    C     0.13834   0.11168   0.24998   0.00000  Uiso   1.00
C70    C     0.38834   0.13833   0.74998   0.00000  Uiso   1.00
C71    C     0.00000   0.25000   0.64401   0.00000  Uiso   1.00
C72    C     0.11166   0.36168   0.25002   0.00000  Uiso   1.00
C73    C     0.00762   0.28766   0.41784   0.00000  Uiso   1.00
C74    C     0.47618   0.21971   0.58112   0.00000  Uiso   1.00
C75    C     0.21967   0.47625   0.41888   0.00000  Uiso   1.00
C76    C     0.28768   0.00751   0.58216   0.00000  Uiso   1.00
C77    C     0.49238   0.21234   0.41784   0.00000  Uiso   1.00
C78    C     0.02381   0.28029   0.58111   0.00000  Uiso   1.00
C79    C     0.28033   0.02376   0.41888   0.00000  Uiso   1.00
C80    C     0.21232   0.49250   0.58216   0.00000  Uiso   1.00
C81    C     0.22647   0.03051   0.91887   0.00000  Uiso   1.00
C82    C     0.00000   0.25000   0.85571   0.00000  Uiso   1.00
C83    C     0.25717   0.46225   0.08215   0.00000  Uiso   1.00
C84    C     0.46225   0.25715   0.91785   0.00000  Uiso   1.00
C85    C     0.03051   0.22648   0.08113   0.00000  Uiso   1.00
C86    C     0.27353   0.46949   0.91887   0.00000  Uiso   1.00
C87    C     0.24282   0.03775   0.08215   0.00000  Uiso   1.00
C88    C     0.03775   0.24285   0.91785   0.00000  Uiso   1.00
C89    C     0.46949   0.27352   0.08113   0.00000  Uiso   1.00
C90    C     0.00000   0.25000   0.39784   0.00000  Uiso   1.00
C91    C    -0.00000   0.25000   0.60137   0.00000  Uiso   1.00
C92    C     0.25000   0.00000   0.39863   0.00000  Uiso   1.00
C93    C     0.00000   0.25000   0.14402   0.00000  Uiso   1.00
C94    C     0.25000   0.00000   0.60215   0.00000  Uiso   1.00
C95    C     0.25000   0.00000   0.89862   0.00000  Uiso   1.00
C96    C     0.25000   0.00000   0.10214   0.00000  Uiso   1.00
C97    C     0.00000   0.25000   0.89786   0.00000  Uiso   1.00
C98    C     0.00000   0.25000   0.10138   0.00000  Uiso   1.00
C99    C     0.48624   0.21383   0.45844   0.00000  Uiso   1.00
C100   C     0.01935   0.28369   0.54034   0.00000  Uiso   1.00
C101   C     0.28373   0.01929   0.45966   0.00000  Uiso   1.00
C102   C     0.21379   0.48636   0.54155   0.00000  Uiso   1.00
C103   C     0.01375   0.28617   0.45844   0.00000  Uiso   1.00
C104   C     0.25000   0.00000   0.85598   0.00000  Uiso   1.00
C105   C     0.48064   0.21631   0.54034   0.00000  Uiso   1.00
C106   C     0.21626   0.48072   0.45966   0.00000  Uiso   1.00
C107   C     0.28620   0.01366   0.54155   0.00000  Uiso   1.00
C108   C     0.26900   0.46611   0.95964   0.00000  Uiso   1.00
C109   C     0.23667   0.03633   0.04154   0.00000  Uiso   1.00
C110   C     0.03634   0.23669   0.95846   0.00000  Uiso   1.00
C111   C     0.46611   0.26899   0.04036   0.00000  Uiso   1.00
C112   C     0.23100   0.03389   0.95964   0.00000  Uiso   1.00
C113   C     0.26333   0.46367   0.04154   0.00000  Uiso   1.00
C114   C     0.46366   0.26330   0.95846   0.00000  Uiso   1.00
C115   C     0.25000   0.00000   0.14429   0.00000  Uiso   1.00
C116   C     0.03390   0.23100   0.04036   0.00000  Uiso   1.00
C117   C     0.49999   0.25000   0.47899   0.00000  Uiso   1.00
C118   C     0.49999   0.25000   0.51990   0.00000  Uiso   1.00
C119   C     0.25000   0.00001   0.48009   0.00000  Uiso   1.00
C120   C     0.25000   0.00001   0.52101   0.00000  Uiso   1.00
C121   C     0.25000   0.00000   0.98008   0.00000  Uiso   1.00
C122   C     0.25000   0.00000   0.02100   0.00000  Uiso   1.00
C123   C     0.00000   0.25000   0.97900   0.00000  Uiso   1.00
C124   C     0.00000   0.25000   0.01992   0.00000  Uiso   1.00
C125   C     0.46691   0.18034   0.47877   0.00000  Uiso   1.00
C126   C     0.16999   0.08002   0.24999   0.00000  Uiso   1.00
C127   C     0.03402   0.31943   0.51948   0.00000  Uiso   1.00
C128   C     0.31950   0.03389   0.48052   0.00000  Uiso   1.00
C129   C     0.18025   0.46711   0.52122   0.00000  Uiso   1.00
C130   C     0.03307   0.31967   0.47878   0.00000  Uiso   1.00
C131   C     0.46596   0.18058   0.51947   0.00000  Uiso   1.00
C132   C     0.18049   0.46614   0.48052   0.00000  Uiso   1.00
C133   C     0.31974   0.03292   0.52122   0.00000  Uiso   1.00
C134   C     0.28325   0.43020   0.98050   0.00000  Uiso   1.00
C135   C     0.21773   0.07005   0.02120   0.00000  Uiso   1.00
C136   C     0.07007   0.21778   0.97880   0.00000  Uiso   1.00
H137   H     0.01925   0.33042   0.36719   0.00000  Uiso   1.00
H138   H     0.26831   0.41937   0.13279   0.00000  Uiso   1.00
H139   H     0.41936   0.26826   0.86721   0.00000  Uiso   1.00
H140   H     0.07360   0.20688   0.12921   0.00000  Uiso   1.00
H141   H     0.29312   0.42641   0.87079   0.00000  Uiso   1.00
H142   H     0.23169   0.08063   0.13279   0.00000  Uiso   1.00
H143   H     0.08064   0.23175   0.86721   0.00000  Uiso   1.00
H144   H     0.42641   0.29312   0.12921   0.00000  Uiso   1.00
H145   H     0.44901   0.11770   0.46865   0.00000  Uiso   1.00
H146   H     0.38254   0.16059   0.47316   0.00000  Uiso   1.00
H147   H     0.39025   0.13307   0.42791   0.00000  Uiso   1.00
H148   H     0.45634   0.17661   0.62910   0.00000  Uiso   1.00
H149   H     0.40198   0.18834   0.43090   0.00000  Uiso   1.00
H150   H     0.07395   0.37078   0.52847   0.00000  Uiso   1.00
H151   H     0.49980   0.39848   0.52178   0.00000  Uiso   1.00
H152   H     0.02681   0.41193   0.56609   0.00000  Uiso   1.00
H153   H     0.48917   0.36953   0.56597   0.00000  Uiso   1.00
H154   H     0.37091   0.07375   0.47153   0.00000  Uiso   1.00
H155   H     0.39848   0.49954   0.47820   0.00000  Uiso   1.00
H156   H     0.41199   0.02655   0.43390   0.00000  Uiso   1.00
H157   H     0.36952   0.48898   0.43401   0.00000  Uiso   1.00
H158   H     0.11755   0.44939   0.53133   0.00000  Uiso   1.00
H159   H     0.17658   0.45645   0.37088   0.00000  Uiso   1.00
H160   H     0.16022   0.38279   0.52696   0.00000  Uiso   1.00
H161   H     0.13274   0.39069   0.57221   0.00000  Uiso   1.00
H162   H     0.18804   0.40223   0.56917   0.00000  Uiso   1.00
H163   H     0.05095   0.38231   0.46865   0.00000  Uiso   1.00
H164   H     0.11743   0.33943   0.47319   0.00000  Uiso   1.00
H165   H     0.10974   0.36696   0.42794   0.00000  Uiso   1.00
H166   H     0.09803   0.31169   0.43091   0.00000  Uiso   1.00
H167   H     0.42601   0.12924   0.52846   0.00000  Uiso   1.00
H168   H     0.00014   0.10152   0.52178   0.00000  Uiso   1.00
H169   H     0.47312   0.08807   0.56609   0.00000  Uiso   1.00
H170   H     0.33048   0.01895   0.63281   0.00000  Uiso   1.00
H171   H     0.01079   0.13046   0.56597   0.00000  Uiso   1.00
H172   H     0.12905   0.42632   0.47153   0.00000  Uiso   1.00
H173   H     0.10154   0.00056   0.47817   0.00000  Uiso   1.00
H174   H     0.08802   0.47354   0.43388   0.00000  Uiso   1.00
H175   H     0.13052   0.01108   0.43398   0.00000  Uiso   1.00
H176   H     0.38242   0.05070   0.53133   0.00000  Uiso   1.00
H177   H     0.33969   0.11726   0.52696   0.00000  Uiso   1.00
H178   H     0.36717   0.10938   0.57222   0.00000  Uiso   1.00
H179   H     0.31188   0.09779   0.56918   0.00000  Uiso   1.00
H180   H     0.32257   0.37836   0.97150   0.00000  Uiso   1.00
H181   H     0.48077   0.16958   0.36719   0.00000  Uiso   1.00
H182   H     0.24804   0.35161   0.97805   0.00000  Uiso   1.00
H183   H     0.27500   0.33782   0.93380   0.00000  Uiso   1.00
H184   H     0.23790   0.38070   0.93384   0.00000  Uiso   1.00
H185   H     0.20065   0.13293   0.03128   0.00000  Uiso   1.00
H186   H     0.13362   0.09090   0.02689   0.00000  Uiso   1.00
H187   H     0.14175   0.11840   0.07209   0.00000  Uiso   1.00
H188   H     0.15275   0.06298   0.06917   0.00000  Uiso   1.00
H189   H     0.13296   0.20072   0.96873   0.00000  Uiso   1.00
H190   H     0.09095   0.13368   0.97307   0.00000  Uiso   1.00
H191   H     0.11845   0.14184   0.92788   0.00000  Uiso   1.00
H192   H     0.04366   0.32338   0.62910   0.00000  Uiso   1.00
H193   H     0.06303   0.15282   0.93079   0.00000  Uiso   1.00
H194   H     0.37834   0.32252   0.02849   0.00000  Uiso   1.00
H195   H     0.35161   0.24799   0.02200   0.00000  Uiso   1.00
H196   H     0.33785   0.27496   0.06626   0.00000  Uiso   1.00
H197   H     0.38074   0.23786   0.06617   0.00000  Uiso   1.00
H198   H     0.17742   0.12163   0.97150   0.00000  Uiso   1.00
H199   H     0.25193   0.14841   0.97806   0.00000  Uiso   1.00
H200   H     0.22498   0.16218   0.93380   0.00000  Uiso   1.00
H201   H     0.26210   0.11931   0.93387   0.00000  Uiso   1.00
H202   H     0.29933   0.36706   0.03128   0.00000  Uiso   1.00
H203   H     0.32343   0.04354   0.37088   0.00000  Uiso   1.00
H204   H     0.36636   0.40908   0.02689   0.00000  Uiso   1.00
H205   H     0.35823   0.38159   0.07210   0.00000  Uiso   1.00
H206   H     0.34724   0.43701   0.06918   0.00000  Uiso   1.00
H207   H     0.36704   0.29926   0.96873   0.00000  Uiso   1.00
H208   H     0.40905   0.36631   0.97309   0.00000  Uiso   1.00
H209   H     0.38154   0.35815   0.92789   0.00000  Uiso   1.00
H210   H     0.43697   0.34717   0.93080   0.00000  Uiso   1.00
H211   H     0.12165   0.17746   0.02849   0.00000  Uiso   1.00
H212   H     0.14840   0.25198   0.02199   0.00000  Uiso   1.00
H213   H     0.16215   0.22502   0.06625   0.00000  Uiso   1.00
H214   H     0.16952   0.48104   0.63280   0.00000  Uiso   1.00
H215   H     0.11927   0.26213   0.06617   0.00000  Uiso   1.00
H216   H     0.20687   0.07360   0.87079   0.00000  Uiso   1.00
N217   N     0.44552   0.14784   0.45812   0.00000  Uiso   1.00
N218   N     0.19679   0.10285   0.04185   0.00000  Uiso   1.00
N219   N     0.10288   0.19685   0.95815   0.00000  Uiso   1.00
N220   N     0.39307   0.29620   0.03941   0.00000  Uiso   1.00
N221   N     0.20376   0.10692   0.96059   0.00000  Uiso   1.00
N222   N     0.30320   0.39715   0.04185   0.00000  Uiso   1.00
N223   N     0.39712   0.30314   0.95815   0.00000  Uiso   1.00
N224   N     0.10693   0.20378   0.03941   0.00000  Uiso   1.00
N225   N     0.04742   0.35641   0.53936   0.00000  Uiso   1.00
N226   N     0.35649   0.04724   0.46064   0.00000  Uiso   1.00
N227   N     0.14767   0.44584   0.54188   0.00000  Uiso   1.00
N228   N     0.05446   0.35217   0.45812   0.00000  Uiso   1.00
N229   N     0.45254   0.14361   0.53936   0.00000  Uiso   1.00
N230   N     0.14349   0.45282   0.46063   0.00000  Uiso   1.00
N231   N     0.35229   0.05422   0.54189   0.00000  Uiso   1.00
N232   N     0.29623   0.39308   0.96059   0.00000  Uiso   1.00
O233   O     0.25000  -0.00000   0.25000   0.00000  Uiso   1.00
O234   O     0.25000   0.46539   0.66251   0.00000  Uiso   1.00
O235   O     0.46539   0.25000   0.33749   0.00000  Uiso   1.00
O236   O     0.03462   0.25000   0.66251   0.00000  Uiso   1.00
O237   O     0.00000   0.21539   0.83749   0.00000  Uiso   1.00
O238   O     0.00000   0.28462   0.16251   0.00000  Uiso   1.00
O239   O     0.28462  -0.00000   0.83749   0.00000  Uiso   1.00
O240   O     0.21539  -0.00000   0.16251   0.00000  Uiso   1.00
O241   O     0.00000   0.28461   0.83749   0.00000  Uiso   1.00
O242   O     0.00000   0.21539   0.16251   0.00000  Uiso   1.00
O243   O     0.21539  -0.00000   0.83749   0.00000  Uiso   1.00
O244   O     0.25000  -0.00000   0.75000   0.00000  Uiso   1.00
O245   O     0.28462  -0.00000   0.16251   0.00000  Uiso   1.00
O246   O     0.20127   0.08332   0.27298   0.00000  Uiso   1.00
O247   O     0.29874   0.41668   0.72702   0.00000  Uiso   1.00
O248   O     0.41668   0.20126   0.27298   0.00000  Uiso   1.00
O249   O     0.08332   0.29874   0.72702   0.00000  Uiso   1.00
O250   O     0.29874   0.41668   0.27298   0.00000  Uiso   1.00
O251   O     0.20127   0.08332   0.72702   0.00000  Uiso   1.00
O252   O     0.08332   0.29874   0.27298   0.00000  Uiso   1.00
O253   O     0.41668   0.20126   0.72702   0.00000  Uiso   1.00
O254   O     0.20127   0.41668   0.72702   0.00000  Uiso   1.00
O255   O     0.00000   0.25000   0.25000   0.00000  Uiso   1.00
O256   O     0.29874   0.08332   0.27298   0.00000  Uiso   1.00
O257   O     0.41668   0.29873   0.72702   0.00000  Uiso   1.00
O258   O     0.08332   0.20127   0.27298   0.00000  Uiso   1.00
O259   O     0.29874   0.08332   0.72702   0.00000  Uiso   1.00
O260   O     0.20127   0.41668   0.27298   0.00000  Uiso   1.00
O261   O     0.08332   0.20127   0.72702   0.00000  Uiso   1.00
O262   O     0.41668   0.29873   0.27298   0.00000  Uiso   1.00
O263   O     0.45127   0.33332   0.77298   0.00000  Uiso   1.00
O264   O     0.04874   0.16668   0.22702   0.00000  Uiso   1.00
O265   O     0.16668   0.45127   0.77298   0.00000  Uiso   1.00
O266   O     0.00000   0.25000   0.75000   0.00000  Uiso   1.00
O267   O     0.33332   0.04873   0.22702   0.00000  Uiso   1.00
O268   O     0.04874   0.16668   0.77298   0.00000  Uiso   1.00
O269   O     0.45127   0.33332   0.22702   0.00000  Uiso   1.00
O270   O     0.33332   0.04873   0.77298   0.00000  Uiso   1.00
O271   O     0.16668   0.45127   0.22702   0.00000  Uiso   1.00
O272   O     0.45127   0.16668   0.22702   0.00000  Uiso   1.00
O273   O     0.04874   0.33332   0.77298   0.00000  Uiso   1.00
O274   O     0.16668   0.04873   0.22702   0.00000  Uiso   1.00
O275   O     0.33332   0.45127   0.77298   0.00000  Uiso   1.00
O276   O     0.04874   0.33332   0.22702   0.00000  Uiso   1.00
O277   O     0.25000   0.46539   0.33749   0.00000  Uiso   1.00
O278   O     0.45127   0.16668   0.77298   0.00000  Uiso   1.00
O279   O     0.33332   0.45127   0.22702   0.00000  Uiso   1.00
O280   O     0.16668   0.04873   0.77298   0.00000  Uiso   1.00
O281   O     0.48727   0.35849   0.40927   0.00000  Uiso   1.00
O282   O     0.40937   0.19035   0.59314   0.00000  Uiso   1.00
O283   O     0.19015   0.40949   0.40690   0.00000  Uiso   1.00
O284   O     0.35846   0.48697   0.59069   0.00000  Uiso   1.00
O285   O     0.01272   0.14151   0.40928   0.00000  Uiso   1.00
O286   O     0.09062   0.30966   0.59312   0.00000  Uiso   1.00
O287   O     0.30983   0.09051   0.40688   0.00000  Uiso   1.00
O288   O     0.25000   0.03461   0.66251   0.00000  Uiso   1.00
O289   O     0.14155   0.01308   0.59071   0.00000  Uiso   1.00
O290   O     0.15994   0.06057   0.90699   0.00000  Uiso   1.00
O291   O     0.23598   0.39167   0.09073   0.00000  Uiso   1.00
O292   O     0.39168   0.23591   0.90927   0.00000  Uiso   1.00
O293   O     0.06059   0.15994   0.09300   0.00000  Uiso   1.00
O294   O     0.34006   0.43942   0.90700   0.00000  Uiso   1.00
O295   O     0.26401   0.10833   0.09073   0.00000  Uiso   1.00
O296   O     0.10832   0.26409   0.90927   0.00000  Uiso   1.00
O297   O     0.43941   0.34005   0.09300   0.00000  Uiso   1.00
O298   O     0.03462   0.25000   0.33749   0.00000  Uiso   1.00
O299   O     0.46539   0.25000   0.66251   0.00000  Uiso   1.00
O300   O     0.25000   0.03461   0.33749   0.00000  Uiso   1.00
Zn301  Zn    0.20053  -0.00000   0.21730   0.00000  Uiso   1.00
Zn302  Zn    0.04948   0.25000   0.28270   0.00000  Uiso   1.00
Zn303  Zn    0.25000   0.45053   0.71730   0.00000  Uiso   1.00
Zn304  Zn    0.25000   0.04947   0.28270   0.00000  Uiso   1.00
Zn305  Zn    0.04948   0.25000   0.71730   0.00000  Uiso   1.00
Zn306  Zn    0.45053   0.25000   0.28270   0.00000  Uiso   1.00
Zn307  Zn    0.25000   0.04947   0.71730   0.00000  Uiso   1.00
Zn308  Zn    0.25000   0.45053   0.28270   0.00000  Uiso   1.00
Zn309  Zn    0.29948  -0.00000   0.78270   0.00000  Uiso   1.00
Zn310  Zn    0.00000   0.20053   0.21730   0.00000  Uiso   1.00
Zn311  Zn    0.00000   0.29948   0.78270   0.00000  Uiso   1.00
Zn312  Zn    0.29948  -0.00000   0.21730   0.00000  Uiso   1.00
Zn313  Zn    0.20053  -0.00000   0.78270   0.00000  Uiso   1.00
Zn314  Zn    0.00000   0.29948   0.21730   0.00000  Uiso   1.00
Zn315  Zn    0.00000   0.20053   0.78270   0.00000  Uiso   1.00
Zn316  Zn    0.45053   0.25000   0.71730   0.00000  Uiso   1.00
C317   C     0.75000  -0.00000   0.35599   0.00000  Uiso   1.00
C318   C     0.83001   0.41998   0.75001   0.00000  Uiso   1.00
C319   C     0.93019   0.28323   0.01950   0.00000  Uiso   1.00
C320   C     0.71674   0.06981   0.98050   0.00000  Uiso   1.00
C321   C     0.78226   0.42995   0.02120   0.00000  Uiso   1.00
C322   C     0.92993   0.28222   0.97880   0.00000  Uiso   1.00
C323   C     0.56981   0.21676   0.01950   0.00000  Uiso   1.00
C324   C     0.50579   0.32807   0.39596   0.00000  Uiso   1.00
C325   C     0.94616   0.19292   0.60314   0.00000  Uiso   1.00
C326   C     0.69283   0.44626   0.39687   0.00000  Uiso   1.00
C327   C     0.82809   0.00554   0.60402   0.00000  Uiso   1.00
C328   C     0.99421   0.17193   0.39597   0.00000  Uiso   1.00
C329   C     0.91999   0.16998   0.25001   0.00000  Uiso   1.00
C330   C     0.55384   0.30708   0.60313   0.00000  Uiso   1.00
C331   C     0.80717   0.05374   0.39686   0.00000  Uiso   1.00
C332   C     0.67191   0.49447   0.60403   0.00000  Uiso   1.00
C333   C     0.69664   0.05754   0.89686   0.00000  Uiso   1.00
C334   C     0.75487   0.42187   0.10402   0.00000  Uiso   1.00
C335   C     0.92187   0.25482   0.89598   0.00000  Uiso   1.00
C336   C     0.55754   0.19665   0.10314   0.00000  Uiso   1.00
C337   C     0.80336   0.44246   0.89686   0.00000  Uiso   1.00
C338   C     0.74512   0.07813   0.10402   0.00000  Uiso   1.00
C339   C     0.57813   0.24518   0.89598   0.00000  Uiso   1.00
C340   C     0.58001   0.33002   0.74999   0.00000  Uiso   1.00
C341   C     0.94246   0.30335   0.10314   0.00000  Uiso   1.00
C342   C     0.90283   0.15812   0.44708   0.00000  Uiso   1.00
C343   C     0.51394   0.38554   0.54868   0.00000  Uiso   1.00
C344   C     0.88557   0.01371   0.45131   0.00000  Uiso   1.00
C345   C     0.65782   0.40314   0.55300   0.00000  Uiso   1.00
C346   C     0.59716   0.34191   0.44710   0.00000  Uiso   1.00
C347   C     0.98601   0.11446   0.54867   0.00000  Uiso   1.00
C348   C     0.61444   0.48636   0.45129   0.00000  Uiso   1.00
C349   C     0.84210   0.09691   0.55301   0.00000  Uiso   1.00
C350   C     0.76241   0.36438   0.95119   0.00000  Uiso   1.00
C351   C     0.83001   0.41998   0.24999   0.00000  Uiso   1.00
C352   C     0.65397   0.09315   0.05295   0.00000  Uiso   1.00
C353   C     0.59320   0.15405   0.94703   0.00000  Uiso   1.00
C354   C     0.86439   0.26237   0.04884   0.00000  Uiso   1.00
C355   C     0.73757   0.13563   0.95120   0.00000  Uiso   1.00
C356   C     0.84601   0.40684   0.05295   0.00000  Uiso   1.00
C357   C     0.90680   0.34595   0.94703   0.00000  Uiso   1.00
C358   C     0.63562   0.23761   0.04884   0.00000  Uiso   1.00
C359   C     0.66999   0.08002   0.75001   0.00000  Uiso   1.00
C360   C     0.58001   0.33002   0.25001   0.00000  Uiso   1.00
C361   C     0.91999   0.16998   0.74999   0.00000  Uiso   1.00
C362   C     0.66998   0.41999   0.74999   0.00000  Uiso   1.00
C363   C     0.83002   0.08001   0.25001   0.00000  Uiso   1.00
C364   C     0.91998   0.33001   0.75001   0.00000  Uiso   1.00
C365   C     0.75000  -0.00000   0.64429   0.00000  Uiso   1.00
C366   C     0.58002   0.16999   0.24999   0.00000  Uiso   1.00
C367   C     0.83002   0.08001   0.74999   0.00000  Uiso   1.00
C368   C     0.66998   0.41999   0.25001   0.00000  Uiso   1.00
C369   C     0.58002   0.16999   0.75001   0.00000  Uiso   1.00
C370   C     0.91998   0.33001   0.24999   0.00000  Uiso   1.00
C371   C     0.63833   0.38834   0.25002   0.00000  Uiso   1.00
C372   C     0.86168   0.11166   0.74998   0.00000  Uiso   1.00
C373   C     0.61167   0.13834   0.24998   0.00000  Uiso   1.00
C374   C     0.88832   0.36166   0.75002   0.00000  Uiso   1.00
C375   C     0.86167   0.11166   0.25002   0.00000  Uiso   1.00
C376   C     0.50000   0.25000   0.35570   0.00000  Uiso   1.00
C377   C     0.63832   0.38834   0.74998   0.00000  Uiso   1.00
C378   C     0.88833   0.36166   0.24998   0.00000  Uiso   1.00
C379   C     0.61168   0.13834   0.75002   0.00000  Uiso   1.00
C380   C     0.63834   0.11167   0.75002   0.00000  Uiso   1.00
C381   C     0.86166   0.38832   0.24998   0.00000  Uiso   1.00
C382   C     0.61166   0.36167   0.74998   0.00000  Uiso   1.00
C383   C     0.88834   0.13832   0.25002   0.00000  Uiso   1.00
C384   C     0.86166   0.38833   0.75002   0.00000  Uiso   1.00
C385   C     0.63834   0.11168   0.24998   0.00000  Uiso   1.00
C386   C     0.88834   0.13833   0.74998   0.00000  Uiso   1.00
C387   C     0.50000   0.25000   0.64401   0.00000  Uiso   1.00
C388   C     0.61166   0.36168   0.25002   0.00000  Uiso   1.00
C389   C     0.50762   0.28766   0.41784   0.00000  Uiso   1.00
C390   C     0.97618   0.21971   0.58112   0.00000  Uiso   1.00
C391   C     0.71967   0.47625   0.41888   0.00000  Uiso   1.00
C392   C     0.78768   0.00751   0.58216   0.00000  Uiso   1.00
C393   C     0.99238   0.21234   0.41784   0.00000  Uiso   1.00
C394   C     0.52381   0.28029   0.58111   0.00000  Uiso   1.00
C395   C     0.78033   0.02376   0.41888   0.00000  Uiso   1.00
C396   C     0.71232   0.49250   0.58216   0.00000  Uiso   1.00
C397   C     0.72647   0.03051   0.91887   0.00000  Uiso   1.00
C398   C     0.50000   0.25000   0.85571   0.00000  Uiso   1.00
C399   C     0.75717   0.46225   0.08215   0.00000  Uiso   1.00
C400   C     0.96225   0.25715   0.91785   0.00000  Uiso   1.00
C401   C     0.53051   0.22648   0.08113   0.00000  Uiso   1.00
C402   C     0.77353   0.46949   0.91887   0.00000  Uiso   1.00
C403   C     0.74282   0.03775   0.08215   0.00000  Uiso   1.00
C404   C     0.53775   0.24285   0.91785   0.00000  Uiso   1.00
C405   C     0.96949   0.27352   0.08113   0.00000  Uiso   1.00
C406   C     0.50000   0.25000   0.39784   0.00000  Uiso   1.00
C407   C     0.50000   0.25000   0.60137   0.00000  Uiso   1.00
C408   C     0.75000   0.00000   0.39863   0.00000  Uiso   1.00
C409   C     0.50000   0.25000   0.14402   0.00000  Uiso   1.00
C410   C     0.75000   0.00000   0.60215   0.00000  Uiso   1.00
C411   C     0.75000   0.00000   0.89862   0.00000  Uiso   1.00
C412   C     0.75000   0.00000   0.10214   0.00000  Uiso   1.00
C413   C     0.50000   0.25000   0.89786   0.00000  Uiso   1.00
C414   C     0.50000   0.25000   0.10138   0.00000  Uiso   1.00
C415   C     0.98624   0.21383   0.45844   0.00000  Uiso   1.00
C416   C     0.51935   0.28369   0.54034   0.00000  Uiso   1.00
C417   C     0.78373   0.01929   0.45966   0.00000  Uiso   1.00
C418   C     0.71379   0.48636   0.54155   0.00000  Uiso   1.00
C419   C     0.51375   0.28617   0.45844   0.00000  Uiso   1.00
C420   C     0.75000   0.00000   0.85598   0.00000  Uiso   1.00
C421   C     0.98064   0.21631   0.54034   0.00000  Uiso   1.00
C422   C     0.71626   0.48072   0.45966   0.00000  Uiso   1.00
C423   C     0.78620   0.01366   0.54155   0.00000  Uiso   1.00
C424   C     0.76900   0.46611   0.95964   0.00000  Uiso   1.00
C425   C     0.73667   0.03633   0.04154   0.00000  Uiso   1.00
C426   C     0.53634   0.23669   0.95846   0.00000  Uiso   1.00
C427   C     0.96611   0.26899   0.04036   0.00000  Uiso   1.00
C428   C     0.73100   0.03389   0.95964   0.00000  Uiso   1.00
C429   C     0.76333   0.46367   0.04154   0.00000  Uiso   1.00
C430   C     0.96366   0.26330   0.95846   0.00000  Uiso   1.00
C431   C     0.75000   0.00000   0.14429   0.00000  Uiso   1.00
C432   C     0.53390   0.23100   0.04036   0.00000  Uiso   1.00
C433   C     0.99999   0.25000   0.47899   0.00000  Uiso   1.00
C434   C     0.99999   0.25000   0.51990   0.00000  Uiso   1.00
C435   C     0.75000   0.00001   0.48009   0.00000  Uiso   1.00
C436   C     0.75000   0.00001   0.52101   0.00000  Uiso   1.00
C437   C     0.75000   0.00000   0.98008   0.00000  Uiso   1.00
C438   C     0.75000   0.00000   0.02100   0.00000  Uiso   1.00
C439   C     0.50000   0.25000   0.97900   0.00000  Uiso   1.00
C440   C     0.50000   0.25000   0.01992   0.00000  Uiso   1.00
C441   C     0.96691   0.18034   0.47877   0.00000  Uiso   1.00
C442   C     0.66999   0.08002   0.24999   0.00000  Uiso   1.00
C443   C     0.53402   0.31943   0.51948   0.00000  Uiso   1.00
C444   C     0.81950   0.03389   0.48052   0.00000  Uiso   1.00
C445   C     0.68025   0.46711   0.52122   0.00000  Uiso   1.00
C446   C     0.53307   0.31967   0.47878   0.00000  Uiso   1.00
C447   C     0.96596   0.18058   0.51947   0.00000  Uiso   1.00
C448   C     0.68049   0.46614   0.48052   0.00000  Uiso   1.00
C449   C     0.81974   0.03292   0.52122   0.00000  Uiso   1.00
C450   C     0.78325   0.43020   0.98050   0.00000  Uiso   1.00
C451   C     0.71773   0.07005   0.02120   0.00000  Uiso   1.00
C452   C     0.57007   0.21778   0.97880   0.00000  Uiso   1.00
H453   H     0.51925   0.33042   0.36719   0.00000  Uiso   1.00
H454   H     0.76831   0.41937   0.13279   0.00000  Uiso   1.00
H455   H     0.91936   0.26826   0.86721   0.00000  Uiso   1.00
H456   H     0.57360   0.20688   0.12921   0.00000  Uiso   1.00
H457   H     0.79312   0.42641   0.87079   0.00000  Uiso   1.00
H458   H     0.73169   0.08063   0.13279   0.00000  Uiso   1.00
H459   H     0.58064   0.23175   0.86721   0.00000  Uiso   1.00
H460   H     0.92641   0.29312   0.12921   0.00000  Uiso   1.00
H461   H     0.94901   0.11770   0.46865   0.00000  Uiso   1.00
H462   H     0.88254   0.16059   0.47316   0.00000  Uiso   1.00
H463   H     0.89025   0.13307   0.42791   0.00000  Uiso   1.00
H464   H     0.95634   0.17661   0.62910   0.00000  Uiso   1.00
H465   H     0.90198   0.18834   0.43090   0.00000  Uiso   1.00
H466   H     0.57395   0.37078   0.52847   0.00000  Uiso   1.00
H467   H     0.99980   0.39848   0.52178   0.00000  Uiso   1.00
H468   H     0.52681   0.41193   0.56609   0.00000  Uiso   1.00
H469   H     0.98917   0.36953   0.56597   0.00000  Uiso   1.00
H470   H     0.87091   0.07375   0.47153   0.00000  Uiso   1.00
H471   H     0.89848   0.49954   0.47820   0.00000  Uiso   1.00
H472   H     0.91199   0.02655   0.43390   0.00000  Uiso   1.00
H473   H     0.86952   0.48898   0.43401   0.00000  Uiso   1.00
H474   H     0.61755   0.44939   0.53133   0.00000  Uiso   1.00
H475   H     0.67658   0.45645   0.37088   0.00000  Uiso   1.00
H476   H     0.66022   0.38279   0.52696   0.00000  Uiso   1.00
H477   H     0.63274   0.39069   0.57221   0.00000  Uiso   1.00
H478   H     0.68804   0.40223   0.56917   0.00000  Uiso   1.00
H479   H     0.55095   0.38231   0.46865   0.00000  Uiso   1.00
H480   H     0.61743   0.33943   0.47319   0.00000  Uiso   1.00
H481   H     0.60974   0.36696   0.42794   0.00000  Uiso   1.00
H482   H     0.59803   0.31169   0.43091   0.00000  Uiso   1.00
H483   H     0.92601   0.12924   0.52846   0.00000  Uiso   1.00
H484   H     0.50014   0.10152   0.52178   0.00000  Uiso   1.00
H485   H     0.97312   0.08807   0.56609   0.00000  Uiso   1.00
H486   H     0.83048   0.01895   0.63281   0.00000  Uiso   1.00
H487   H     0.51079   0.13046   0.56597   0.00000  Uiso   1.00
H488   H     0.62905   0.42632   0.47153   0.00000  Uiso   1.00
H489   H     0.60154   0.00056   0.47817   0.00000  Uiso   1.00
H490   H     0.58802   0.47354   0.43388   0.00000  Uiso   1.00
H491   H     0.63052   0.01108   0.43398   0.00000  Uiso   1.00
H492   H     0.88242   0.05070   0.53133   0.00000  Uiso   1.00
H493   H     0.83969   0.11726   0.52696   0.00000  Uiso   1.00
H494   H     0.86717   0.10938   0.57222   0.00000  Uiso   1.00
H495   H     0.81188   0.09779   0.56918   0.00000  Uiso   1.00
H496   H     0.82257   0.37836   0.97150   0.00000  Uiso   1.00
H497   H     0.98077   0.16958   0.36719   0.00000  Uiso   1.00
H498   H     0.74804   0.35161   0.97805   0.00000  Uiso   1.00
H499   H     0.77500   0.33782   0.93380   0.00000  Uiso   1.00
H500   H     0.73790   0.38070   0.93384   0.00000  Uiso   1.00
H501   H     0.70065   0.13293   0.03128   0.00000  Uiso   1.00
H502   H     0.63362   0.09090   0.02689   0.00000  Uiso   1.00
H503   H     0.64175   0.11840   0.07209   0.00000  Uiso   1.00
H504   H     0.65275   0.06298   0.06917   0.00000  Uiso   1.00
H505   H     0.63296   0.20072   0.96873   0.00000  Uiso   1.00
H506   H     0.59095   0.13368   0.97307   0.00000  Uiso   1.00
H507   H     0.61845   0.14184   0.92788   0.00000  Uiso   1.00
H508   H     0.54366   0.32338   0.62910   0.00000  Uiso   1.00
H509   H     0.56303   0.15282   0.93079   0.00000  Uiso   1.00
H510   H     0.87834   0.32252   0.02849   0.00000  Uiso   1.00
H511   H     0.85161   0.24799   0.02200   0.00000  Uiso   1.00
H512   H     0.83785   0.27496   0.06626   0.00000  Uiso   1.00
H513   H     0.88074   0.23786   0.06617   0.00000  Uiso   1.00
H514   H     0.67742   0.12163   0.97150   0.00000  Uiso   1.00
H515   H     0.75193   0.14841   0.97806   0.00000  Uiso   1.00
H516   H     0.72498   0.16218   0.93380   0.00000  Uiso   1.00
H517   H     0.76210   0.11931   0.93387   0.00000  Uiso   1.00
H518   H     0.79933   0.36706   0.03128   0.00000  Uiso   1.00
H519   H     0.82343   0.04354   0.37088   0.00000  Uiso   1.00
H520   H     0.86636   0.40908   0.02689   0.00000  Uiso   1.00
H521   H     0.85823   0.38159   0.07210   0.00000  Uiso   1.00
H522   H     0.84724   0.43701   0.06918   0.00000  Uiso   1.00
H523   H     0.86704   0.29926   0.96873   0.00000  Uiso   1.00
H524   H     0.90905   0.36631   0.97309   0.00000  Uiso   1.00
H525   H     0.88154   0.35815   0.92789   0.00000  Uiso   1.00
H526   H     0.93697   0.34717   0.93080   0.00000  Uiso   1.00
H527   H     0.62165   0.17746   0.02849   0.00000  Uiso   1.00
H528   H     0.64840   0.25198   0.02199   0.00000  Uiso   1.00
H529   H     0.66215   0.22502   0.06625   0.00000  Uiso   1.00
H530   H     0.66952   0.48104   0.63280   0.00000  Uiso   1.00
H531   H     0.61927   0.26213   0.06617   0.00000  Uiso   1.00
H532   H     0.70687   0.07360   0.87079   0.00000  Uiso   1.00
N533   N     0.94552   0.14784   0.45812   0.00000  Uiso   1.00
N534   N     0.69679   0.10285   0.04185   0.00000  Uiso   1.00
N535   N     0.60288   0.19685   0.95815   0.00000  Uiso   1.00
N536   N     0.89307   0.29620   0.03941   0.00000  Uiso   1.00
N537   N     0.70376   0.10692   0.96059   0.00000  Uiso   1.00
N538   N     0.80320   0.39715   0.04185   0.00000  Uiso   1.00
N539   N     0.89712   0.30314   0.95815   0.00000  Uiso   1.00
N540   N     0.60693   0.20378   0.03941   0.00000  Uiso   1.00
N541   N     0.54742   0.35641   0.53936   0.00000  Uiso   1.00
N542   N     0.85649   0.04724   0.46064   0.00000  Uiso   1.00
N543   N     0.64767   0.44584   0.54188   0.00000  Uiso   1.00
N544   N     0.55446   0.35217   0.45812   0.00000  Uiso   1.00
N545   N     0.95254   0.14361   0.53936   0.00000  Uiso   1.00
N546   N     0.64349   0.45282   0.46063   0.00000  Uiso   1.00
N547   N     0.85229   0.05422   0.54189   0.00000  Uiso   1.00
N548   N     0.79623   0.39308   0.96059   0.00000  Uiso   1.00
O549   O     0.75000  -0.00000   0.25000   0.00000  Uiso   1.00
O550   O     0.75000   0.46539   0.66251   0.00000  Uiso   1.00
O551   O     0.96539   0.25000   0.33749   0.00000  Uiso   1.00
O552   O     0.53462   0.25000   0.66251   0.00000  Uiso   1.00
O553   O     0.50000   0.21539   0.83749   0.00000  Uiso   1.00
O554   O     0.50000   0.28462   0.16251   0.00000  Uiso   1.00
O555   O     0.78462  -0.00000   0.83749   0.00000  Uiso   1.00
O556   O     0.71539  -0.00000   0.16251   0.00000  Uiso   1.00
O557   O     0.50000   0.28461   0.83749   0.00000  Uiso   1.00
O558   O     0.50000   0.21539   0.16251   0.00000  Uiso   1.00
O559   O     0.71539  -0.00000   0.83749   0.00000  Uiso   1.00
O560   O     0.75000  -0.00000   0.75000   0.00000  Uiso   1.00
O561   O     0.78462  -0.00000   0.16251   0.00000  Uiso   1.00
O562   O     0.70127   0.08332   0.27298   0.00000  Uiso   1.00
O563   O     0.79874   0.41668   0.72702   0.00000  Uiso   1.00
O564   O     0.91668   0.20126   0.27298   0.00000  Uiso   1.00
O565   O     0.58332   0.29874   0.72702   0.00000  Uiso   1.00
O566   O     0.79874   0.41668   0.27298   0.00000  Uiso   1.00
O567   O     0.70127   0.08332   0.72702   0.00000  Uiso   1.00
O568   O     0.58332   0.29874   0.27298   0.00000  Uiso   1.00
O569   O     0.91668   0.20126   0.72702   0.00000  Uiso   1.00
O570   O     0.70127   0.41668   0.72702   0.00000  Uiso   1.00
O571   O     0.50000   0.25000   0.25000   0.00000  Uiso   1.00
O572   O     0.79874   0.08332   0.27298   0.00000  Uiso   1.00
O573   O     0.91668   0.29873   0.72702   0.00000  Uiso   1.00
O574   O     0.58332   0.20127   0.27298   0.00000  Uiso   1.00
O575   O     0.79874   0.08332   0.72702   0.00000  Uiso   1.00
O576   O     0.70127   0.41668   0.27298   0.00000  Uiso   1.00
O577   O     0.58332   0.20127   0.72702   0.00000  Uiso   1.00
O578   O     0.91668   0.29873   0.27298   0.00000  Uiso   1.00
O579   O     0.95127   0.33332   0.77298   0.00000  Uiso   1.00
O580   O     0.54874   0.16668   0.22702   0.00000  Uiso   1.00
O581   O     0.66668   0.45127   0.77298   0.00000  Uiso   1.00
O582   O     0.50000   0.25000   0.75000   0.00000  Uiso   1.00
O583   O     0.83332   0.04873   0.22702   0.00000  Uiso   1.00
O584   O     0.54874   0.16668   0.77298   0.00000  Uiso   1.00
O585   O     0.95127   0.33332   0.22702   0.00000  Uiso   1.00
O586   O     0.83332   0.04873   0.77298   0.00000  Uiso   1.00
O587   O     0.66668   0.45127   0.22702   0.00000  Uiso   1.00
O588   O     0.95127   0.16668   0.22702   0.00000  Uiso   1.00
O589   O     0.54874   0.33332   0.77298   0.00000  Uiso   1.00
O590   O     0.66668   0.04873   0.22702   0.00000  Uiso   1.00
O591   O     0.83332   0.45127   0.77298   0.00000  Uiso   1.00
O592   O     0.54874   0.33332   0.22702   0.00000  Uiso   1.00
O593   O     0.75000   0.46539   0.33749   0.00000  Uiso   1.00
O594   O     0.95127   0.16668   0.77298   0.00000  Uiso   1.00
O595   O     0.83332   0.45127   0.22702   0.00000  Uiso   1.00
O596   O     0.66668   0.04873   0.77298   0.00000  Uiso   1.00
O597   O     0.98727   0.35849   0.40927   0.00000  Uiso   1.00
O598   O     0.90937   0.19035   0.59314   0.00000  Uiso   1.00
O599   O     0.69015   0.40949   0.40690   0.00000  Uiso   1.00
O600   O     0.85846   0.48697   0.59069   0.00000  Uiso   1.00
O601   O     0.51272   0.14151   0.40928   0.00000  Uiso   1.00
O602   O     0.59062   0.30966   0.59312   0.00000  Uiso   1.00
O603   O     0.80983   0.09051   0.40688   0.00000  Uiso   1.00
O604   O     0.75000   0.03461   0.66251   0.00000  Uiso   1.00
O605   O     0.64155   0.01308   0.59071   0.00000  Uiso   1.00
O606   O     0.65994   0.06057   0.90699   0.00000  Uiso   1.00
O607   O     0.73598   0.39167   0.09073   0.00000  Uiso   1.00
O608   O     0.89168   0.23591   0.90927   0.00000  Uiso   1.00
O609   O     0.56059   0.15994   0.09300   0.00000  Uiso   1.00
O610   O     0.84006   0.43942   0.90700   0.00000  Uiso   1.00
O611   O     0.76401   0.10833   0.09073   0.00000  Uiso   1.00
O612   O     0.60832   0.26409   0.90927   0.00000  Uiso   1.00
O613   O     0.93941   0.34005   0.09300   0.00000  Uiso   1.00
O614   O     0.53462   0.25000   0.33749   0.00000  Uiso   1.00
O615   O     0.96539   0.25000   0.66251   0.00000  Uiso   1.00
O616   O     0.75000   0.03461   0.33749   0.00000  Uiso   1.00
Zn617  Zn    0.70053  -0.00000   0.21730   0.00000  Uiso   1.00
Zn618  Zn    0.54948   0.25000   0.28270   0.00000  Uiso   1.00
Zn619  Zn    0.75000   0.45053   0.71730   0.00000  Uiso   1.00
Zn620  Zn    0.75000   0.04947   0.28270   0.00000  Uiso   1.00
Zn621  Zn    0.54948   0.25000   0.71730   0.00000  Uiso   1.00
Zn622  Zn    0.95053   0.25000   0.28270   0.00000  Uiso   1.00
Zn623  Zn    0.75000   0.04947   0.71730   0.00000  Uiso   1.00
Zn624  Zn    0.75000   0.45053   0.28270   0.00000  Uiso   1.00
Zn625  Zn    0.79948  -0.00000   0.78270   0.00000  Uiso   1.00
Zn626  Zn    0.50000   0.20053   0.21730   0.00000  Uiso   1.00
Zn627  Zn    0.50000   0.29948   0.78270   0.00000  Uiso   1.00
Zn628  Zn    0.79948  -0.00000   0.21730   0.00000  Uiso   1.00
Zn629  Zn    0.70053  -0.00000   0.78270   0.00000  Uiso   1.00
Zn630  Zn    0.50000   0.29948   0.21730   0.00000  Uiso   1.00
Zn631  Zn    0.50000   0.20053   0.78270   0.00000  Uiso   1.00
Zn632  Zn    0.95053   0.25000   0.71730   0.00000  Uiso   1.00
C633   C     0.25000   0.50000   0.35599   0.00000  Uiso   1.00
C634   C     0.33001   0.91998   0.75001   0.00000  Uiso   1.00
C635   C     0.43019   0.78323   0.01950   0.00000  Uiso   1.00
C636   C     0.21674   0.56981   0.98050   0.00000  Uiso   1.00
C637   C     0.28226   0.92995   0.02120   0.00000  Uiso   1.00
C638   C     0.42993   0.78222   0.97880   0.00000  Uiso   1.00
C639   C     0.06981   0.71676   0.01950   0.00000  Uiso   1.00
C640   C     0.00579   0.82807   0.39596   0.00000  Uiso   1.00
C641   C     0.44616   0.69292   0.60314   0.00000  Uiso   1.00
C642   C     0.19283   0.94626   0.39687   0.00000  Uiso   1.00
C643   C     0.32809   0.50554   0.60402   0.00000  Uiso   1.00
C644   C     0.49421   0.67193   0.39597   0.00000  Uiso   1.00
C645   C     0.41999   0.66998   0.25001   0.00000  Uiso   1.00
C646   C     0.05384   0.80708   0.60313   0.00000  Uiso   1.00
C647   C     0.30717   0.55374   0.39686   0.00000  Uiso   1.00
C648   C     0.17191   0.99447   0.60403   0.00000  Uiso   1.00
C649   C     0.19664   0.55754   0.89686   0.00000  Uiso   1.00
C650   C     0.25487   0.92187   0.10402   0.00000  Uiso   1.00
C651   C     0.42187   0.75482   0.89598   0.00000  Uiso   1.00
C652   C     0.05754   0.69665   0.10314   0.00000  Uiso   1.00
C653   C     0.30336   0.94246   0.89686   0.00000  Uiso   1.00
C654   C     0.24512   0.57813   0.10402   0.00000  Uiso   1.00
C655   C     0.07813   0.74518   0.89598   0.00000  Uiso   1.00
C656   C     0.08001   0.83002   0.74999   0.00000  Uiso   1.00
C657   C     0.44246   0.80335   0.10314   0.00000  Uiso   1.00
C658   C     0.40283   0.65812   0.44708   0.00000  Uiso   1.00
C659   C     0.01394   0.88554   0.54868   0.00000  Uiso   1.00
C660   C     0.38557   0.51371   0.45131   0.00000  Uiso   1.00
C661   C     0.15782   0.90314   0.55300   0.00000  Uiso   1.00
C662   C     0.09716   0.84191   0.44710   0.00000  Uiso   1.00
C663   C     0.48601   0.61446   0.54867   0.00000  Uiso   1.00
C664   C     0.11444   0.98636   0.45129   0.00000  Uiso   1.00
C665   C     0.34210   0.59691   0.55301   0.00000  Uiso   1.00
C666   C     0.26241   0.86438   0.95119   0.00000  Uiso   1.00
C667   C     0.33001   0.91998   0.24999   0.00000  Uiso   1.00
C668   C     0.15397   0.59315   0.05295   0.00000  Uiso   1.00
C669   C     0.09320   0.65405   0.94703   0.00000  Uiso   1.00
C670   C     0.36439   0.76237   0.04884   0.00000  Uiso   1.00
C671   C     0.23757   0.63563   0.95120   0.00000  Uiso   1.00
C672   C     0.34601   0.90684   0.05295   0.00000  Uiso   1.00
C673   C     0.40680   0.84595   0.94703   0.00000  Uiso   1.00
C674   C     0.13562   0.73761   0.04884   0.00000  Uiso   1.00
C675   C     0.16999   0.58002   0.75001   0.00000  Uiso   1.00
C676   C     0.08001   0.83002   0.25001   0.00000  Uiso   1.00
C677   C     0.41999   0.66998   0.74999   0.00000  Uiso   1.00
C678   C     0.16998   0.91999   0.74999   0.00000  Uiso   1.00
C679   C     0.33002   0.58001   0.25001   0.00000  Uiso   1.00
C680   C     0.41998   0.83001   0.75001   0.00000  Uiso   1.00
C681   C     0.25000   0.50000   0.64429   0.00000  Uiso   1.00
C682   C     0.08002   0.66999   0.24999   0.00000  Uiso   1.00
C683   C     0.33002   0.58001   0.74999   0.00000  Uiso   1.00
C684   C     0.16998   0.91999   0.25001   0.00000  Uiso   1.00
C685   C     0.08002   0.66999   0.75001   0.00000  Uiso   1.00
C686   C     0.41998   0.83001   0.24999   0.00000  Uiso   1.00
C687   C     0.13833   0.88834   0.25002   0.00000  Uiso   1.00
C688   C     0.36168   0.61166   0.74998   0.00000  Uiso   1.00
C689   C     0.11167   0.63834   0.24998   0.00000  Uiso   1.00
C690   C     0.38832   0.86166   0.75002   0.00000  Uiso   1.00
C691   C     0.36167   0.61166   0.25002   0.00000  Uiso   1.00
C692   C     0.00000   0.75000   0.35570   0.00000  Uiso   1.00
C693   C     0.13832   0.88834   0.74998   0.00000  Uiso   1.00
C694   C     0.38833   0.86166   0.24998   0.00000  Uiso   1.00
C695   C     0.11168   0.63834   0.75002   0.00000  Uiso   1.00
C696   C     0.13834   0.61167   0.75002   0.00000  Uiso   1.00
C697   C     0.36166   0.88832   0.24998   0.00000  Uiso   1.00
C698   C     0.11166   0.86167   0.74998   0.00000  Uiso   1.00
C699   C     0.38834   0.63832   0.25002   0.00000  Uiso   1.00
C700   C     0.36166   0.88833   0.75002   0.00000  Uiso   1.00
C701   C     0.13834   0.61168   0.24998   0.00000  Uiso   1.00
C702   C     0.38834   0.63833   0.74998   0.00000  Uiso   1.00
C703   C     0.00000   0.75000   0.64401   0.00000  Uiso   1.00
C704   C     0.11166   0.86168   0.25002   0.00000  Uiso   1.00
C705   C     0.00762   0.78766   0.41784   0.00000  Uiso   1.00
C706   C     0.47618   0.71971   0.58112   0.00000  Uiso   1.00
C707   C     0.21967   0.97625   0.41888   0.00000  Uiso   1.00
C708   C     0.28768   0.50751   0.58216   0.00000  Uiso   1.00
C709   C     0.49238   0.71234   0.41784   0.00000  Uiso   1.00
C710   C     0.02381   0.78029   0.58111   0.00000  Uiso   1.00
C711   C     0.28033   0.52376   0.41888   0.00000  Uiso   1.00
C712   C     0.21232   0.99250   0.58216   0.00000  Uiso   1.00
C713   C     0.22647   0.53051   0.91887   0.00000  Uiso   1.00
C714   C     0.00000   0.75000   0.85571   0.00000  Uiso   1.00
C715   C     0.25717   0.96225   0.08215   0.00000  Uiso   1.00
C716   C     0.46225   0.75715   0.91785   0.00000  Uiso   1.00
C717   C     0.03051   0.72648   0.08113   0.00000  Uiso   1.00
C718   C     0.27353   0.96949   0.91887   0.00000  Uiso   1.00
C719   C     0.24282   0.53775   0.08215   0.00000  Uiso   1.00
C720   C     0.03775   0.74285   0.91785   0.00000  Uiso   1.00
C721   C     0.46949   0.77352   0.08113   0.00000  Uiso   1.00
C722   C     0.00000   0.75000   0.39784   0.00000  Uiso   1.00
C723   C    -0.00000   0.75000   0.60137   0.00000  Uiso   1.00
C724   C     0.25000   0.50000   0.39863   0.00000  Uiso   1.00
C725   C     0.00000   0.75000   0.14402   0.00000  Uiso   1.00
C726   C     0.25000   0.50000   0.60215   0.00000  Uiso   1.00
C727   C     0.25000   0.50000   0.89862   0.00000  Uiso   1.00
C728   C     0.25000   0.50000   0.10214   0.00000  Uiso   1.00
C729   C     0.00000   0.75000   0.89786   0.00000  Uiso   1.00
C730   C     0.00000   0.75000   0.10138   0.00000  Uiso   1.00
C731   C     0.48624   0.71383   0.45844   0.00000  Uiso   1.00
C732   C     0.01935   0.78369   0.54034   0.00000  Uiso   1.00
C733   C     0.28373   0.51929   0.45966   0.00000  Uiso   1.00
C734   C     0.21379   0.98636   0.54155   0.00000  Uiso   1.00
C735   C     0.01375   0.78617   0.45844   0.00000  Uiso   1.00
C736   C     0.25000   0.50000   0.85598   0.00000  Uiso   1.00
C737   C     0.48064   0.71631   0.54034   0.00000  Uiso   1.00
C738   C     0.21626   0.98072   0.45966   0.00000  Uiso   1.00
C739   C     0.28620   0.51366   0.54155   0.00000  Uiso   1.00
C740   C     0.26900   0.96611   0.95964   0.00000  Uiso   1.00
C741   C     0.23667   0.53633   0.04154   0.00000  Uiso   1.00
C742   C     0.03634   0.73669   0.95846   0.00000  Uiso   1.00
C743   C     0.46611   0.76899   0.04036   0.00000  Uiso   1.00
C744   C     0.23100   0.53389   0.95964   0.00000  Uiso   1.00
C745   C     0.26333   0.96367   0.04154   0.00000  Uiso   1.00
C746   C     0.46366   0.76330   0.95846   0.00000  Uiso   1.00
C747   C     0.25000   0.50000   0.14429   0.00000  Uiso   1.00
C748   C     0.03390   0.73100   0.04036   0.00000  Uiso   1.00
C749   C     0.49999   0.75000   0.47899   0.00000  Uiso   1.00
C750   C     0.49999   0.75000   0.51990   0.00000  Uiso   1.00
C751   C     0.25000   0.50001   0.48009   0.00000  Uiso   1.00
C752   C     0.25000   0.50001   0.52101   0.00000  Uiso   1.00
C753   C     0.25000   0.50000   0.98008   0.00000  Uiso   1.00
C754   C     0.25000   0.50000   0.02100   0.00000  Uiso   1.00
C755   C     0.00000   0.75000   0.97900   0.00000  Uiso   1.00
C756   C     0.00000   0.75000   0.01992   0.00000  Uiso   1.00
C757   C     0.46691   0.68034   0.47877   0.00000  Uiso   1.00
C758   C     0.16999   0.58002   0.24999   0.00000  Uiso   1.00
C759   C     0.03402   0.81943   0.51948   0.00000  Uiso   1.00
C760   C     0.31950   0.53389   0.48052   0.00000  Uiso   1.00
C761   C     0.18025   0.96711   0.52122   0.00000  Uiso   1.00
C762   C     0.03307   0.81967   0.47878   0.00000  Uiso   1.00
C763   C     0.46596   0.68058   0.51947   0.00000  Uiso   1.00
C764   C     0.18049   0.96614   0.48052   0.00000  Uiso   1.00
C765   C     0.31974   0.53292   0.52122   0.00000  Uiso   1.00
C766   C     0.28325   0.93020   0.98050   0.00000  Uiso   1.00
C767   C     0.21773   0.57005   0.02120   0.00000  Uiso   1.00
C768   C     0.07007   0.71778   0.97880   0.00000  Uiso   1.00
H769   H     0.01925   0.83042   0.36719   0.00000  Uiso   1.00
H770   H     0.26831   0.91937   0.13279   0.00000  Uiso   1.00
H771   H     0.41936   0.76826   0.86721   0.00000  Uiso   1.00
H772   H     0.07360   0.70688   0.12921   0.00000  Uiso   1.00
H773   H     0.29312   0.92641   0.87079   0.00000  Uiso   1.00
H774   H     0.23169   0.58063   0.13279   0.00000  Uiso   1.00
H775   H     0.08064   0.73175   0.86721   0.00000  Uiso   1.00
H776   H     0.42641   0.79312   0.12921   0.00000  Uiso   1.00
H777   H     0.44901   0.61770   0.46865   0.00000  Uiso   1.00
H778   H     0.38254   0.66059   0.47316   0.00000  Uiso   1.00
H779   H     0.39025   0.63307   0.42791   0.00000  Uiso   1.00
H780   H     0.45634   0.67661   0.62910   0.00000  Uiso   1.00
H781   H     0.40198   0.68834   0.43090   0.00000  Uiso   1.00
H782   H     0.07395   0.87078   0.52847   0.00000  Uiso   1.00
H783   H     0.49980   0.89848   0.52178   0.00000  Uiso   1.00
H784   H     0.02681   0.91193   0.56609   0.00000  Uiso   1.00
H785   H     0.48917   0.86953   0.56597   0.00000  Uiso   1.00
H786   H     0.37091   0.57375   0.47153   0.00000  Uiso   1.00
H787   H     0.39848   0.99954   0.47820   0.00000  Uiso   1.00
H788   H     0.41199   0.52655   0.43390   0.00000  Uiso   1.00
H789   H     0.36952   0.98898   0.43401   0.00000  Uiso   1.00
H790   H     0.11755   0.94939   0.53133   0.00000  Uiso   1.00
H791   H     0.17658   0.95645   0.37088   0.00000  Uiso   1.00
H792   H     0.16022   0.88279   0.52696   0.00000  Uiso   1.00
H793   H     0.13274   0.89069   0.57221   0.00000  Uiso   1.00
H794   H     0.18804   0.90223   0.56917   0.00000  Uiso   1.00
H795   H     0.05095   0.88231   0.46865   0.00000  Uiso   1.00
H796   H     0.11743   0.83943   0.47319   0.00000  Uiso   1.00
H797   H     0.10974   0.86696   0.42794   0.00000  Uiso   1.00
H798   H     0.09803   0.81169   0.43091   0.00000  Uiso   1.00
H799   H     0.42601   0.62924   0.52846   0.00000  Uiso   1.00
H800   H     0.00014   0.60152   0.52178   0.00000  Uiso   1.00
H801   H     0.47312   0.58807   0.56609   0.00000  Uiso   1.00
H802   H     0.33048   0.51895   0.63281   0.00000  Uiso   1.00
H803   H     0.01079   0.63046   0.56597   0.00000  Uiso   1.00
H804   H     0.12905   0.92632   0.47153   0.00000  Uiso   1.00
H805   H     0.10154   0.50056   0.47817   0.00000  Uiso   1.00
H806   H     0.08802   0.97354   0.43388   0.00000  Uiso   1.00
H807   H     0.13052   0.51108   0.43398   0.00000  Uiso   1.00
H808   H     0.38242   0.55070   0.53133   0.00000  Uiso   1.00
H809   H     0.33969   0.61726   0.52696   0.00000  Uiso   1.00
H810   H     0.36717   0.60938   0.57222   0.00000  Uiso   1.00
H811   H     0.31188   0.59779   0.56918   0.00000  Uiso   1.00
H812   H     0.32257   0.87836   0.97150   0.00000  Uiso   1.00
H813   H     0.48077   0.66958   0.36719   0.00000  Uiso   1.00
H814   H     0.24804   0.85161   0.97805   0.00000  Uiso   1.00
H815   H     0.27500   0.83782   0.93380   0.00000  Uiso   1.00
H816   H     0.23790   0.88070   0.93384   0.00000  Uiso   1.00
H817   H     0.20065   0.63293   0.03128   0.00000  Uiso   1.00
H818   H     0.13362   0.59090   0.02689   0.00000  Uiso   1.00
H819   H     0.14175   0.61840   0.07209   0.00000  Uiso   1.00
H820   H     0.15275   0.56298   0.06917   0.00000  Uiso   1.00
H821   H     0.13296   0.70072   0.96873   0.00000  Uiso   1.00
H822   H     0.09095   0.63368   0.97307   0.00000  Uiso   1.00
H823   H     0.11845   0.64184   0.92788   0.00000  Uiso   1.00
H824   H     0.04366   0.82338   0.62910   0.00000  Uiso   1.00
H825   H     0.06303   0.65282   0.93079   0.00000  Uiso   1.00
H826   H     0.37834   0.82252   0.02849   0.00000  Uiso   1.00
H827   H     0.35161   0.74799   0.02200   0.00000  Uiso   1.00
H828   H     0.33785   0.77496   0.06626   0.00000  Uiso   1.00
H829   H     0.38074   0.73786   0.06617   0.00000  Uiso   1.00
H830   H     0.17742   0.62163   0.97150   0.00000  Uiso   1.00
H831   H     0.25193   0.64841   0.97806   0.00000  Uiso   1.00
H832   H     0.22498   0.66218   0.93380   0.00000  Uiso   1.00
H833   H     0.26210   0.61931   0.93387   0.00000  Uiso   1.00
H834   H     0.29933   0.86706   0.03128   0.00000  Uiso   1.00
H835   H     0.32343   0.54354   0.37088   0.00000  Uiso   1.00
H836   H     0.36636   0.90908   0.02689   0.00000  Uiso   1.00
H837   H     0.35823   0.88159   0.07210   0.00000  Uiso   1.00
H838   H     0.34724   0.93701   0.06918   0.00000  Uiso   1.00
H839   H     0.36704   0.79926   0.96873   0.00000  Uiso   1.00
H840   H     0.40905   0.86631   0.97309   0.00000  Uiso   1.00
H841   H     0.38154   0.85815   0.92789   0.00000  Uiso   1.00
H842   H     0.43697   0.84717   0.93080   0.00000  Uiso   1.00
H843   H     0.12165   0.67746   0.02849   0.00000  Uiso   1.00
H844   H     0.14840   0.75198   0.02199   0.00000  Uiso   1.00
H845   H     0.16215   0.72502   0.06625   0.00000  Uiso   1.00
H846   H     0.16952   0.98104   0.63280   0.00000  Uiso   1.00
H847   H     0.11927   0.76213   0.06617   0.00000  Uiso   1.00
H848   H     0.20687   0.57360   0.87079   0.00000  Uiso   1.00
N849   N     0.44552   0.64784   0.45812   0.00000  Uiso   1.00
N850   N     0.19679   0.60285   0.04185   0.00000  Uiso   1.00
N851   N     0.10288   0.69685   0.95815   0.00000  Uiso   1.00
N852   N     0.39307   0.79620   0.03941   0.00000  Uiso   1.00
N853   N     0.20376   0.60692   0.96059   0.00000  Uiso   1.00
N854   N     0.30320   0.89715   0.04185   0.00000  Uiso   1.00
N855   N     0.39712   0.80314   0.95815   0.00000  Uiso   1.00
N856   N     0.10693   0.70378   0.03941   0.00000  Uiso   1.00
N857   N     0.04742   0.85641   0.53936   0.00000  Uiso   1.00
N858   N     0.35649   0.54724   0.46064   0.00000  Uiso   1.00
N859   N     0.14767   0.94584   0.54188   0.00000  Uiso   1.00
N860   N     0.05446   0.85217   0.45812   0.00000  Uiso   1.00
N861   N     0.45254   0.64361   0.53936   0.00000  Uiso   1.00
N862   N     0.14349   0.95282   0.46063   0.00000  Uiso   1.00
N863   N     0.35229   0.55422   0.54189   0.00000  Uiso   1.00
N864   N     0.29623   0.89308   0.96059   0.00000  Uiso   1.00
O865   O     0.25000   0.50000   0.25000   0.00000  Uiso   1.00
O866   O     0.25000   0.96539   0.66251   0.00000  Uiso   1.00
O867   O     0.46539   0.75000   0.33749   0.00000  Uiso   1.00
O868   O     0.03462   0.75000   0.66251   0.00000  Uiso   1.00
O869   O     0.00000   0.71539   0.83749   0.00000  Uiso   1.00
O870   O     0.00000   0.78462   0.16251   0.00000  Uiso   1.00
O871   O     0.28462   0.50000   0.83749   0.00000  Uiso   1.00
O872   O     0.21539   0.50000   0.16251   0.00000  Uiso   1.00
O873   O     0.00000   0.78461   0.83749   0.00000  Uiso   1.00
O874   O     0.00000   0.71539   0.16251   0.00000  Uiso   1.00
O875   O     0.21539   0.50000   0.83749   0.00000  Uiso   1.00
O876   O     0.25000   0.50000   0.75000   0.00000  Uiso   1.00
O877   O     0.28462   0.50000   0.16251   0.00000  Uiso   1.00
O878   O     0.20127   0.58332   0.27298   0.00000  Uiso   1.00
O879   O     0.29874   0.91668   0.72702   0.00000  Uiso   1.00
O880   O     0.41668   0.70126   0.27298   0.00000  Uiso   1.00
O881   O     0.08332   0.79874   0.72702   0.00000  Uiso   1.00
O882   O     0.29874   0.91668   0.27298   0.00000  Uiso   1.00
O883   O     0.20127   0.58332   0.72702   0.00000  Uiso   1.00
O884   O     0.08332   0.79874   0.27298   0.00000  Uiso   1.00
O885   O     0.41668   0.70126   0.72702   0.00000  Uiso   1.00
O886   O     0.20127   0.91668   0.72702   0.00000  Uiso   1.00
O887   O     0.00000   0.75000   0.25000   0.00000  Uiso   1.00
O888   O     0.29874   0.58332   0.27298   0.00000  Uiso   1.00
O889   O     0.41668   0.79873   0.72702   0.00000  Uiso   1.00
O890   O     0.08332   0.70127   0.27298   0.00000  Uiso   1.00
O891   O     0.29874   0.58332   0.72702   0.00000  Uiso   1.00
O892   O     0.20127   0.91668   0.27298   0.00000  Uiso   1.00
O893   O     0.08332   0.70127   0.72702   0.00000  Uiso   1.00
O894   O     0.41668   0.79873   0.27298   0.00000  Uiso   1.00
O895   O     0.45127   0.83332   0.77298   0.00000  Uiso   1.00
O896   O     0.04874   0.66668   0.22702   0.00000  Uiso   1.00
O897   O     0.16668   0.95127   0.77298   0.00000  Uiso   1.00
O898   O     0.00000   0.75000   0.75000   0.00000  Uiso   1.00
O899   O     0.33332   0.54873   0.22702   0.00000  Uiso   1.00
O900   O     0.04874   0.66668   0.77298   0.00000  Uiso   1.00
O901   O     0.45127   0.83332   0.22702   0.00000  Uiso   1.00
O902   O     0.33332   0.54873   0.77298   0.00000  Uiso   1.00
O903   O     0.16668   0.95127   0.22702   0.00000  Uiso   1.00
O904   O     0.45127   0.66668   0.22702   0.00000  Uiso   1.00
O905   O     0.04874   0.83332   0.77298   0.00000  Uiso   1.00
O906   O     0.16668   0.54873   0.22702   0.00000  Uiso   1.00
O907   O     0.33332   0.95127   0.77298   0.00000  Uiso   1.00
O908   O     0.04874   0.83332   0.22702   0.00000  Uiso   1.00
O909   O     0.25000   0.96539   0.33749   0.00000  Uiso   1.00
O910   O     0.45127   0.66668   0.77298   0.00000  Uiso   1.00
O911   O     0.33332   0.95127   0.22702   0.00000  Uiso   1.00
O912   O     0.16668   0.54873   0.77298   0.00000  Uiso   1.00
O913   O     0.48727   0.85849   0.40927   0.00000  Uiso   1.00
O914   O     0.40937   0.69035   0.59314   0.00000  Uiso   1.00
O915   O     0.19015   0.90949   0.40690   0.00000  Uiso   1.00
O916   O     0.35846   0.98697   0.59069   0.00000  Uiso   1.00
O917   O     0.01272   0.64151   0.40928   0.00000  Uiso   1.00
O918   O     0.09062   0.80966   0.59312   0.00000  Uiso   1.00
O919   O     0.30983   0.59051   0.40688   0.00000  Uiso   1.00
O920   O     0.25000   0.53461   0.66251   0.00000  Uiso   1.00
O921   O     0.14155   0.51308   0.59071   0.00000  Uiso   1.00
O922   O     0.15994   0.56057   0.90699   0.00000  Uiso   1.00
O923   O     0.23598   0.89167   0.09073   0.00000  Uiso   1.00
O924   O     0.39168   0.73591   0.90927   0.00000  Uiso   1.00
O925   O     0.06059   0.65994   0.09300   0.00000  Uiso   1.00
O926   O     0.34006   0.93942   0.90700   0.00000  Uiso   1.00
O927   O     0.26401   0.60833   0.09073   0.00000  Uiso   1.00
O928   O     0.10832   0.76409   0.90927   0.00000  Uiso   1.00
O929   O     0.43941   0.84005   0.09300   0.00000  Uiso   1.00
O930   O     0.03462   0.75000   0.33749   0.00000  Uiso   1.00
O931   O     0.46539   0.75000   0.66251   0.00000  Uiso   1.00
O932   O     0.25000   0.53461   0.33749   0.00000  Uiso   1.00
Zn933  Zn    0.20053   0.50000   0.21730   0.00000  Uiso   1.00
Zn934  Zn    0.04948   0.75000   0.28270   0.00000  Uiso   1.00
Zn935  Zn    0.25000   0.95053   0.71730   0.00000  Uiso   1.00
Zn936  Zn    0.25000   0.54947   0.28270   0.00000  Uiso   1.00
Zn937  Zn    0.04948   0.75000   0.71730   0.00000  Uiso   1.00
Zn938  Zn    0.45053   0.75000   0.28270   0.00000  Uiso   1.00
Zn939  Zn    0.25000   0.54947   0.71730   0.00000  Uiso   1.00
Zn940  Zn    0.25000   0.95053   0.28270   0.00000  Uiso   1.00
Zn941  Zn    0.29948   0.50000   0.78270   0.00000  Uiso   1.00
Zn942  Zn    0.00000   0.70053   0.21730   0.00000  Uiso   1.00
Zn943  Zn    0.00000   0.79948   0.78270   0.00000  Uiso   1.00
Zn944  Zn    0.29948   0.50000   0.21730   0.00000  Uiso   1.00
Zn945  Zn    0.20053   0.50000   0.78270   0.00000  Uiso   1.00
Zn946  Zn    0.00000   0.79948   0.21730   0.00000  Uiso   1.00
Zn947  Zn    0.00000   0.70053   0.78270   0.00000  Uiso   1.00
Zn948  Zn    0.45053   0.75000   0.71730   0.00000  Uiso   1.00
C949   C     0.75000   0.50000   0.35599   0.00000  Uiso   1.00
C950   C     0.83001   0.91998   0.75001   0.00000  Uiso   1.00
C951   C     0.93019   0.78323   0.01950   0.00000  Uiso   1.00
C952   C     0.71674   0.56981   0.98050   0.00000  Uiso   1.00
C953   C     0.78226   0.92995   0.02120   0.00000  Uiso   1.00
C954   C     0.92993   0.78222   0.97880   0.00000  Uiso   1.00
C955   C     0.56981   0.71676   0.01950   0.00000  Uiso   1.00
C956   C     0.50579   0.82807   0.39596   0.00000  Uiso   1.00
C957   C     0.94616   0.69292   0.60314   0.00000  Uiso   1.00
C958   C     0.69283   0.94626   0.39687   0.00000  Uiso   1.00
C959   C     0.82809   0.50554   0.60402   0.00000  Uiso   1.00
C960   C     0.99421   0.67193   0.39597   0.00000  Uiso   1.00
C961   C     0.91999   0.66998   0.25001   0.00000  Uiso   1.00
C962   C     0.55384   0.80708   0.60313   0.00000  Uiso   1.00
C963   C     0.80717   0.55374   0.39686   0.00000  Uiso   1.00
C964   C     0.67191   0.99447   0.60403   0.00000  Uiso   1.00
C965   C     0.69664   0.55754   0.89686   0.00000  Uiso   1.00
C966   C     0.75487   0.92187   0.10402   0.00000  Uiso   1.00
C967   C     0.92187   0.75482   0.89598   0.00000  Uiso   1.00
C968   C     0.55754   0.69665   0.10314   0.00000  Uiso   1.00
C969   C     0.80336   0.94246   0.89686   0.00000  Uiso   1.00
C970   C     0.74512   0.57813   0.10402   0.00000  Uiso   1.00
C971   C     0.57813   0.74518   0.89598   0.00000  Uiso   1.00
C972   C     0.58001   0.83002   0.74999   0.00000  Uiso   1.00
C973   C     0.94246   0.80335   0.10314   0.00000  Uiso   1.00
C974   C     0.90283   0.65812   0.44708   0.00000  Uiso   1.00
C975   C     0.51394   0.88554   0.54868   0.00000  Uiso   1.00
C976   C     0.88557   0.51371   0.45131   0.00000  Uiso   1.00
C977   C     0.65782   0.90314   0.55300   0.00000  Uiso   1.00
C978   C     0.59716   0.84191   0.44710   0.00000  Uiso   1.00
C979   C     0.98601   0.61446   0.54867   0.00000  Uiso   1.00
C980   C     0.61444   0.98636   0.45129   0.00000  Uiso   1.00
C981   C     0.84210   0.59691   0.55301   0.00000  Uiso   1.00
C982   C     0.76241   0.86438   0.95119   0.00000  Uiso   1.00
C983   C     0.83001   0.91998   0.24999   0.00000  Uiso   1.00
C984   C     0.65397   0.59315   0.05295   0.00000  Uiso   1.00
C985   C     0.59320   0.65405   0.94703   0.00000  Uiso   1.00
C986   C     0.86439   0.76237   0.04884   0.00000  Uiso   1.00
C987   C     0.73757   0.63563   0.95120   0.00000  Uiso   1.00
C988   C     0.84601   0.90684   0.05295   0.00000  Uiso   1.00
C989   C     0.90680   0.84595   0.94703   0.00000  Uiso   1.00
C990   C     0.63562   0.73761   0.04884   0.00000  Uiso   1.00
C991   C     0.66999   0.58002   0.75001   0.00000  Uiso   1.00
C992   C     0.58001   0.83002   0.25001   0.00000  Uiso   1.00
C993   C     0.91999   0.66998   0.74999   0.00000  Uiso   1.00
C994   C     0.66998   0.91999   0.74999   0.00000  Uiso   1.00
C995   C     0.83002   0.58001   0.25001   0.00000  Uiso   1.00
C996   C     0.91998   0.83001   0.75001   0.00000  Uiso   1.00
C997   C     0.75000   0.50000   0.64429   0.00000  Uiso   1.00
C998   C     0.58002   0.66999   0.24999   0.00000  Uiso   1.00
C999   C     0.83002   0.58001   0.74999   0.00000  Uiso   1.00
C1000  C     0.66998   0.91999   0.25001   0.00000  Uiso   1.00
C1001  C     0.58002   0.66999   0.75001   0.00000  Uiso   1.00
C1002  C     0.91998   0.83001   0.24999   0.00000  Uiso   1.00
C1003  C     0.63833   0.88834   0.25002   0.00000  Uiso   1.00
C1004  C     0.86168   0.61166   0.74998   0.00000  Uiso   1.00
C1005  C     0.61167   0.63834   0.24998   0.00000  Uiso   1.00
C1006  C     0.88832   0.86166   0.75002   0.00000  Uiso   1.00
C1007  C     0.86167   0.61166   0.25002   0.00000  Uiso   1.00
C1008  C     0.50000   0.75000   0.35570   0.00000  Uiso   1.00
C1009  C     0.63832   0.88834   0.74998   0.00000  Uiso   1.00
C1010  C     0.88833   0.86166   0.24998   0.00000  Uiso   1.00
C1011  C     0.61168   0.63834   0.75002   0.00000  Uiso   1.00
C1012  C     0.63834   0.61167   0.75002   0.00000  Uiso   1.00
C1013  C     0.86166   0.88832   0.24998   0.00000  Uiso   1.00
C1014  C     0.61166   0.86167   0.74998   0.00000  Uiso   1.00
C1015  C     0.88834   0.63832   0.25002   0.00000  Uiso   1.00
C1016  C     0.86166   0.88833   0.75002   0.00000  Uiso   1.00
C1017  C     0.63834   0.61168   0.24998   0.00000  Uiso   1.00
C1018  C     0.88834   0.63833   0.74998   0.00000  Uiso   1.00
C1019  C     0.50000   0.75000   0.64401   0.00000  Uiso   1.00
C1020  C     0.61166   0.86168   0.25002   0.00000  Uiso   1.00
C1021  C     0.50762   0.78766   0.41784   0.00000  Uiso   1.00
C1022  C     0.97618   0.71971   0.58112   0.00000  Uiso   1.00
C1023  C     0.71967   0.97625   0.41888   0.00000  Uiso   1.00
C1024  C     0.78768   0.50751   0.58216   0.00000  Uiso   1.00
C1025  C     0.99238   0.71234   0.41784   0.00000  Uiso   1.00
C1026  C     0.52381   0.78029   0.58111   0.00000  Uiso   1.00
C1027  C     0.78033   0.52376   0.41888   0.00000  Uiso   1.00
C1028  C     0.71232   0.99250   0.58216   0.00000  Uiso   1.00
C1029  C     0.72647   0.53051   0.91887   0.00000  Uiso   1.00
C1030  C     0.50000   0.75000   0.85571   0.00000  Uiso   1.00
C1031  C     0.75717   0.96225   0.08215   0.00000  Uiso   1.00
C1032  C     0.96225   0.75715   0.91785   0.00000  Uiso   1.00
C1033  C     0.53051   0.72648   0.08113   0.00000  Uiso   1.00
C1034  C     0.77353   0.96949   0.91887   0.00000  Uiso   1.00
C1035  C     0.74282   0.53775   0.08215   0.00000  Uiso   1.00
C1036  C     0.53775   0.74285   0.91785   0.00000  Uiso   1.00
C1037  C     0.96949   0.77352   0.08113   0.00000  Uiso   1.00
C1038  C     0.50000   0.75000   0.39784   0.00000  Uiso   1.00
C1039  C     0.50000   0.75000   0.60137   0.00000  Uiso   1.00
C1040  C     0.75000   0.50000   0.39863   0.00000  Uiso   1.00
C1041  C     0.50000   0.75000   0.14402   0.00000  Uiso   1.00
C1042  C     0.75000   0.50000   0.60215   0.00000  Uiso   1.00
C1043  C     0.75000   0.50000   0.89862   0.00000  Uiso   1.00
C1044  C     0.75000   0.50000   0.10214   0.00000  Uiso   1.00
C1045  C     0.50000   0.75000   0.89786   0.00000  Uiso   1.00
C1046  C     0.50000   0.75000   0.10138   0.00000  Uiso   1.00
C1047  C     0.98624   0.71383   0.45844   0.00000  Uiso   1.00
C1048  C     0.51935   0.78369   0.54034   0.00000  Uiso   1.00
C1049  C     0.78373   0.51929   0.45966   0.00000  Uiso   1.00
C1050  C     0.71379   0.98636   0.54155   0.00000  Uiso   1.00
C1051  C     0.51375   0.78617   0.45844   0.00000  Uiso   1.00
C1052  C     0.75000   0.50000   0.85598   0.00000  Uiso   1.00
C1053  C     0.98064   0.71631   0.54034   0.00000  Uiso   1.00
C1054  C     0.71626   0.98072   0.45966   0.00000  Uiso   1.00
C1055  C     0.78620   0.51366   0.54155   0.00000  Uiso   1.00
C1056  C     0.76900   0.96611   0.95964   0.00000  Uiso   1.00
C1057  C     0.73667   0.53633   0.04154   0.00000  Uiso   1.00
C1058  C     0.53634   0.73669   0.95846   0.00000  Uiso   1.00
C1059  C     0.96611   0.76899   0.04036   0.00000  Uiso   1.00
C1060  C     0.73100   0.53389   0.95964   0.00000  Uiso   1.00
C1061  C     0.76333   0.96367   0.04154   0.00000  Uiso   1.00
C1062  C     0.96366   0.76330   0.95846   0.00000  Uiso   1.00
C1063  C     0.75000   0.50000   0.14429   0.00000  Uiso   1.00
C1064  C     0.53390   0.73100   0.04036   0.00000  Uiso   1.00
C1065  C     0.99999   0.75000   0.47899   0.00000  Uiso   1.00
C1066  C     0.99999   0.75000   0.51990   0.00000  Uiso   1.00
C1067  C     0.75000   0.50001   0.48009   0.00000  Uiso   1.00
C1068  C     0.75000   0.50001   0.52101   0.00000  Uiso   1.00
C1069  C     0.75000   0.50000   0.98008   0.00000  Uiso   1.00
C1070  C     0.75000   0.50000   0.02100   0.00000  Uiso   1.00
C1071  C     0.50000   0.75000   0.97900   0.00000  Uiso   1.00
C1072  C     0.50000   0.75000   0.01992   0.00000  Uiso   1.00
C1073  C     0.96691   0.68034   0.47877   0.00000  Uiso   1.00
C1074  C     0.66999   0.58002   0.24999   0.00000  Uiso   1.00
C1075  C     0.53402   0.81943   0.51948   0.00000  Uiso   1.00
C1076  C     0.81950   0.53389   0.48052   0.00000  Uiso   1.00
C1077  C     0.68025   0.96711   0.52122   0.00000  Uiso   1.00
C1078  C     0.53307   0.81967   0.47878   0.00000  Uiso   1.00
C1079  C     0.96596   0.68058   0.51947   0.00000  Uiso   1.00
C1080  C     0.68049   0.96614   0.48052   0.00000  Uiso   1.00
C1081  C     0.81974   0.53292   0.52122   0.00000  Uiso   1.00
C1082  C     0.78325   0.93020   0.98050   0.00000  Uiso   1.00
C1083  C     0.71773   0.57005   0.02120   0.00000  Uiso   1.00
C1084  C     0.57007   0.71778   0.97880   0.00000  Uiso   1.00
H1085  H     0.51925   0.83042   0.36719   0.00000  Uiso   1.00
H1086  H     0.76831   0.91937   0.13279   0.00000  Uiso   1.00
H1087  H     0.91936   0.76826   0.86721   0.00000  Uiso   1.00
H1088  H     0.57360   0.70688   0.12921   0.00000  Uiso   1.00
H1089  H     0.79312   0.92641   0.87079   0.00000  Uiso   1.00
H1090  H     0.73169   0.58063   0.13279   0.00000  Uiso   1.00
H1091  H     0.58064   0.73175   0.86721   0.00000  Uiso   1.00
H1092  H     0.92641   0.79312   0.12921   0.00000  Uiso   1.00
H1093  H     0.94901   0.61770   0.46865   0.00000  Uiso   1.00
H1094  H     0.88254   0.66059   0.47316   0.00000  Uiso   1.00
H1095  H     0.89025   0.63307   0.42791   0.00000  Uiso   1.00
H1096  H     0.95634   0.67661   0.62910   0.00000  Uiso   1.00
H1097  H     0.90198   0.68834   0.43090   0.00000  Uiso   1.00
H1098  H     0.57395   0.87078   0.52847   0.00000  Uiso   1.00
H1099  H     0.99980   0.89848   0.52178   0.00000  Uiso   1.00
H1100  H     0.52681   0.91193   0.56609   0.00000  Uiso   1.00
H1101  H     0.98917   0.86953   0.56597   0.00000  Uiso   1.00
H1102  H     0.87091   0.57375   0.47153   0.00000  Uiso   1.00
H1103  H     0.89848   0.99954   0.47820   0.00000  Uiso   1.00
H1104  H     0.91199   0.52655   0.43390   0.00000  Uiso   1.00
H1105  H     0.86952   0.98898   0.43401   0.00000  Uiso   1.00
H1106  H     0.61755   0.94939   0.53133   0.00000  Uiso   1.00
H1107  H     0.67658   0.95645   0.37088   0.00000  Uiso   1.00
H1108  H     0.66022   0.88279   0.52696   0.00000  Uiso   1.00
H1109  H     0.63274   0.89069   0.57221   0.00000  Uiso   1.00
H1110  H     0.68804   0.90223   0.56917   0.00000  Uiso   1.00
H1111  H     0.55095   0.88231   0.46865   0.00000  Uiso   1.00
H1112  H     0.61743   0.83943   0.47319   0.00000  Uiso   1.00
H1113  H     0.60974   0.86696   0.42794   0.00000  Uiso   1.00
H1114  H     0.59803   0.81169   0.43091   0.00000  Uiso   1.00
H1115  H     0.92601   0.62924   0.52846   0.00000  Uiso   1.00
H1116  H     0.50014   0.60152   0.52178   0.00000  Uiso   1.00
H1117  H     0.97312   0.58807   0.56609   0.00000  Uiso   1.00
H1118  H     0.83048   0.51895   0.63281   0.00000  Uiso   1.00
H1119  H     0.51079   0.63046   0.56597   0.00000  Uiso   1.00
H1120  H     0.62905   0.92632   0.47153   0.00000  Uiso   1.00
H1121  H     0.60154   0.50056   0.47817   0.00000  Uiso   1.00
H1122  H     0.58802   0.97354   0.43388   0.00000  Uiso   1.00
H1123  H     0.63052   0.51108   0.43398   0.00000  Uiso   1.00
H1124  H     0.88242   0.55070   0.53133   0.00000  Uiso   1.00
H1125  H     0.83969   0.61726   0.52696   0.00000  Uiso   1.00
H1126  H     0.86717   0.60938   0.57222   0.00000  Uiso   1.00
H1127  H     0.81188   0.59779   0.56918   0.00000  Uiso   1.00
H1128  H     0.82257   0.87836   0.97150   0.00000  Uiso   1.00
H1129  H     0.98077   0.66958   0.36719   0.00000  Uiso   1.00
H1130  H     0.74804   0.85161   0.97805   0.00000  Uiso   1.00
H1131  H     0.77500   0.83782   0.93380   0.00000  Uiso   1.00
H1132  H     0.73790   0.88070   0.93384   0.00000  Uiso   1.00
H1133  H     0.70065   0.63293   0.03128   0.00000  Uiso   1.00
H1134  H     0.63362   0.59090   0.02689   0.00000  Uiso   1.00
H1135  H     0.64175   0.61840   0.07209   0.00000  Uiso   1.00
H1136  H     0.65275   0.56298   0.06917   0.00000  Uiso   1.00
H1137  H     0.63296   0.70072   0.96873   0.00000  Uiso   1.00
H1138  H     0.59095   0.63368   0.97307   0.00000  Uiso   1.00
H1139  H     0.61845   0.64184   0.92788   0.00000  Uiso   1.00
H1140  H     0.54366   0.82338   0.62910   0.00000  Uiso   1.00
H1141  H     0.56303   0.65282   0.93079   0.00000  Uiso   1.00
H1142  H     0.87834   0.82252   0.02849   0.00000  Uiso   1.00
H1143  H     0.85161   0.74799   0.02200   0.00000  Uiso   1.00
H1144  H     0.83785   0.77496   0.06626   0.00000  Uiso   1.00
H1145  H     0.88074   0.73786   0.06617   0.00000  Uiso   1.00
H1146  H     0.67742   0.62163   0.97150   0.00000  Uiso   1.00
H1147  H     0.75193   0.64841   0.97806   0.00000  Uiso   1.00
H1148  H     0.72498   0.66218   0.93380   0.00000  Uiso   1.00
H1149  H     0.76210   0.61931   0.93387   0.00000  Uiso   1.00
H1150  H     0.79933   0.86706   0.03128   0.00000  Uiso   1.00
H1151  H     0.82343   0.54354   0.37088   0.00000  Uiso   1.00
H1152  H     0.86636   0.90908   0.02689   0.00000  Uiso   1.00
H1153  H     0.85823   0.88159   0.07210   0.00000  Uiso   1.00
H1154  H     0.84724   0.93701   0.06918   0.00000  Uiso   1.00
H1155  H     0.86704   0.79926   0.96873   0.00000  Uiso   1.00
H1156  H     0.90905   0.86631   0.97309   0.00000  Uiso   1.00
H1157  H     0.88154   0.85815   0.92789   0.00000  Uiso   1.00
H1158  H     0.93697   0.84717   0.93080   0.00000  Uiso   1.00
H1159  H     0.62165   0.67746   0.02849   0.00000  Uiso   1.00
H1160  H     0.64840   0.75198   0.02199   0.00000  Uiso   1.00
H1161  H     0.66215   0.72502   0.06625   0.00000  Uiso   1.00
H1162  H     0.66952   0.98104   0.63280   0.00000  Uiso   1.00
H1163  H     0.61927   0.76213   0.06617   0.00000  Uiso   1.00
H1164  H     0.70687   0.57360   0.87079   0.00000  Uiso   1.00
N1165  N     0.94552   0.64784   0.45812   0.00000  Uiso   1.00
N1166  N     0.69679   0.60285   0.04185   0.00000  Uiso   1.00
N1167  N     0.60288   0.69685   0.95815   0.00000  Uiso   1.00
N1168  N     0.89307   0.79620   0.03941   0.00000  Uiso   1.00
N1169  N     0.70376   0.60692   0.96059   0.00000  Uiso   1.00
N1170  N     0.80320   0.89715   0.04185   0.00000  Uiso   1.00
N1171  N     0.89712   0.80314   0.95815   0.00000  Uiso   1.00
N1172  N     0.60693   0.70378   0.03941   0.00000  Uiso   1.00
N1173  N     0.54742   0.85641   0.53936   0.00000  Uiso   1.00
N1174  N     0.85649   0.54724   0.46064   0.00000  Uiso   1.00
N1175  N     0.64767   0.94584   0.54188   0.00000  Uiso   1.00
N1176  N     0.55446   0.85217   0.45812   0.00000  Uiso   1.00
N1177  N     0.95254   0.64361   0.53936   0.00000  Uiso   1.00
N1178  N     0.64349   0.95282   0.46063   0.00000  Uiso   1.00
N1179  N     0.85229   0.55422   0.54189   0.00000  Uiso   1.00
N1180  N     0.79623   0.89308   0.96059   0.00000  Uiso   1.00
O1181  O     0.75000   0.50000   0.25000   0.00000  Uiso   1.00
O1182  O     0.75000   0.96539   0.66251   0.00000  Uiso   1.00
O1183  O     0.96539   0.75000   0.33749   0.00000  Uiso   1.00
O1184  O     0.53462   0.75000   0.66251   0.00000  Uiso   1.00
O1185  O     0.50000   0.71539   0.83749   0.00000  Uiso   1.00
O1186  O     0.50000   0.78462   0.16251   0.00000  Uiso   1.00
O1187  O     0.78462   0.50000   0.83749   0.00000  Uiso   1.00
O1188  O     0.71539   0.50000   0.16251   0.00000  Uiso   1.00
O1189  O     0.50000   0.78461   0.83749   0.00000  Uiso   1.00
O1190  O     0.50000   0.71539   0.16251   0.00000  Uiso   1.00
O1191  O     0.71539   0.50000   0.83749   0.00000  Uiso   1.00
O1192  O     0.75000   0.50000   0.75000   0.00000  Uiso   1.00
O1193  O     0.78462   0.50000   0.16251   0.00000  Uiso   1.00
O1194  O     0.70127   0.58332   0.27298   0.00000  Uiso   1.00
O1195  O     0.79874   0.91668   0.72702   0.00000  Uiso   1.00
O1196  O     0.91668   0.70126   0.27298   0.00000  Uiso   1.00
O1197  O     0.58332   0.79874   0.72702   0.00000  Uiso   1.00
O1198  O     0.79874   0.91668   0.27298   0.00000  Uiso   1.00
O1199  O     0.70127   0.58332   0.72702   0.00000  Uiso   1.00
O1200  O     0.58332   0.79874   0.27298   0.00000  Uiso   1.00
O1201  O     0.91668   0.70126   0.72702   0.00000  Uiso   1.00
O1202  O     0.70127   0.91668   0.72702   0.00000  Uiso   1.00
O1203  O     0.50000   0.75000   0.25000   0.00000  Uiso   1.00
O1204  O     0.79874   0.58332   0.27298   0.00000  Uiso   1.00
O1205  O     0.91668   0.79873   0.72702   0.00000  Uiso   1.00
O1206  O     0.58332   0.70127   0.27298   0.00000  Uiso   1.00
O1207  O     0.79874   0.58332   0.72702   0.00000  Uiso   1.00
O1208  O     0.70127   0.91668   0.27298   0.00000  Uiso   1.00
O1209  O     0.58332   0.70127   0.72702   0.00000  Uiso   1.00
O1210  O     0.91668   0.79873   0.27298   0.00000  Uiso   1.00
O1211  O     0.95127   0.83332   0.77298   0.00000  Uiso   1.00
O1212  O     0.54874   0.66668   0.22702   0.00000  Uiso   1.00
O1213  O     0.66668   0.95127   0.77298   0.00000  Uiso   1.00
O1214  O     0.50000   0.75000   0.75000   0.00000  Uiso   1.00
O1215  O     0.83332   0.54873   0.22702   0.00000  Uiso   1.00
O1216  O     0.54874   0.66668   0.77298   0.00000  Uiso   1.00
O1217  O     0.95127   0.83332   0.22702   0.00000  Uiso   1.00
O1218  O     0.83332   0.54873   0.77298   0.00000  Uiso   1.00
O1219  O     0.66668   0.95127   0.22702   0.00000  Uiso   1.00
O1220  O     0.95127   0.66668   0.22702   0.00000  Uiso   1.00
O1221  O     0.54874   0.83332   0.77298   0.00000  Uiso   1.00
O1222  O     0.66668   0.54873   0.22702   0.00000  Uiso   1.00
O1223  O     0.83332   0.95127   0.77298   0.00000  Uiso   1.00
O1224  O     0.54874   0.83332   0.22702   0.00000  Uiso   1.00
O1225  O     0.75000   0.96539   0.33749   0.00000  Uiso   1.00
O1226  O     0.95127   0.66668   0.77298   0.00000  Uiso   1.00
O1227  O     0.83332   0.95127   0.22702   0.00000  Uiso   1.00
O1228  O     0.66668   0.54873   0.77298   0.00000  Uiso   1.00
O1229  O     0.98727   0.85849   0.40927   0.00000  Uiso   1.00
O1230  O     0.90937   0.69035   0.59314   0.00000  Uiso   1.00
O1231  O     0.69015   0.90949   0.40690   0.00000  Uiso   1.00
O1232  O     0.85846   0.98697   0.59069   0.00000  Uiso   1.00
O1233  O     0.51272   0.64151   0.40928   0.00000  Uiso   1.00
O1234  O     0.59062   0.80966   0.59312   0.00000  Uiso   1.00
O1235  O     0.80983   0.59051   0.40688   0.00000  Uiso   1.00
O1236  O     0.75000   0.53461   0.66251   0.00000  Uiso   1.00
O1237  O     0.64155   0.51308   0.59071   0.00000  Uiso   1.00
O1238  O     0.65994   0.56057   0.90699   0.00000  Uiso   1.00
O1239  O     0.73598   0.89167   0.09073   0.00000  Uiso   1.00
O1240  O     0.89168   0.73591   0.90927   0.00000  Uiso   1.00
O1241  O     0.56059   0.65994   0.09300   0.00000  Uiso   1.00
O1242  O     0.84006   0.93942   0.90700   0.00000  Uiso   1.00
O1243  O     0.76401   0.60833   0.09073   0.00000  Uiso   1.00
O1244  O     0.60832   0.76409   0.90927   0.00000  Uiso   1.00
O1245  O     0.93941   0.84005   0.09300   0.00000  Uiso   1.00
O1246  O     0.53462   0.75000   0.33749   0.00000  Uiso   1.00
O1247  O     0.96539   0.75000   0.66251   0.00000  Uiso   1.00
O1248  O     0.75000   0.53461   0.33749   0.00000  Uiso   1.00
Zn1249 Zn    0.70053   0.50000   0.21730   0.00000  Uiso   1.00
Zn1250 Zn    0.54948   0.75000   0.28270   0.00000  Uiso   1.00
Zn1251 Zn    0.75000   0.95053   0.71730   0.00000  Uiso   1.00
Zn1252 Zn    0.75000   0.54947   0.28270   0.00000  Uiso   1.00
Zn1253 Zn    0.54948   0.75000   0.71730   0.00000  Uiso   1.00
Zn1254 Zn    0.95053   0.75000   0.28270   0.00000  Uiso   1.00
Zn1255 Zn    0.75000   0.54947   0.71730   0.00000  Uiso   1.00
Zn1256 Zn    0.75000   0.95053   0.28270   0.00000  Uiso   1.00
Zn1257 Zn    0.79948   0.50000   0.78270   0.00000  Uiso   1.00
Zn1258 Zn    0.50000   0.70053   0.21730   0.00000  Uiso   1.00
Zn1259 Zn    0.50000   0.79948   0.78270   0.00000  Uiso   1.00
Zn1260 Zn    0.79948   0.50000   0.21730   0.00000  Uiso   1.00
Zn1261 Zn    0.70053   0.50000   0.78270   0.00000  Uiso   1.00
Zn1262 Zn    0.50000   0.79948   0.21730   0.00000  Uiso   1.00
Zn1263 Zn    0.50000   0.70053   0.78270   0.00000  Uiso   1.00
Zn1264 Zn    0.95053   0.75000   0.71730   0.00000  Uiso   1.00
loop_
_geom_bond_atom_site_label_1
_geom_bond_atom_site_label_2
_geom_bond_distance
_geom_bond_site_symmetry_2
_ccdc_geom_bond_type
C1     O300    1.272   .     A
C1     C92     1.474   .     S
C1     O909    1.272   1_545 S
C2     O247    1.276   .     A
C2     C68     1.422   .     S
C2     O275    1.276   .     A
C3     N220    1.426   .     S
C3     C111    1.423   .     A
C3     C6      1.407   1_554 S
C4     N221    1.426   .     S
C4     C112    1.423   .     A
C4     C135    1.407   1_556 S
C5     C113    1.415   .     A
C5     N222    1.427   .     S
C5     C134    1.407   1_554 S
C6     C114    1.415   .     A
C6     N223    1.427   .     S
C6     C3      1.407   1_556 S
C7     C116    1.423   .     A
C7     N224    1.426   .     S
C7     C136    1.407   1_554 S
C8     C73     1.491   .     S
C8     H137    1.085   .     S
C8     O597    1.221   1_455 S
C9     C74     1.488   .     S
C9     H148    1.085   .     S
C9     O282    1.221   .     D
C10    C75     1.488   .     S
C10    O283    1.221   .     D
C10    H159    1.085   .     S
C11    C76     1.491   .     S
C11    H170    1.085   .     S
C11    O916    1.221   1_545 S
C12    H181    1.085   .     S
C12    C77     1.491   .     S
C12    O601    1.221   .     S
C13    O272    1.276   .     A
C13    O248    1.276   .     A
C13    C67     1.422   .     S
C14    H192    1.085   .     S
C14    O286    1.221   .     D
C14    C78     1.488   .     S
C15    O287    1.221   .     D
C15    H203    1.085   .     S
C15    C79     1.488   .     S
C16    C80     1.491   .     S
C16    H214    1.085   .     S
C16    O921    1.221   .     S
C17    O290    1.221   .     D
C17    H216    1.085   .     S
C17    C81     1.488   .     S
C18    H138    1.085   .     S
C18    C83     1.491   .     S
C18    O291    1.221   .     D
C19    O292    1.221   .     D
C19    H139    1.085   .     S
C19    C84     1.491   .     S
C20    O293    1.221   .     D
C20    C85     1.488   .     S
C20    H140    1.085   .     S
C21    C86     1.488   .     S
C21    H141    1.085   .     S
C21    O294    1.221   .     D
C22    O295    1.221   .     D
C22    C87     1.491   .     S
C22    H142    1.085   .     S
C23    H143    1.085   .     S
C23    O296    1.221   .     D
C23    C88     1.491   .     S
C24    O249    1.276   .     A
C24    C66     1.422   .     S
C24    O273    1.276   .     A
C25    H144    1.085   .     S
C25    O297    1.221   .     D
C25    C89     1.488   .     S
C26    H149    1.111   .     S
C26    H146    1.111   .     S
C26    N217    1.446   .     S
C26    H147    1.110   .     S
C27    H152    1.110   .     S
C27    N225    1.446   .     S
C27    H467    1.111   1_455 S
C27    H469    1.111   1_455 S
C28    N226    1.446   .     S
C28    H156    1.110   .     S
C28    H787    1.111   1_545 S
C28    H789    1.111   1_545 S
C29    H161    1.110   .     S
C29    H160    1.111   .     S
C29    H162    1.111   .     S
C29    N227    1.446   .     S
C30    H164    1.111   .     S
C30    N228    1.446   .     S
C30    H165    1.110   .     S
C30    H166    1.111   .     S
C31    N229    1.446   .     S
C31    H169    1.110   .     S
C31    H484    1.111   .     S
C31    H487    1.111   .     S
C32    N230    1.446   .     S
C32    H174    1.110   .     S
C32    H805    1.111   .     S
C32    H807    1.111   .     S
C33    H177    1.111   .     S
C33    N231    1.446   .     S
C33    H179    1.111   .     S
C33    H178    1.110   .     S
C34    H182    1.111   .     S
C34    H183    1.110   .     S
C34    N232    1.446   .     S
C34    H184    1.111   .     S
C35    O250    1.276   .     A
C35    C65     1.422   .     S
C35    O279    1.276   .     A
C36    N218    1.446   .     S
C36    H187    1.110   .     S
C36    H188    1.111   .     S
C36    H186    1.111   .     S
C37    H190    1.111   .     S
C37    N219    1.446   .     S
C37    H193    1.111   .     S
C37    H191    1.110   .     S
C38    H195    1.111   .     S
C38    H196    1.110   .     S
C38    N220    1.446   .     S
C38    H197    1.111   .     S
C39    H200    1.110   .     S
C39    H199    1.111   .     S
C39    H201    1.111   .     S
C39    N221    1.446   .     S
C40    H204    1.111   .     S
C40    H205    1.110   .     S
C40    N222    1.446   .     S
C40    H206    1.111   .     S
C41    H210    1.111   .     S
C41    H208    1.111   .     S
C41    H209    1.110   .     S
C41    N223    1.446   .     S
C42    H215    1.111   .     S
C42    N224    1.446   .     S
C42    H212    1.111   .     S
C42    H213    1.110   .     S
C43    O251    1.276   .     A
C43    C64     1.422   .     S
C43    O280    1.276   .     A
C44    O276    1.276   .     A
C44    C72     1.422   .     S
C44    O252    1.276   .     A
C45    C70     1.422   .     S
C45    O278    1.276   .     A
C45    O253    1.276   .     A
C46    O265    1.276   .     A
C46    C61     1.422   .     S
C46    O254    1.276   .     A
C47    O267    1.276   .     A
C47    O256    1.276   .     A
C47    C59     1.422   .     S
C48    O263    1.276   .     A
C48    O257    1.276   .     A
C48    C58     1.422   .     S
C49    O288    1.267   .     A
C49    C94     1.457   .     S
C49    O866    1.267   1_545 S
C50    C57     1.422   .     S
C50    O258    1.276   .     A
C50    O264    1.276   .     A
C51    O270    1.276   .     A
C51    O259    1.276   .     A
C51    C56     1.422   .     S
C52    O260    1.276   .     A
C52    C55     1.422   .     S
C52    O271    1.276   .     A
C53    O261    1.276   .     A
C53    C63     1.422   .     S
C53    O268    1.276   .     A
C54    O269    1.276   .     A
C54    C62     1.422   .     S
C54    O262    1.276   .     A
C55    C72     1.198   .     T
C56    C70     1.198   .     T
C57    C69     1.198   .     T
C58    C68     1.198   .     T
C59    C67     1.198   .     T
C60    O298    1.267   .     A
C60    C90     1.457   .     S
C60    O551    1.267   1_455 S
C61    C66     1.198   .     T
C62    C65     1.198   .     T
C63    C64     1.198   .     T
C69    C126    1.422   .     S
C71    O615    1.272   1_455 A
C71    C91     1.474   .     S
C71    O236    1.272   .     S
C73    C103    1.418   .     A
C73    C90     1.403   .     S
C74    C105    1.421   .     A
C74    C407    1.410   .     A
C75    C106    1.421   .     A
C75    C724    1.410   .     S
C76    C94     1.403   .     A
C76    C107    1.418   .     A
C77    C99     1.418   .     A
C77    C406    1.403   .     A
C78    C100    1.421   .     A
C78    C91     1.410   .     S
C79    C101    1.421   .     A
C79    C92     1.410   .     A
C80    C102    1.418   .     A
C80    C726    1.403   .     S
C81    C95     1.410   .     A
C81    C112    1.421   .     A
C82    O237    1.267   .     A
C82    C97     1.457   .     S
C82    O241    1.267   .     S
C83    C113    1.418   .     A
C83    C728    1.403   .     S
C84    C114    1.418   .     A
C84    C413    1.403   .     S
C85    C116    1.421   .     A
C85    C98     1.410   .     A
C86    C108    1.421   .     A
C86    C727    1.410   .     S
C87    C109    1.418   .     A
C87    C96     1.403   .     A
C88    C97     1.403   .     A
C88    C110    1.418   .     A
C89    C111    1.421   .     A
C89    C414    1.410   .     S
C90    C393    1.403   1_455 A
C91    C390    1.410   1_455 A
C92    C707    1.410   1_545 S
C93    O242    1.272   .     A
C93    O238    1.272   .     A
C93    C98     1.474   .     S
C94    C712    1.403   1_545 S
C95    C104    1.474   .     S
C95    C718    1.410   1_545 S
C96    C115    1.457   .     S
C96    C715    1.403   1_545 S
C97    C400    1.403   1_455 S
C98    C405    1.410   1_455 S
C99    C117    1.420   .     A
C99    C125    1.415   .     A
C100   C127    1.423   .     A
C100   C434    1.422   1_455 S
C101   C128    1.423   .     A
C101   C119    1.422   .     A
C102   C129    1.415   .     A
C102   C752    1.420   .     S
C103   C130    1.415   .     A
C103   C433    1.420   1_455 S
C104   O243    1.272   .     A
C104   O239    1.272   .     A
C105   C131    1.423   .     A
C105   C118    1.422   .     A
C106   C132    1.423   .     A
C106   C751    1.422   .     S
C107   C120    1.419   .     A
C107   C133    1.415   .     A
C108   C134    1.423   .     A
C108   C753    1.422   .     S
C109   C135    1.415   .     A
C109   C122    1.420   .     A
C110   C123    1.420   .     A
C110   C136    1.415   .     A
C111   C440    1.422   .     S
C112   C121    1.422   .     A
C113   C754    1.420   .     S
C114   C439    1.420   .     S
C115   O245    1.267   .     A
C115   O240    1.267   .     A
C116   C124    1.422   .     A
C117   C118    1.414   .     A
C117   C419    1.420   .     S
C118   C416    1.422   .     S
C119   C120    1.414   .     A
C119   C738    1.422   1_545 S
C120   C734    1.420   1_545 S
C121   C740    1.422   1_545 S
C121   C122    1.414   1_556 S
C122   C745    1.420   1_545 S
C122   C121    1.414   1_554 S
C123   C430    1.420   1_455 S
C123   C124    1.414   1_556 S
C124   C427    1.422   1_455 S
C124   C123    1.414   1_554 S
C125   C131    1.407   .     A
C125   N217    1.427   .     S
C126   O246    1.276   .     A
C126   O274    1.276   .     A
C127   N225    1.426   .     S
C127   C130    1.407   .     A
C128   N226    1.426   .     S
C128   C133    1.407   .     A
C129   C132    1.407   .     A
C129   N227    1.427   .     S
C130   N228    1.427   .     S
C131   N229    1.426   .     S
C132   N230    1.426   .     S
C133   N231    1.427   .     S
C134   N232    1.426   .     S
C134   C5      1.407   1_556 S
C135   N218    1.427   .     S
C135   C4      1.407   1_554 S
C136   N219    1.427   .     S
C136   C7      1.407   1_556 S
H145   N217    1.030   .     S
H150   N225    1.030   .     S
H151   C343    1.111   .     S
H153   C343    1.111   .     S
H154   N226    1.030   .     S
H155   C660    1.111   .     S
H157   C660    1.111   .     S
H158   N227    1.030   .     S
H163   N228    1.030   .     S
H167   N229    1.030   .     S
H168   C347    1.111   1_455 S
H171   C347    1.111   1_455 S
H172   N230    1.030   .     S
H173   C664    1.111   1_545 S
H175   C664    1.111   1_545 S
H176   N231    1.030   .     S
H180   N232    1.030   .     S
H185   N218    1.030   .     S
H189   N219    1.030   .     S
H194   N220    1.030   .     S
H198   N221    1.030   .     S
H202   N222    1.030   .     S
H207   N223    1.030   .     S
H211   N224    1.030   .     S
O233   Zn304   1.936   .     S
O233   Zn312   1.936   .     S
O233   Zn301   1.936   .     S
O233   Zn940   1.936   1_545 S
O234   Zn303   1.952   .     S
O234   C681    1.267   .     S
O235   Zn306   1.952   .     S
O235   C376    1.267   .     S
O236   Zn305   1.952   .     S
O237   Zn315   1.952   .     S
O238   Zn314   1.952   .     S
O239   Zn309   1.952   .     S
O240   Zn301   1.952   .     S
O241   Zn311   1.952   .     S
O242   Zn310   1.952   .     S
O243   Zn313   1.952   .     S
O244   Zn313   1.936   .     S
O244   Zn307   1.936   .     S
O244   Zn309   1.936   .     S
O244   Zn935   1.936   1_545 S
O245   Zn312   1.952   .     S
O246   Zn304   1.914   .     S
O247   Zn303   1.914   .     S
O248   Zn306   1.915   .     S
O249   Zn305   1.915   .     S
O250   Zn308   1.914   .     S
O251   Zn307   1.914   .     S
O252   Zn302   1.915   .     S
O253   Zn316   1.915   .     S
O254   Zn303   1.915   .     S
O255   Zn310   1.936   .     S
O255   Zn314   1.936   .     S
O255   Zn302   1.936   .     S
O255   Zn622   1.936   1_455 S
O256   Zn304   1.915   .     S
O257   Zn316   1.914   .     S
O258   Zn302   1.914   .     S
O259   Zn307   1.915   .     S
O260   Zn308   1.915   .     S
O261   Zn305   1.914   .     S
O262   Zn306   1.914   .     S
O263   Zn627   1.914   .     S
O264   Zn310   1.914   .     S
O265   Zn945   1.915   .     S
O266   Zn315   1.936   .     S
O266   Zn305   1.936   .     S
O266   Zn311   1.936   .     S
O266   Zn632   1.936   1_455 S
O267   Zn312   1.915   .     S
O268   Zn315   1.914   .     S
O269   Zn630   1.914   .     S
O270   Zn309   1.915   .     S
O271   Zn933   1.915   .     S
O272   Zn626   1.915   .     S
O273   Zn311   1.915   .     S
O274   Zn301   1.914   .     S
O275   Zn941   1.914   .     S
O276   Zn314   1.915   .     S
O277   Zn308   1.952   .     S
O277   C633    1.272   .     S
O278   Zn631   1.915   .     S
O279   Zn944   1.914   .     S
O280   Zn313   1.914   .     S
O281   C324    1.221   .     S
O284   C643    1.221   .     S
O285   C328    1.221   1_455 S
O288   Zn307   1.952   .     S
O289   C648    1.221   1_545 S
O298   Zn302   1.952   .     S
O299   C387    1.272   .     A
O299   Zn316   1.952   .     S
O300   Zn304   1.952   .     S
Zn301  O903    1.915   1_545 S
Zn303  O876    1.936   .     S
Zn306  O571    1.936   .     S
Zn308  O865    1.936   .     S
Zn309  O907    1.914   1_545 S
Zn310  O588    1.915   1_455 S
Zn311  O579    1.914   1_455 S
Zn312  O911    1.914   1_545 S
Zn313  O897    1.915   1_545 S
Zn314  O585    1.914   1_455 S
Zn315  O594    1.915   1_455 S
Zn316  O582    1.936   .     S
C317   O616    1.272   .     A
C317   C408    1.474   .     S
C317   O1225   1.272   1_545 S
C318   O563    1.276   .     A
C318   C384    1.422   .     S
C318   O591    1.276   .     A
C319   N536    1.426   .     S
C319   C427    1.423   .     A
C319   C322    1.407   1_554 S
C320   N537    1.426   .     S
C320   C428    1.423   .     A
C320   C451    1.407   1_556 S
C321   C429    1.415   .     A
C321   N538    1.427   .     S
C321   C450    1.407   1_554 S
C322   C430    1.415   .     A
C322   N539    1.427   .     S
C322   C319    1.407   1_556 S
C323   C432    1.423   .     A
C323   N540    1.426   .     S
C323   C452    1.407   1_554 S
C324   C389    1.491   .     S
C324   H453    1.085   .     S
C325   C390    1.488   .     S
C325   H464    1.085   .     S
C325   O598    1.221   .     D
C326   C391    1.488   .     S
C326   O599    1.221   .     D
C326   H475    1.085   .     S
C327   C392    1.491   .     S
C327   H486    1.085   .     S
C327   O1232   1.221   1_545 S
C328   H497    1.085   .     S
C328   C393    1.491   .     S
C328   O285    1.221   1_655 S
C329   O588    1.276   .     A
C329   O564    1.276   .     A
C329   C383    1.422   .     S
C330   H508    1.085   .     S
C330   O602    1.221   .     D
C330   C394    1.488   .     S
C331   O603    1.221   .     D
C331   H519    1.085   .     S
C331   C395    1.488   .     S
C332   C396    1.491   .     S
C332   H530    1.085   .     S
C332   O1237   1.221   .     S
C333   O606    1.221   .     D
C333   H532    1.085   .     S
C333   C397    1.488   .     S
C334   H454    1.085   .     S
C334   C399    1.491   .     S
C334   O607    1.221   .     D
C335   O608    1.221   .     D
C335   H455    1.085   .     S
C335   C400    1.491   .     S
C336   O609    1.221   .     D
C336   C401    1.488   .     S
C336   H456    1.085   .     S
C337   C402    1.488   .     S
C337   H457    1.085   .     S
C337   O610    1.221   .     D
C338   O611    1.221   .     D
C338   C403    1.491   .     S
C338   H458    1.085   .     S
C339   H459    1.085   .     S
C339   O612    1.221   .     D
C339   C404    1.491   .     S
C340   O565    1.276   .     A
C340   C382    1.422   .     S
C340   O589    1.276   .     A
C341   H460    1.085   .     S
C341   O613    1.221   .     D
C341   C405    1.488   .     S
C342   H465    1.111   .     S
C342   H462    1.111   .     S
C342   N533    1.446   .     S
C342   H463    1.110   .     S
C343   H468    1.110   .     S
C343   N541    1.446   .     S
C344   N542    1.446   .     S
C344   H472    1.110   .     S
C344   H1103   1.111   1_545 S
C344   H1105   1.111   1_545 S
C345   H477    1.110   .     S
C345   H476    1.111   .     S
C345   H478    1.111   .     S
C345   N543    1.446   .     S
C346   H480    1.111   .     S
C346   N544    1.446   .     S
C346   H481    1.110   .     S
C346   H482    1.111   .     S
C347   N545    1.446   .     S
C347   H485    1.110   .     S
C347   H168    1.111   1_655 S
C347   H171    1.111   1_655 S
C348   N546    1.446   .     S
C348   H490    1.110   .     S
C348   H1121   1.111   .     S
C348   H1123   1.111   .     S
C349   H493    1.111   .     S
C349   N547    1.446   .     S
C349   H495    1.111   .     S
C349   H494    1.110   .     S
C350   H498    1.111   .     S
C350   H499    1.110   .     S
C350   N548    1.446   .     S
C350   H500    1.111   .     S
C351   O566    1.276   .     A
C351   C381    1.422   .     S
C351   O595    1.276   .     A
C352   N534    1.446   .     S
C352   H503    1.110   .     S
C352   H504    1.111   .     S
C352   H502    1.111   .     S
C353   H506    1.111   .     S
C353   N535    1.446   .     S
C353   H509    1.111   .     S
C353   H507    1.110   .     S
C354   H511    1.111   .     S
C354   H512    1.110   .     S
C354   N536    1.446   .     S
C354   H513    1.111   .     S
C355   H516    1.110   .     S
C355   H515    1.111   .     S
C355   H517    1.111   .     S
C355   N537    1.446   .     S
C356   H520    1.111   .     S
C356   H521    1.110   .     S
C356   N538    1.446   .     S
C356   H522    1.111   .     S
C357   H526    1.111   .     S
C357   H524    1.111   .     S
C357   H525    1.110   .     S
C357   N539    1.446   .     S
C358   H531    1.111   .     S
C358   N540    1.446   .     S
C358   H528    1.111   .     S
C358   H529    1.110   .     S
C359   O567    1.276   .     A
C359   C380    1.422   .     S
C359   O596    1.276   .     A
C360   O592    1.276   .     A
C360   C388    1.422   .     S
C360   O568    1.276   .     A
C361   C386    1.422   .     S
C361   O594    1.276   .     A
C361   O569    1.276   .     A
C362   O581    1.276   .     A
C362   C377    1.422   .     S
C362   O570    1.276   .     A
C363   O583    1.276   .     A
C363   O572    1.276   .     A
C363   C375    1.422   .     S
C364   O579    1.276   .     A
C364   O573    1.276   .     A
C364   C374    1.422   .     S
C365   O604    1.267   .     A
C365   C410    1.457   .     S
C365   O1182   1.267   1_545 S
C366   C373    1.422   .     S
C366   O574    1.276   .     A
C366   O580    1.276   .     A
C367   O586    1.276   .     A
C367   O575    1.276   .     A
C367   C372    1.422   .     S
C368   O576    1.276   .     A
C368   C371    1.422   .     S
C368   O587    1.276   .     A
C369   O577    1.276   .     A
C369   C379    1.422   .     S
C369   O584    1.276   .     A
C370   O585    1.276   .     A
C370   C378    1.422   .     S
C370   O578    1.276   .     A
C371   C388    1.198   .     T
C372   C386    1.198   .     T
C373   C385    1.198   .     T
C374   C384    1.198   .     T
C375   C383    1.198   .     T
C376   O614    1.267   .     A
C376   C406    1.457   .     S
C377   C382    1.198   .     T
C378   C381    1.198   .     T
C379   C380    1.198   .     T
C385   C442    1.422   .     S
C387   C407    1.474   .     S
C387   O552    1.272   .     S
C389   C419    1.418   .     A
C389   C406    1.403   .     S
C390   C421    1.421   .     A
C390   C91     1.410   1_655 A
C391   C422    1.421   .     A
C391   C1040   1.410   .     S
C392   C410    1.403   .     A
C392   C423    1.418   .     A
C393   C415    1.418   .     A
C393   C90     1.403   1_655 A
C394   C416    1.421   .     A
C394   C407    1.410   .     S
C395   C417    1.421   .     A
C395   C408    1.410   .     A
C396   C418    1.418   .     A
C396   C1042   1.403   .     S
C397   C411    1.410   .     A
C397   C428    1.421   .     A
C398   O553    1.267   .     A
C398   C413    1.457   .     S
C398   O557    1.267   .     S
C399   C429    1.418   .     A
C399   C1044   1.403   .     S
C400   C430    1.418   .     A
C400   C97     1.403   1_655 S
C401   C432    1.421   .     A
C401   C414    1.410   .     A
C402   C424    1.421   .     A
C402   C1043   1.410   .     S
C403   C425    1.418   .     A
C403   C412    1.403   .     A
C404   C413    1.403   .     A
C404   C426    1.418   .     A
C405   C427    1.421   .     A
C405   C98     1.410   1_655 S
C408   C1023   1.410   1_545 S
C409   O558    1.272   .     A
C409   O554    1.272   .     A
C409   C414    1.474   .     S
C410   C1028   1.403   1_545 S
C411   C420    1.474   .     S
C411   C1034   1.410   1_545 S
C412   C431    1.457   .     S
C412   C1031   1.403   1_545 S
C415   C433    1.420   .     A
C415   C441    1.415   .     A
C416   C443    1.423   .     A
C417   C444    1.423   .     A
C417   C435    1.422   .     A
C418   C445    1.415   .     A
C418   C1068   1.420   .     S
C419   C446    1.415   .     A
C420   O559    1.272   .     A
C420   O555    1.272   .     A
C421   C447    1.423   .     A
C421   C434    1.422   .     A
C422   C448    1.423   .     A
C422   C1067   1.422   .     S
C423   C436    1.419   .     A
C423   C449    1.415   .     A
C424   C450    1.423   .     A
C424   C1069   1.422   .     S
C425   C451    1.415   .     A
C425   C438    1.420   .     A
C426   C439    1.420   .     A
C426   C452    1.415   .     A
C427   C124    1.422   1_655 S
C428   C437    1.422   .     A
C429   C1070   1.420   .     S
C430   C123    1.420   1_655 S
C431   O561    1.267   .     A
C431   O556    1.267   .     A
C432   C440    1.422   .     A
C433   C434    1.414   .     A
C433   C103    1.420   1_655 S
C434   C100    1.422   1_655 S
C435   C436    1.414   .     A
C435   C1054   1.422   1_545 S
C436   C1050   1.420   1_545 S
C437   C1056   1.422   1_545 S
C437   C438    1.414   1_556 S
C438   C1061   1.420   1_545 S
C438   C437    1.414   1_554 S
C439   C440    1.414   1_556 S
C440   C439    1.414   1_554 S
C441   C447    1.407   .     A
C441   N533    1.427   .     S
C442   O562    1.276   .     A
C442   O590    1.276   .     A
C443   N541    1.426   .     S
C443   C446    1.407   .     A
C444   N542    1.426   .     S
C444   C449    1.407   .     A
C445   C448    1.407   .     A
C445   N543    1.427   .     S
C446   N544    1.427   .     S
C447   N545    1.426   .     S
C448   N546    1.426   .     S
C449   N547    1.427   .     S
C450   N548    1.426   .     S
C450   C321    1.407   1_556 S
C451   N534    1.427   .     S
C451   C320    1.407   1_554 S
C452   N535    1.427   .     S
C452   C323    1.407   1_556 S
H461   N533    1.030   .     S
H466   N541    1.030   .     S
H467   C27     1.111   1_655 S
H469   C27     1.111   1_655 S
H470   N542    1.030   .     S
H471   C976    1.111   .     S
H473   C976    1.111   .     S
H474   N543    1.030   .     S
H479   N544    1.030   .     S
H483   N545    1.030   .     S
H488   N546    1.030   .     S
H489   C980    1.111   1_545 S
H491   C980    1.111   1_545 S
H492   N547    1.030   .     S
H496   N548    1.030   .     S
H501   N534    1.030   .     S
H505   N535    1.030   .     S
H510   N536    1.030   .     S
H514   N537    1.030   .     S
H518   N538    1.030   .     S
H523   N539    1.030   .     S
H527   N540    1.030   .     S
O549   Zn620   1.936   .     S
O549   Zn628   1.936   .     S
O549   Zn617   1.936   .     S
O549   Zn1256  1.936   1_545 S
O550   Zn619   1.952   .     S
O550   C997    1.267   .     S
O551   Zn622   1.952   .     S
O551   C60     1.267   1_655 S
O552   Zn621   1.952   .     S
O553   Zn631   1.952   .     S
O554   Zn630   1.952   .     S
O555   Zn625   1.952   .     S
O556   Zn617   1.952   .     S
O557   Zn627   1.952   .     S
O558   Zn626   1.952   .     S
O559   Zn629   1.952   .     S
O560   Zn629   1.936   .     S
O560   Zn623   1.936   .     S
O560   Zn625   1.936   .     S
O560   Zn1251  1.936   1_545 S
O561   Zn628   1.952   .     S
O562   Zn620   1.914   .     S
O563   Zn619   1.914   .     S
O564   Zn622   1.915   .     S
O565   Zn621   1.915   .     S
O566   Zn624   1.914   .     S
O567   Zn623   1.914   .     S
O568   Zn618   1.915   .     S
O569   Zn632   1.915   .     S
O570   Zn619   1.915   .     S
O571   Zn626   1.936   .     S
O571   Zn630   1.936   .     S
O571   Zn618   1.936   .     S
O572   Zn620   1.915   .     S
O573   Zn632   1.914   .     S
O574   Zn618   1.914   .     S
O575   Zn623   1.915   .     S
O576   Zn624   1.915   .     S
O577   Zn621   1.914   .     S
O578   Zn622   1.914   .     S
O579   Zn311   1.914   1_655 S
O580   Zn626   1.914   .     S
O581   Zn1261  1.915   .     S
O582   Zn631   1.936   .     S
O582   Zn621   1.936   .     S
O582   Zn627   1.936   .     S
O583   Zn628   1.915   .     S
O584   Zn631   1.914   .     S
O585   Zn314   1.914   1_655 S
O586   Zn625   1.915   .     S
O587   Zn1249  1.915   .     S
O588   Zn310   1.915   1_655 S
O589   Zn627   1.915   .     S
O590   Zn617   1.914   .     S
O591   Zn1257  1.914   .     S
O592   Zn630   1.915   .     S
O593   Zn624   1.952   .     S
O593   C949    1.272   .     S
O594   Zn315   1.915   1_655 S
O595   Zn1260  1.914   .     S
O596   Zn629   1.914   .     S
O597   C8      1.221   1_655 S
O600   C959    1.221   .     S
O604   Zn623   1.952   .     S
O605   C964    1.221   1_545 S
O614   Zn618   1.952   .     S
O615   C71     1.272   1_655 A
O615   Zn632   1.952   .     S
O616   Zn620   1.952   .     S
Zn617  O1219   1.915   1_545 S
Zn619  O1192   1.936   .     S
Zn622  O255    1.936   1_655 S
Zn624  O1181   1.936   .     S
Zn625  O1223   1.914   1_545 S
Zn628  O1227   1.914   1_545 S
Zn629  O1213   1.915   1_545 S
Zn632  O266    1.936   1_655 S
C633   O932    1.272   .     A
C633   C724    1.474   .     S
C634   O879    1.276   .     A
C634   C700    1.422   .     S
C634   O907    1.276   .     A
C635   N852    1.426   .     S
C635   C743    1.423   .     A
C635   C638    1.407   1_554 S
C636   N853    1.426   .     S
C636   C744    1.423   .     A
C636   C767    1.407   1_556 S
C637   C745    1.415   .     A
C637   N854    1.427   .     S
C637   C766    1.407   1_554 S
C638   C746    1.415   .     A
C638   N855    1.427   .     S
C638   C635    1.407   1_556 S
C639   C748    1.423   .     A
C639   N856    1.426   .     S
C639   C768    1.407   1_554 S
C640   C705    1.491   .     S
C640   H769    1.085   .     S
C640   O1229   1.221   1_455 S
C641   C706    1.488   .     S
C641   H780    1.085   .     S
C641   O914    1.221   .     D
C642   C707    1.488   .     S
C642   O915    1.221   .     D
C642   H791    1.085   .     S
C643   C708    1.491   .     S
C643   H802    1.085   .     S
C644   H813    1.085   .     S
C644   C709    1.491   .     S
C644   O1233   1.221   .     S
C645   O904    1.276   .     A
C645   O880    1.276   .     A
C645   C699    1.422   .     S
C646   H824    1.085   .     S
C646   O918    1.221   .     D
C646   C710    1.488   .     S
C647   O919    1.221   .     D
C647   H835    1.085   .     S
C647   C711    1.488   .     S
C648   C712    1.491   .     S
C648   H846    1.085   .     S
C648   O289    1.221   1_565 S
C649   O922    1.221   .     D
C649   H848    1.085   .     S
C649   C713    1.488   .     S
C650   H770    1.085   .     S
C650   C715    1.491   .     S
C650   O923    1.221   .     D
C651   O924    1.221   .     D
C651   H771    1.085   .     S
C651   C716    1.491   .     S
C652   O925    1.221   .     D
C652   C717    1.488   .     S
C652   H772    1.085   .     S
C653   C718    1.488   .     S
C653   H773    1.085   .     S
C653   O926    1.221   .     D
C654   O927    1.221   .     D
C654   C719    1.491   .     S
C654   H774    1.085   .     S
C655   H775    1.085   .     S
C655   O928    1.221   .     D
C655   C720    1.491   .     S
C656   O881    1.276   .     A
C656   C698    1.422   .     S
C656   O905    1.276   .     A
C657   H776    1.085   .     S
C657   O929    1.221   .     D
C657   C721    1.488   .     S
C658   H781    1.111   .     S
C658   H778    1.111   .     S
C658   N849    1.446   .     S
C658   H779    1.110   .     S
C659   H784    1.110   .     S
C659   N857    1.446   .     S
C659   H1099   1.111   1_455 S
C659   H1101   1.111   1_455 S
C660   N858    1.446   .     S
C660   H788    1.110   .     S
C661   H793    1.110   .     S
C661   H792    1.111   .     S
C661   H794    1.111   .     S
C661   N859    1.446   .     S
C662   H796    1.111   .     S
C662   N860    1.446   .     S
C662   H797    1.110   .     S
C662   H798    1.111   .     S
C663   N861    1.446   .     S
C663   H801    1.110   .     S
C663   H1116   1.111   .     S
C663   H1119   1.111   .     S
C664   N862    1.446   .     S
C664   H806    1.110   .     S
C664   H173    1.111   1_565 S
C664   H175    1.111   1_565 S
C665   H809    1.111   .     S
C665   N863    1.446   .     S
C665   H811    1.111   .     S
C665   H810    1.110   .     S
C666   H814    1.111   .     S
C666   H815    1.110   .     S
C666   N864    1.446   .     S
C666   H816    1.111   .     S
C667   O882    1.276   .     A
C667   C697    1.422   .     S
C667   O911    1.276   .     A
C668   N850    1.446   .     S
C668   H819    1.110   .     S
C668   H820    1.111   .     S
C668   H818    1.111   .     S
C669   H822    1.111   .     S
C669   N851    1.446   .     S
C669   H825    1.111   .     S
C669   H823    1.110   .     S
C670   H827    1.111   .     S
C670   H828    1.110   .     S
C670   N852    1.446   .     S
C670   H829    1.111   .     S
C671   H832    1.110   .     S
C671   H831    1.111   .     S
C671   H833    1.111   .     S
C671   N853    1.446   .     S
C672   H836    1.111   .     S
C672   H837    1.110   .     S
C672   N854    1.446   .     S
C672   H838    1.111   .     S
C673   H842    1.111   .     S
C673   H840    1.111   .     S
C673   H841    1.110   .     S
C673   N855    1.446   .     S
C674   H847    1.111   .     S
C674   N856    1.446   .     S
C674   H844    1.111   .     S
C674   H845    1.110   .     S
C675   O883    1.276   .     A
C675   C696    1.422   .     S
C675   O912    1.276   .     A
C676   O908    1.276   .     A
C676   C704    1.422   .     S
C676   O884    1.276   .     A
C677   C702    1.422   .     S
C677   O910    1.276   .     A
C677   O885    1.276   .     A
C678   O897    1.276   .     A
C678   C693    1.422   .     S
C678   O886    1.276   .     A
C679   O899    1.276   .     A
C679   O888    1.276   .     A
C679   C691    1.422   .     S
C680   O895    1.276   .     A
C680   O889    1.276   .     A
C680   C690    1.422   .     S
C681   O920    1.267   .     A
C681   C726    1.457   .     S
C682   C689    1.422   .     S
C682   O890    1.276   .     A
C682   O896    1.276   .     A
C683   O902    1.276   .     A
C683   O891    1.276   .     A
C683   C688    1.422   .     S
C684   O892    1.276   .     A
C684   C687    1.422   .     S
C684   O903    1.276   .     A
C685   O893    1.276   .     A
C685   C695    1.422   .     S
C685   O900    1.276   .     A
C686   O901    1.276   .     A
C686   C694    1.422   .     S
C686   O894    1.276   .     A
C687   C704    1.198   .     T
C688   C702    1.198   .     T
C689   C701    1.198   .     T
C690   C700    1.198   .     T
C691   C699    1.198   .     T
C692   O930    1.267   .     A
C692   C722    1.457   .     S
C692   O1183   1.267   1_455 S
C693   C698    1.198   .     T
C694   C697    1.198   .     T
C695   C696    1.198   .     T
C701   C758    1.422   .     S
C703   O1247   1.272   1_455 A
C703   C723    1.474   .     S
C703   O868    1.272   .     S
C705   C735    1.418   .     A
C705   C722    1.403   .     S
C706   C737    1.421   .     A
C706   C1039   1.410   .     A
C707   C738    1.421   .     A
C707   C92     1.410   1_565 S
C708   C726    1.403   .     A
C708   C739    1.418   .     A
C709   C731    1.418   .     A
C709   C1038   1.403   .     A
C710   C732    1.421   .     A
C710   C723    1.410   .     S
C711   C733    1.421   .     A
C711   C724    1.410   .     A
C712   C734    1.418   .     A
C712   C94     1.403   1_565 S
C713   C727    1.410   .     A
C713   C744    1.421   .     A
C714   O869    1.267   .     A
C714   C729    1.457   .     S
C714   O873    1.267   .     S
C715   C745    1.418   .     A
C715   C96     1.403   1_565 S
C716   C746    1.418   .     A
C716   C1045   1.403   .     S
C717   C748    1.421   .     A
C717   C730    1.410   .     A
C718   C740    1.421   .     A
C718   C95     1.410   1_565 S
C719   C741    1.418   .     A
C719   C728    1.403   .     A
C720   C729    1.403   .     A
C720   C742    1.418   .     A
C721   C743    1.421   .     A
C721   C1046   1.410   .     S
C722   C1025   1.403   1_455 A
C723   C1022   1.410   1_455 A
C725   O874    1.272   .     A
C725   O870    1.272   .     A
C725   C730    1.474   .     S
C727   C736    1.474   .     S
C728   C747    1.457   .     S
C729   C1032   1.403   1_455 S
C730   C1037   1.410   1_455 S
C731   C749    1.420   .     A
C731   C757    1.415   .     A
C732   C759    1.423   .     A
C732   C1066   1.422   1_455 S
C733   C760    1.423   .     A
C733   C751    1.422   .     A
C734   C761    1.415   .     A
C734   C120    1.420   1_565 S
C735   C762    1.415   .     A
C735   C1065   1.420   1_455 S
C736   O875    1.272   .     A
C736   O871    1.272   .     A
C737   C763    1.423   .     A
C737   C750    1.422   .     A
C738   C764    1.423   .     A
C738   C119    1.422   1_565 S
C739   C752    1.419   .     A
C739   C765    1.415   .     A
C740   C766    1.423   .     A
C740   C121    1.422   1_565 S
C741   C767    1.415   .     A
C741   C754    1.420   .     A
C742   C755    1.420   .     A
C742   C768    1.415   .     A
C743   C1072   1.422   .     S
C744   C753    1.422   .     A
C745   C122    1.420   1_565 S
C746   C1071   1.420   .     S
C747   O877    1.267   .     A
C747   O872    1.267   .     A
C748   C756    1.422   .     A
C749   C750    1.414   .     A
C749   C1051   1.420   .     S
C750   C1048   1.422   .     S
C751   C752    1.414   .     A
C753   C754    1.414   1_556 S
C754   C753    1.414   1_554 S
C755   C1062   1.420   1_455 S
C755   C756    1.414   1_556 S
C756   C1059   1.422   1_455 S
C756   C755    1.414   1_554 S
C757   C763    1.407   .     A
C757   N849    1.427   .     S
C758   O878    1.276   .     A
C758   O906    1.276   .     A
C759   N857    1.426   .     S
C759   C762    1.407   .     A
C760   N858    1.426   .     S
C760   C765    1.407   .     A
C761   C764    1.407   .     A
C761   N859    1.427   .     S
C762   N860    1.427   .     S
C763   N861    1.426   .     S
C764   N862    1.426   .     S
C765   N863    1.427   .     S
C766   N864    1.426   .     S
C766   C637    1.407   1_556 S
C767   N850    1.427   .     S
C767   C636    1.407   1_554 S
C768   N851    1.427   .     S
C768   C639    1.407   1_556 S
H777   N849    1.030   .     S
H782   N857    1.030   .     S
H783   C975    1.111   .     S
H785   C975    1.111   .     S
H786   N858    1.030   .     S
H787   C28     1.111   1_565 S
H789   C28     1.111   1_565 S
H790   N859    1.030   .     S
H795   N860    1.030   .     S
H799   N861    1.030   .     S
H800   C979    1.111   1_455 S
H803   C979    1.111   1_455 S
H804   N862    1.030   .     S
H808   N863    1.030   .     S
H812   N864    1.030   .     S
H817   N850    1.030   .     S
H821   N851    1.030   .     S
H826   N852    1.030   .     S
H830   N853    1.030   .     S
H834   N854    1.030   .     S
H839   N855    1.030   .     S
H843   N856    1.030   .     S
O865   Zn936   1.936   .     S
O865   Zn944   1.936   .     S
O865   Zn933   1.936   .     S
O866   Zn935   1.952   .     S
O866   C49     1.267   1_565 S
O867   Zn938   1.952   .     S
O867   C1008   1.267   .     S
O868   Zn937   1.952   .     S
O869   Zn947   1.952   .     S
O870   Zn946   1.952   .     S
O871   Zn941   1.952   .     S
O872   Zn933   1.952   .     S
O873   Zn943   1.952   .     S
O874   Zn942   1.952   .     S
O875   Zn945   1.952   .     S
O876   Zn945   1.936   .     S
O876   Zn939   1.936   .     S
O876   Zn941   1.936   .     S
O877   Zn944   1.952   .     S
O878   Zn936   1.914   .     S
O879   Zn935   1.914   .     S
O880   Zn938   1.915   .     S
O881   Zn937   1.915   .     S
O882   Zn940   1.914   .     S
O883   Zn939   1.914   .     S
O884   Zn934   1.915   .     S
O885   Zn948   1.915   .     S
O886   Zn935   1.915   .     S
O887   Zn942   1.936   .     S
O887   Zn946   1.936   .     S
O887   Zn934   1.936   .     S
O887   Zn1254  1.936   1_455 S
O888   Zn936   1.915   .     S
O889   Zn948   1.914   .     S
O890   Zn934   1.914   .     S
O891   Zn939   1.915   .     S
O892   Zn940   1.915   .     S
O893   Zn937   1.914   .     S
O894   Zn938   1.914   .     S
O895   Zn1259  1.914   .     S
O896   Zn942   1.914   .     S
O897   Zn313   1.915   1_565 S
O898   Zn947   1.936   .     S
O898   Zn937   1.936   .     S
O898   Zn943   1.936   .     S
O898   Zn1264  1.936   1_455 S
O899   Zn944   1.915   .     S
O900   Zn947   1.914   .     S
O901   Zn1262  1.914   .     S
O902   Zn941   1.915   .     S
O903   Zn301   1.915   1_565 S
O904   Zn1258  1.915   .     S
O905   Zn943   1.915   .     S
O906   Zn933   1.914   .     S
O907   Zn309   1.914   1_565 S
O908   Zn946   1.915   .     S
O909   Zn940   1.952   .     S
O909   C1      1.272   1_565 S
O910   Zn1263  1.915   .     S
O911   Zn312   1.914   1_565 S
O912   Zn945   1.914   .     S
O913   C956    1.221   .     S
O916   C11     1.221   1_565 S
O917   C960    1.221   1_455 S
O920   Zn939   1.952   .     S
O930   Zn934   1.952   .     S
O931   C1019   1.272   .     A
O931   Zn948   1.952   .     S
O932   Zn936   1.952   .     S
Zn935  O244    1.936   1_565 S
Zn938  O1203   1.936   .     S
Zn940  O233    1.936   1_565 S
Zn942  O1220   1.915   1_455 S
Zn943  O1211   1.914   1_455 S
Zn946  O1217   1.914   1_455 S
Zn947  O1226   1.915   1_455 S
Zn948  O1214   1.936   .     S
C949   O1248   1.272   .     A
C949   C1040   1.474   .     S
C950   O1195   1.276   .     A
C950   C1016   1.422   .     S
C950   O1223   1.276   .     A
C951   N1168   1.426   .     S
C951   C1059   1.423   .     A
C951   C954    1.407   1_554 S
C952   N1169   1.426   .     S
C952   C1060   1.423   .     A
C952   C1083   1.407   1_556 S
C953   C1061   1.415   .     A
C953   N1170   1.427   .     S
C953   C1082   1.407   1_554 S
C954   C1062   1.415   .     A
C954   N1171   1.427   .     S
C954   C951    1.407   1_556 S
C955   C1064   1.423   .     A
C955   N1172   1.426   .     S
C955   C1084   1.407   1_554 S
C956   C1021   1.491   .     S
C956   H1085   1.085   .     S
C957   C1022   1.488   .     S
C957   H1096   1.085   .     S
C957   O1230   1.221   .     D
C958   C1023   1.488   .     S
C958   O1231   1.221   .     D
C958   H1107   1.085   .     S
C959   C1024   1.491   .     S
C959   H1118   1.085   .     S
C960   H1129   1.085   .     S
C960   C1025   1.491   .     S
C960   O917    1.221   1_655 S
C961   O1220   1.276   .     A
C961   O1196   1.276   .     A
C961   C1015   1.422   .     S
C962   H1140   1.085   .     S
C962   O1234   1.221   .     D
C962   C1026   1.488   .     S
C963   O1235   1.221   .     D
C963   H1151   1.085   .     S
C963   C1027   1.488   .     S
C964   C1028   1.491   .     S
C964   H1162   1.085   .     S
C964   O605    1.221   1_565 S
C965   O1238   1.221   .     D
C965   H1164   1.085   .     S
C965   C1029   1.488   .     S
C966   H1086   1.085   .     S
C966   C1031   1.491   .     S
C966   O1239   1.221   .     D
C967   O1240   1.221   .     D
C967   H1087   1.085   .     S
C967   C1032   1.491   .     S
C968   O1241   1.221   .     D
C968   C1033   1.488   .     S
C968   H1088   1.085   .     S
C969   C1034   1.488   .     S
C969   H1089   1.085   .     S
C969   O1242   1.221   .     D
C970   O1243   1.221   .     D
C970   C1035   1.491   .     S
C970   H1090   1.085   .     S
C971   H1091   1.085   .     S
C971   O1244   1.221   .     D
C971   C1036   1.491   .     S
C972   O1197   1.276   .     A
C972   C1014   1.422   .     S
C972   O1221   1.276   .     A
C973   H1092   1.085   .     S
C973   O1245   1.221   .     D
C973   C1037   1.488   .     S
C974   H1097   1.111   .     S
C974   H1094   1.111   .     S
C974   N1165   1.446   .     S
C974   H1095   1.110   .     S
C975   H1100   1.110   .     S
C975   N1173   1.446   .     S
C976   N1174   1.446   .     S
C976   H1104   1.110   .     S
C977   H1109   1.110   .     S
C977   H1108   1.111   .     S
C977   H1110   1.111   .     S
C977   N1175   1.446   .     S
C978   H1112   1.111   .     S
C978   N1176   1.446   .     S
C978   H1113   1.110   .     S
C978   H1114   1.111   .     S
C979   N1177   1.446   .     S
C979   H1117   1.110   .     S
C979   H800    1.111   1_655 S
C979   H803    1.111   1_655 S
C980   N1178   1.446   .     S
C980   H1122   1.110   .     S
C980   H489    1.111   1_565 S
C980   H491    1.111   1_565 S
C981   H1125   1.111   .     S
C981   N1179   1.446   .     S
C981   H1127   1.111   .     S
C981   H1126   1.110   .     S
C982   H1130   1.111   .     S
C982   H1131   1.110   .     S
C982   N1180   1.446   .     S
C982   H1132   1.111   .     S
C983   O1198   1.276   .     A
C983   C1013   1.422   .     S
C983   O1227   1.276   .     A
C984   N1166   1.446   .     S
C984   H1135   1.110   .     S
C984   H1136   1.111   .     S
C984   H1134   1.111   .     S
C985   H1138   1.111   .     S
C985   N1167   1.446   .     S
C985   H1141   1.111   .     S
C985   H1139   1.110   .     S
C986   H1143   1.111   .     S
C986   H1144   1.110   .     S
C986   N1168   1.446   .     S
C986   H1145   1.111   .     S
C987   H1148   1.110   .     S
C987   H1147   1.111   .     S
C987   H1149   1.111   .     S
C987   N1169   1.446   .     S
C988   H1152   1.111   .     S
C988   H1153   1.110   .     S
C988   N1170   1.446   .     S
C988   H1154   1.111   .     S
C989   H1158   1.111   .     S
C989   H1156   1.111   .     S
C989   H1157   1.110   .     S
C989   N1171   1.446   .     S
C990   H1163   1.111   .     S
C990   N1172   1.446   .     S
C990   H1160   1.111   .     S
C990   H1161   1.110   .     S
C991   O1199   1.276   .     A
C991   C1012   1.422   .     S
C991   O1228   1.276   .     A
C992   O1224   1.276   .     A
C992   C1020   1.422   .     S
C992   O1200   1.276   .     A
C993   C1018   1.422   .     S
C993   O1226   1.276   .     A
C993   O1201   1.276   .     A
C994   O1213   1.276   .     A
C994   C1009   1.422   .     S
C994   O1202   1.276   .     A
C995   O1215   1.276   .     A
C995   O1204   1.276   .     A
C995   C1007   1.422   .     S
C996   O1211   1.276   .     A
C996   O1205   1.276   .     A
C996   C1006   1.422   .     S
C997   O1236   1.267   .     A
C997   C1042   1.457   .     S
C998   C1005   1.422   .     S
C998   O1206   1.276   .     A
C998   O1212   1.276   .     A
C999   O1218   1.276   .     A
C999   O1207   1.276   .     A
C999   C1004   1.422   .     S
C1000  O1208   1.276   .     A
C1000  C1003   1.422   .     S
C1000  O1219   1.276   .     A
C1001  O1209   1.276   .     A
C1001  C1011   1.422   .     S
C1001  O1216   1.276   .     A
C1002  O1217   1.276   .     A
C1002  C1010   1.422   .     S
C1002  O1210   1.276   .     A
C1003  C1020   1.198   .     T
C1004  C1018   1.198   .     T
C1005  C1017   1.198   .     T
C1006  C1016   1.198   .     T
C1007  C1015   1.198   .     T
C1008  O1246   1.267   .     A
C1008  C1038   1.457   .     S
C1009  C1014   1.198   .     T
C1010  C1013   1.198   .     T
C1011  C1012   1.198   .     T
C1017  C1074   1.422   .     S
C1019  C1039   1.474   .     S
C1019  O1184   1.272   .     S
C1021  C1051   1.418   .     A
C1021  C1038   1.403   .     S
C1022  C1053   1.421   .     A
C1022  C723    1.410   1_655 A
C1023  C1054   1.421   .     A
C1023  C408    1.410   1_565 S
C1024  C1042   1.403   .     A
C1024  C1055   1.418   .     A
C1025  C1047   1.418   .     A
C1025  C722    1.403   1_655 A
C1026  C1048   1.421   .     A
C1026  C1039   1.410   .     S
C1027  C1049   1.421   .     A
C1027  C1040   1.410   .     A
C1028  C1050   1.418   .     A
C1028  C410    1.403   1_565 S
C1029  C1043   1.410   .     A
C1029  C1060   1.421   .     A
C1030  O1185   1.267   .     A
C1030  C1045   1.457   .     S
C1030  O1189   1.267   .     S
C1031  C1061   1.418   .     A
C1031  C412    1.403   1_565 S
C1032  C1062   1.418   .     A
C1032  C729    1.403   1_655 S
C1033  C1064   1.421   .     A
C1033  C1046   1.410   .     A
C1034  C1056   1.421   .     A
C1034  C411    1.410   1_565 S
C1035  C1057   1.418   .     A
C1035  C1044   1.403   .     A
C1036  C1045   1.403   .     A
C1036  C1058   1.418   .     A
C1037  C1059   1.421   .     A
C1037  C730    1.410   1_655 S
C1041  O1190   1.272   .     A
C1041  O1186   1.272   .     A
C1041  C1046   1.474   .     S
C1043  C1052   1.474   .     S
C1044  C1063   1.457   .     S
C1047  C1065   1.420   .     A
C1047  C1073   1.415   .     A
C1048  C1075   1.423   .     A
C1049  C1076   1.423   .     A
C1049  C1067   1.422   .     A
C1050  C1077   1.415   .     A
C1050  C436    1.420   1_565 S
C1051  C1078   1.415   .     A
C1052  O1191   1.272   .     A
C1052  O1187   1.272   .     A
C1053  C1079   1.423   .     A
C1053  C1066   1.422   .     A
C1054  C1080   1.423   .     A
C1054  C435    1.422   1_565 S
C1055  C1068   1.419   .     A
C1055  C1081   1.415   .     A
C1056  C1082   1.423   .     A
C1056  C437    1.422   1_565 S
C1057  C1083   1.415   .     A
C1057  C1070   1.420   .     A
C1058  C1071   1.420   .     A
C1058  C1084   1.415   .     A
C1059  C756    1.422   1_655 S
C1060  C1069   1.422   .     A
C1061  C438    1.420   1_565 S
C1062  C755    1.420   1_655 S
C1063  O1193   1.267   .     A
C1063  O1188   1.267   .     A
C1064  C1072   1.422   .     A
C1065  C1066   1.414   .     A
C1065  C735    1.420   1_655 S
C1066  C732    1.422   1_655 S
C1067  C1068   1.414   .     A
C1069  C1070   1.414   1_556 S
C1070  C1069   1.414   1_554 S
C1071  C1072   1.414   1_556 S
C1072  C1071   1.414   1_554 S
C1073  C1079   1.407   .     A
C1073  N1165   1.427   .     S
C1074  O1194   1.276   .     A
C1074  O1222   1.276   .     A
C1075  N1173   1.426   .     S
C1075  C1078   1.407   .     A
C1076  N1174   1.426   .     S
C1076  C1081   1.407   .     A
C1077  C1080   1.407   .     A
C1077  N1175   1.427   .     S
C1078  N1176   1.427   .     S
C1079  N1177   1.426   .     S
C1080  N1178   1.426   .     S
C1081  N1179   1.427   .     S
C1082  N1180   1.426   .     S
C1082  C953    1.407   1_556 S
C1083  N1166   1.427   .     S
C1083  C952    1.407   1_554 S
C1084  N1167   1.427   .     S
C1084  C955    1.407   1_556 S
H1093  N1165   1.030   .     S
H1098  N1173   1.030   .     S
H1099  C659    1.111   1_655 S
H1101  C659    1.111   1_655 S
H1102  N1174   1.030   .     S
H1103  C344    1.111   1_565 S
H1105  C344    1.111   1_565 S
H1106  N1175   1.030   .     S
H1111  N1176   1.030   .     S
H1115  N1177   1.030   .     S
H1120  N1178   1.030   .     S
H1124  N1179   1.030   .     S
H1128  N1180   1.030   .     S
H1133  N1166   1.030   .     S
H1137  N1167   1.030   .     S
H1142  N1168   1.030   .     S
H1146  N1169   1.030   .     S
H1150  N1170   1.030   .     S
H1155  N1171   1.030   .     S
H1159  N1172   1.030   .     S
O1181  Zn1252  1.936   .     S
O1181  Zn1260  1.936   .     S
O1181  Zn1249  1.936   .     S
O1182  Zn1251  1.952   .     S
O1182  C365    1.267   1_565 S
O1183  Zn1254  1.952   .     S
O1183  C692    1.267   1_655 S
O1184  Zn1253  1.952   .     S
O1185  Zn1263  1.952   .     S
O1186  Zn1262  1.952   .     S
O1187  Zn1257  1.952   .     S
O1188  Zn1249  1.952   .     S
O1189  Zn1259  1.952   .     S
O1190  Zn1258  1.952   .     S
O1191  Zn1261  1.952   .     S
O1192  Zn1261  1.936   .     S
O1192  Zn1255  1.936   .     S
O1192  Zn1257  1.936   .     S
O1193  Zn1260  1.952   .     S
O1194  Zn1252  1.914   .     S
O1195  Zn1251  1.914   .     S
O1196  Zn1254  1.915   .     S
O1197  Zn1253  1.915   .     S
O1198  Zn1256  1.914   .     S
O1199  Zn1255  1.914   .     S
O1200  Zn1250  1.915   .     S
O1201  Zn1264  1.915   .     S
O1202  Zn1251  1.915   .     S
O1203  Zn1258  1.936   .     S
O1203  Zn1262  1.936   .     S
O1203  Zn1250  1.936   .     S
O1204  Zn1252  1.915   .     S
O1205  Zn1264  1.914   .     S
O1206  Zn1250  1.914   .     S
O1207  Zn1255  1.915   .     S
O1208  Zn1256  1.915   .     S
O1209  Zn1253  1.914   .     S
O1210  Zn1254  1.914   .     S
O1211  Zn943   1.914   1_655 S
O1212  Zn1258  1.914   .     S
O1213  Zn629   1.915   1_565 S
O1214  Zn1263  1.936   .     S
O1214  Zn1253  1.936   .     S
O1214  Zn1259  1.936   .     S
O1215  Zn1260  1.915   .     S
O1216  Zn1263  1.914   .     S
O1217  Zn946   1.914   1_655 S
O1218  Zn1257  1.915   .     S
O1219  Zn617   1.915   1_565 S
O1220  Zn942   1.915   1_655 S
O1221  Zn1259  1.915   .     S
O1222  Zn1249  1.914   .     S
O1223  Zn625   1.914   1_565 S
O1224  Zn1262  1.915   .     S
O1225  Zn1256  1.952   .     S
O1225  C317    1.272   1_565 S
O1226  Zn947   1.915   1_655 S
O1227  Zn628   1.914   1_565 S
O1228  Zn1261  1.914   .     S
O1229  C640    1.221   1_655 S
O1232  C327    1.221   1_565 S
O1236  Zn1255  1.952   .     S
O1246  Zn1250  1.952   .     S
O1247  C703    1.272   1_655 A
O1247  Zn1264  1.952   .     S
O1248  Zn1252  1.952   .     S
Zn1251 O560    1.936   1_565 S
Zn1254 O887    1.936   1_655 S
Zn1256 O549    1.936   1_565 S
Zn1264 O898    1.936   1_655 S
