data_str_m2_o1_o18_pcu_sym.153
_audit_creation_date              2020-01-03
_audit_creation_method            'Materials Studio'
_symmetry_space_group_name_H-M    'P1'
_symmetry_Int_Tables_number       1
_symmetry_cell_setting            triclinic
loop_
_symmetry_equiv_pos_as_xyz
  x,y,z
_cell_length_a                    28.5683
_cell_length_b                    32.5321
_cell_length_c                    31.2079
_cell_angle_alpha                 88.1915
_cell_angle_beta                  73.4820
_cell_angle_gamma                 89.2119
loop_
_atom_site_label
_atom_site_type_symbol
_atom_site_fract_x
_atom_site_fract_y
_atom_site_fract_z
_atom_site_U_iso_or_equiv
_atom_site_adp_type
_atom_site_occupancy
C1     C     0.00102   0.08746   0.24782   0.00000  Uiso   1.00
C2     C     0.33259   0.24582   0.25112   0.00000  Uiso   1.00
C3     C     0.20121   0.18335   0.04883   0.00000  Uiso   1.00
C4     C     0.14682   0.21100   0.45787   0.00000  Uiso   1.00
C5     C     0.24980   0.17665   0.02487   0.00000  Uiso   1.00
C6     C     0.09818   0.21729   0.48184   0.00000  Uiso   1.00
C7     C     0.30775   0.02185   0.22225   0.00000  Uiso   1.00
C8     C     0.02498   0.31149   0.27542   0.00000  Uiso   1.00
C9     C     0.30708   0.31213   0.22429   0.00000  Uiso   1.00
C10    C     0.03172   0.02035   0.26755   0.00000  Uiso   1.00
C11    C     0.33144   0.29043   0.25156   0.00000  Uiso   1.00
C12    C     0.00277   0.04271   0.24510   0.00000  Uiso   1.00
C13    C     0.18360   0.13988   0.27752   0.00000  Uiso   1.00
C14    C     0.14974   0.19404   0.22322   0.00000  Uiso   1.00
C15    C     0.13350   0.14060   0.27794   0.00000  Uiso   1.00
C16    C     0.19980   0.19308   0.22253   0.00000  Uiso   1.00
C17    C     0.30567   0.16590   0.33618   0.00000  Uiso   1.00
C18    C     0.02777   0.16763   0.16391   0.00000  Uiso   1.00
C19    C     0.29058   0.16704   0.38544   0.00000  Uiso   1.00
C20    C     0.04432   0.17538   0.11525   0.00000  Uiso   1.00
C21    C     0.31247   0.16857   0.45497   0.00000  Uiso   1.00
C22    C     0.03129   0.20859   0.04909   0.00000  Uiso   1.00
C23    C     0.32617   0.16679   0.40858   0.00000  Uiso   1.00
C24    C     0.01321   0.19474   0.09332   0.00000  Uiso   1.00
C25    C     0.24080   0.16920   0.40978   0.00000  Uiso   1.00
C26    C     0.09371   0.16850   0.09181   0.00000  Uiso   1.00
C27    C     0.22776   0.17950   0.45535   0.00000  Uiso   1.00
C28    C     0.11361   0.18691   0.04886   0.00000  Uiso   1.00
C29    C     0.26342   0.17464   0.47854   0.00000  Uiso   1.00
C30    C     0.08095   0.20428   0.02652   0.00000  Uiso   1.00
C31    C     0.17951   0.19138   0.47908   0.00000  Uiso   1.00
C32    C     0.16446   0.18619   0.02626   0.00000  Uiso   1.00
Cu33   Cu    0.04689   0.16667   0.25000   0.00000  Uiso   1.00
Cu34   Cu    0.28645   0.16666   0.25000   0.00000  Uiso   1.00
H35    H     0.27691   0.17374   0.04292   0.00000  Uiso   1.00
H36    H     0.07366   0.23190   0.46501   0.00000  Uiso   1.00
H37    H     0.30841   0.19989   0.11064   0.00000  Uiso   1.00
H38    H     0.03128   0.16408   0.39098   0.00000  Uiso   1.00
H39    H     0.00702   0.16617   0.47230   0.00000  Uiso   1.00
H40    H     0.00661   0.22349   0.03269   0.00000  Uiso   1.00
H41    H     0.10743   0.12071   0.30093   0.00000  Uiso   1.00
H42    H     0.22562   0.21367   0.20024   0.00000  Uiso   1.00
N43    N     0.11736   0.16668   0.24999   0.00000  Uiso   1.00
N44    N     0.21597   0.16666   0.25001   0.00000  Uiso   1.00
O45    O     0.03958   0.10655   0.25000   0.00000  Uiso   1.00
O46    O     0.29375   0.22678   0.25000   0.00000  Uiso   1.00
O47    O     0.29372   0.10654   0.25001   0.00000  Uiso   1.00
O48    O     0.03961   0.22679   0.25000   0.00000  Uiso   1.00
O49    O     0.01852   0.16668   0.31492   0.00000  Uiso   1.00
O50    O     0.31481   0.16666   0.18509   0.00000  Uiso   1.00
O51    O     0.27267   0.16667   0.31492   0.00000  Uiso   1.00
O52    O     0.06067   0.16667   0.18508   0.00000  Uiso   1.00
O53    O     0.12162   0.14216   0.11035   0.00000  Uiso   1.00
C54    C     0.11447   0.10162   0.09893   0.00000  Uiso   1.00
H55    H     0.12605   0.09812   0.06201   0.00000  Uiso   1.00
H56    H     0.07578   0.09199   0.11330   0.00000  Uiso   1.00
H57    H     0.13735   0.08058   0.11326   0.00000  Uiso   1.00
O58    O     0.20535   0.15838   0.38984   0.00000  Uiso   1.00
C59    C     0.18786   0.11878   0.40604   0.00000  Uiso   1.00
H60    H     0.17362   0.11682   0.44312   0.00000  Uiso   1.00
H61    H     0.15677   0.11153   0.39296   0.00000  Uiso   1.00
H62    H     0.21683   0.09517   0.39421   0.00000  Uiso   1.00
O63    O     0.19168   0.19285   0.09330   0.00000  Uiso   1.00
C64    C     0.19905   0.23546   0.09598   0.00000  Uiso   1.00
H65    H     0.22918   0.24855   0.06795   0.00000  Uiso   1.00
H66    H     0.20973   0.24064   0.12673   0.00000  Uiso   1.00
H67    H     0.16456   0.25247   0.09787   0.00000  Uiso   1.00
O68    O     0.16221   0.22649   0.41438   0.00000  Uiso   1.00
C69    C     0.18311   0.26548   0.41452   0.00000  Uiso   1.00
H70    H     0.21609   0.26339   0.42675   0.00000  Uiso   1.00
H71    H     0.15609   0.28737   0.43483   0.00000  Uiso   1.00
H72    H     0.19483   0.27809   0.37968   0.00000  Uiso   1.00
C73    C     0.28166   0.04341   0.19297   0.00000  Uiso   1.00
H74    H     0.24820   0.03059   0.18923   0.00000  Uiso   1.00
O75    O     0.29856   0.07416   0.17085   0.00000  Uiso   1.00
C76    C     0.04473   0.29116   0.31015   0.00000  Uiso   1.00
H77    H     0.07526   0.30450   0.31889   0.00000  Uiso   1.00
O78    O     0.02549   0.26061   0.33123   0.00000  Uiso   1.00
O79    O     0.28164   0.29120   0.20010   0.00000  Uiso   1.00
C80    C     0.31327   0.28395   0.15720   0.00000  Uiso   1.00
H81    H     0.29196   0.26958   0.13706   0.00000  Uiso   1.00
H82    H     0.00991   0.26243   0.15909   0.00000  Uiso   1.00
H83    H     0.32881   0.31298   0.13929   0.00000  Uiso   1.00
O84    O     0.06735   0.03987   0.28135   0.00000  Uiso   1.00
C85    C     0.11252   0.03531   0.24798   0.00000  Uiso   1.00
H86    H     0.10971   0.02630   0.21453   0.00000  Uiso   1.00
H87    H     0.13554   0.01233   0.25971   0.00000  Uiso   1.00
H88    H     0.13164   0.06515   0.24222   0.00000  Uiso   1.00
O89    O     0.19973   0.11532   0.30748   0.00000  Uiso   1.00
C90    C     0.19035   0.07353   0.30285   0.00000  Uiso   1.00
H91    H     0.15134   0.06618   0.31889   0.00000  Uiso   1.00
H92    H     0.21210   0.05463   0.32052   0.00000  Uiso   1.00
H93    H     0.20204   0.06455   0.26730   0.00000  Uiso   1.00
O94    O     0.13340   0.22157   0.19594   0.00000  Uiso   1.00
C95    C     0.13980   0.26221   0.20793   0.00000  Uiso   1.00
H96    H     0.17849   0.27192   0.19514   0.00000  Uiso   1.00
H97    H     0.12694   0.26608   0.24473   0.00000  Uiso   1.00
H98    H     0.11786   0.28321   0.19252   0.00000  Uiso   1.00
C99    C     0.33435   0.08746   0.24782   0.00000  Uiso   1.00
C100   C     0.66592   0.24582   0.25112   0.00000  Uiso   1.00
C101   C     0.53454   0.18335   0.04883   0.00000  Uiso   1.00
C102   C     0.48016   0.21100   0.45787   0.00000  Uiso   1.00
C103   C     0.58313   0.17665   0.02487   0.00000  Uiso   1.00
C104   C     0.43151   0.21729   0.48184   0.00000  Uiso   1.00
C105   C     0.64108   0.02185   0.22225   0.00000  Uiso   1.00
C106   C     0.35831   0.31149   0.27542   0.00000  Uiso   1.00
C107   C     0.64041   0.31213   0.22429   0.00000  Uiso   1.00
C108   C     0.36506   0.02035   0.26755   0.00000  Uiso   1.00
C109   C     0.66477   0.29043   0.25156   0.00000  Uiso   1.00
C110   C     0.33611   0.04271   0.24510   0.00000  Uiso   1.00
C111   C     0.51693   0.13988   0.27752   0.00000  Uiso   1.00
C112   C     0.48307   0.19404   0.22322   0.00000  Uiso   1.00
C113   C     0.46683   0.14060   0.27794   0.00000  Uiso   1.00
C114   C     0.53313   0.19308   0.22253   0.00000  Uiso   1.00
C115   C     0.63900   0.16590   0.33618   0.00000  Uiso   1.00
C116   C     0.36111   0.16763   0.16391   0.00000  Uiso   1.00
C117   C     0.62391   0.16704   0.38544   0.00000  Uiso   1.00
C118   C     0.37765   0.17538   0.11525   0.00000  Uiso   1.00
C119   C     0.64580   0.16857   0.45497   0.00000  Uiso   1.00
C120   C     0.36462   0.20859   0.04909   0.00000  Uiso   1.00
C121   C     0.65950   0.16679   0.40858   0.00000  Uiso   1.00
C122   C     0.34654   0.19474   0.09332   0.00000  Uiso   1.00
C123   C     0.57414   0.16920   0.40978   0.00000  Uiso   1.00
C124   C     0.42705   0.16850   0.09181   0.00000  Uiso   1.00
C125   C     0.56109   0.17950   0.45535   0.00000  Uiso   1.00
C126   C     0.44694   0.18691   0.04886   0.00000  Uiso   1.00
C127   C     0.59676   0.17464   0.47854   0.00000  Uiso   1.00
C128   C     0.41428   0.20428   0.02652   0.00000  Uiso   1.00
C129   C     0.51284   0.19138   0.47908   0.00000  Uiso   1.00
C130   C     0.49779   0.18619   0.02626   0.00000  Uiso   1.00
Cu131  Cu    0.38022   0.16667   0.25000   0.00000  Uiso   1.00
Cu132  Cu    0.61978   0.16666   0.25000   0.00000  Uiso   1.00
H133   H     0.61025   0.17374   0.04292   0.00000  Uiso   1.00
H134   H     0.40700   0.23190   0.46501   0.00000  Uiso   1.00
H135   H     0.64175   0.19989   0.11064   0.00000  Uiso   1.00
H136   H     0.36462   0.16408   0.39098   0.00000  Uiso   1.00
H137   H     0.34036   0.16617   0.47230   0.00000  Uiso   1.00
H138   H     0.33995   0.22349   0.03269   0.00000  Uiso   1.00
H139   H     0.44076   0.12071   0.30093   0.00000  Uiso   1.00
H140   H     0.55896   0.21367   0.20024   0.00000  Uiso   1.00
N141   N     0.45069   0.16668   0.24999   0.00000  Uiso   1.00
N142   N     0.54931   0.16666   0.25001   0.00000  Uiso   1.00
O143   O     0.37291   0.10655   0.25000   0.00000  Uiso   1.00
O144   O     0.62709   0.22678   0.25000   0.00000  Uiso   1.00
O145   O     0.62706   0.10654   0.25001   0.00000  Uiso   1.00
O146   O     0.37294   0.22679   0.25000   0.00000  Uiso   1.00
O147   O     0.35186   0.16668   0.31492   0.00000  Uiso   1.00
O148   O     0.64814   0.16666   0.18509   0.00000  Uiso   1.00
O149   O     0.60600   0.16667   0.31492   0.00000  Uiso   1.00
O150   O     0.39400   0.16667   0.18508   0.00000  Uiso   1.00
O151   O     0.45495   0.14216   0.11035   0.00000  Uiso   1.00
C152   C     0.44780   0.10162   0.09893   0.00000  Uiso   1.00
H153   H     0.45938   0.09812   0.06201   0.00000  Uiso   1.00
H154   H     0.40911   0.09199   0.11330   0.00000  Uiso   1.00
H155   H     0.47069   0.08058   0.11326   0.00000  Uiso   1.00
O156   O     0.53868   0.15838   0.38984   0.00000  Uiso   1.00
C157   C     0.52119   0.11878   0.40604   0.00000  Uiso   1.00
H158   H     0.50696   0.11682   0.44312   0.00000  Uiso   1.00
H159   H     0.49010   0.11153   0.39296   0.00000  Uiso   1.00
H160   H     0.55016   0.09517   0.39421   0.00000  Uiso   1.00
O161   O     0.52501   0.19285   0.09330   0.00000  Uiso   1.00
C162   C     0.53238   0.23546   0.09598   0.00000  Uiso   1.00
H163   H     0.56251   0.24855   0.06795   0.00000  Uiso   1.00
H164   H     0.54307   0.24064   0.12673   0.00000  Uiso   1.00
H165   H     0.49790   0.25247   0.09787   0.00000  Uiso   1.00
O166   O     0.49555   0.22649   0.41438   0.00000  Uiso   1.00
C167   C     0.51645   0.26548   0.41452   0.00000  Uiso   1.00
H168   H     0.54942   0.26339   0.42675   0.00000  Uiso   1.00
H169   H     0.48943   0.28737   0.43483   0.00000  Uiso   1.00
H170   H     0.52816   0.27809   0.37968   0.00000  Uiso   1.00
C171   C     0.61499   0.04341   0.19297   0.00000  Uiso   1.00
H172   H     0.58154   0.03059   0.18923   0.00000  Uiso   1.00
O173   O     0.63189   0.07416   0.17085   0.00000  Uiso   1.00
C174   C     0.37806   0.29116   0.31015   0.00000  Uiso   1.00
H175   H     0.40859   0.30450   0.31889   0.00000  Uiso   1.00
O176   O     0.35882   0.26061   0.33123   0.00000  Uiso   1.00
O177   O     0.61497   0.29120   0.20010   0.00000  Uiso   1.00
C178   C     0.64660   0.28395   0.15720   0.00000  Uiso   1.00
H179   H     0.62529   0.26958   0.13706   0.00000  Uiso   1.00
H180   H     0.34324   0.26243   0.15909   0.00000  Uiso   1.00
H181   H     0.66215   0.31298   0.13929   0.00000  Uiso   1.00
O182   O     0.40069   0.03987   0.28135   0.00000  Uiso   1.00
C183   C     0.44585   0.03531   0.24798   0.00000  Uiso   1.00
H184   H     0.44305   0.02630   0.21453   0.00000  Uiso   1.00
H185   H     0.46888   0.01233   0.25971   0.00000  Uiso   1.00
H186   H     0.46498   0.06515   0.24222   0.00000  Uiso   1.00
O187   O     0.53307   0.11532   0.30748   0.00000  Uiso   1.00
C188   C     0.52368   0.07353   0.30285   0.00000  Uiso   1.00
H189   H     0.48468   0.06618   0.31889   0.00000  Uiso   1.00
H190   H     0.54543   0.05463   0.32052   0.00000  Uiso   1.00
H191   H     0.53537   0.06455   0.26730   0.00000  Uiso   1.00
O192   O     0.46674   0.22157   0.19594   0.00000  Uiso   1.00
C193   C     0.47313   0.26221   0.20793   0.00000  Uiso   1.00
H194   H     0.51183   0.27192   0.19514   0.00000  Uiso   1.00
H195   H     0.46027   0.26608   0.24473   0.00000  Uiso   1.00
H196   H     0.45119   0.28321   0.19252   0.00000  Uiso   1.00
C197   C     0.66769   0.08746   0.24782   0.00000  Uiso   1.00
C198   C     0.99925   0.24582   0.25112   0.00000  Uiso   1.00
C199   C     0.86787   0.18335   0.04883   0.00000  Uiso   1.00
C200   C     0.81349   0.21100   0.45787   0.00000  Uiso   1.00
C201   C     0.91647   0.17665   0.02487   0.00000  Uiso   1.00
C202   C     0.76484   0.21729   0.48184   0.00000  Uiso   1.00
C203   C     0.97442   0.02185   0.22225   0.00000  Uiso   1.00
C204   C     0.69165   0.31149   0.27542   0.00000  Uiso   1.00
C205   C     0.97375   0.31213   0.22429   0.00000  Uiso   1.00
C206   C     0.69839   0.02035   0.26755   0.00000  Uiso   1.00
C207   C     0.99811   0.29043   0.25156   0.00000  Uiso   1.00
C208   C     0.66944   0.04271   0.24510   0.00000  Uiso   1.00
C209   C     0.85026   0.13988   0.27752   0.00000  Uiso   1.00
C210   C     0.81640   0.19404   0.22322   0.00000  Uiso   1.00
C211   C     0.80016   0.14060   0.27794   0.00000  Uiso   1.00
C212   C     0.86646   0.19308   0.22253   0.00000  Uiso   1.00
C213   C     0.97233   0.16590   0.33618   0.00000  Uiso   1.00
C214   C     0.69444   0.16763   0.16391   0.00000  Uiso   1.00
C215   C     0.95724   0.16704   0.38544   0.00000  Uiso   1.00
C216   C     0.71098   0.17538   0.11525   0.00000  Uiso   1.00
C217   C     0.97913   0.16857   0.45497   0.00000  Uiso   1.00
C218   C     0.69796   0.20859   0.04909   0.00000  Uiso   1.00
C219   C     0.99283   0.16679   0.40858   0.00000  Uiso   1.00
C220   C     0.67987   0.19474   0.09332   0.00000  Uiso   1.00
C221   C     0.90747   0.16920   0.40978   0.00000  Uiso   1.00
C222   C     0.76038   0.16850   0.09181   0.00000  Uiso   1.00
C223   C     0.89443   0.17950   0.45535   0.00000  Uiso   1.00
C224   C     0.78028   0.18691   0.04886   0.00000  Uiso   1.00
C225   C     0.93009   0.17464   0.47854   0.00000  Uiso   1.00
C226   C     0.74761   0.20428   0.02652   0.00000  Uiso   1.00
C227   C     0.84617   0.19138   0.47908   0.00000  Uiso   1.00
C228   C     0.83113   0.18619   0.02626   0.00000  Uiso   1.00
Cu229  Cu    0.71355   0.16667   0.25000   0.00000  Uiso   1.00
Cu230  Cu    0.95311   0.16666   0.25000   0.00000  Uiso   1.00
H231   H     0.94358   0.17374   0.04292   0.00000  Uiso   1.00
H232   H     0.74033   0.23190   0.46501   0.00000  Uiso   1.00
H233   H     0.97508   0.19989   0.11064   0.00000  Uiso   1.00
H234   H     0.69795   0.16408   0.39098   0.00000  Uiso   1.00
H235   H     0.67369   0.16617   0.47230   0.00000  Uiso   1.00
H236   H     0.67328   0.22349   0.03269   0.00000  Uiso   1.00
H237   H     0.77410   0.12071   0.30093   0.00000  Uiso   1.00
H238   H     0.89229   0.21367   0.20024   0.00000  Uiso   1.00
N239   N     0.78403   0.16668   0.24999   0.00000  Uiso   1.00
N240   N     0.88264   0.16666   0.25001   0.00000  Uiso   1.00
O241   O     0.70625   0.10655   0.25000   0.00000  Uiso   1.00
O242   O     0.96042   0.22678   0.25000   0.00000  Uiso   1.00
O243   O     0.96039   0.10654   0.25001   0.00000  Uiso   1.00
O244   O     0.70628   0.22679   0.25000   0.00000  Uiso   1.00
O245   O     0.68519   0.16668   0.31492   0.00000  Uiso   1.00
O246   O     0.98148   0.16666   0.18509   0.00000  Uiso   1.00
O247   O     0.93933   0.16667   0.31492   0.00000  Uiso   1.00
O248   O     0.72733   0.16667   0.18508   0.00000  Uiso   1.00
O249   O     0.78829   0.14216   0.11035   0.00000  Uiso   1.00
C250   C     0.78113   0.10162   0.09893   0.00000  Uiso   1.00
H251   H     0.79272   0.09812   0.06201   0.00000  Uiso   1.00
H252   H     0.74245   0.09199   0.11330   0.00000  Uiso   1.00
H253   H     0.80402   0.08058   0.11326   0.00000  Uiso   1.00
O254   O     0.87202   0.15838   0.38984   0.00000  Uiso   1.00
C255   C     0.85452   0.11878   0.40604   0.00000  Uiso   1.00
H256   H     0.84029   0.11682   0.44312   0.00000  Uiso   1.00
H257   H     0.82344   0.11153   0.39296   0.00000  Uiso   1.00
H258   H     0.88349   0.09517   0.39421   0.00000  Uiso   1.00
O259   O     0.85834   0.19285   0.09330   0.00000  Uiso   1.00
C260   C     0.86571   0.23546   0.09598   0.00000  Uiso   1.00
H261   H     0.89584   0.24855   0.06795   0.00000  Uiso   1.00
H262   H     0.87640   0.24064   0.12673   0.00000  Uiso   1.00
H263   H     0.83123   0.25247   0.09787   0.00000  Uiso   1.00
O264   O     0.82888   0.22649   0.41438   0.00000  Uiso   1.00
C265   C     0.84978   0.26548   0.41452   0.00000  Uiso   1.00
H266   H     0.88275   0.26339   0.42675   0.00000  Uiso   1.00
H267   H     0.82276   0.28737   0.43483   0.00000  Uiso   1.00
H268   H     0.86149   0.27809   0.37968   0.00000  Uiso   1.00
C269   C     0.94833   0.04341   0.19297   0.00000  Uiso   1.00
H270   H     0.91487   0.03059   0.18923   0.00000  Uiso   1.00
O271   O     0.96522   0.07416   0.17085   0.00000  Uiso   1.00
C272   C     0.71139   0.29116   0.31015   0.00000  Uiso   1.00
H273   H     0.74192   0.30450   0.31889   0.00000  Uiso   1.00
O274   O     0.69215   0.26061   0.33123   0.00000  Uiso   1.00
O275   O     0.94830   0.29120   0.20010   0.00000  Uiso   1.00
C276   C     0.97994   0.28395   0.15720   0.00000  Uiso   1.00
H277   H     0.95862   0.26958   0.13706   0.00000  Uiso   1.00
H278   H     0.67658   0.26243   0.15909   0.00000  Uiso   1.00
H279   H     0.99548   0.31298   0.13929   0.00000  Uiso   1.00
O280   O     0.73402   0.03987   0.28135   0.00000  Uiso   1.00
C281   C     0.77919   0.03531   0.24798   0.00000  Uiso   1.00
H282   H     0.77638   0.02630   0.21453   0.00000  Uiso   1.00
H283   H     0.80221   0.01233   0.25971   0.00000  Uiso   1.00
H284   H     0.79831   0.06515   0.24222   0.00000  Uiso   1.00
O285   O     0.86640   0.11532   0.30748   0.00000  Uiso   1.00
C286   C     0.85702   0.07353   0.30285   0.00000  Uiso   1.00
H287   H     0.81801   0.06618   0.31889   0.00000  Uiso   1.00
H288   H     0.87876   0.05463   0.32052   0.00000  Uiso   1.00
H289   H     0.86870   0.06455   0.26730   0.00000  Uiso   1.00
O290   O     0.80007   0.22157   0.19594   0.00000  Uiso   1.00
C291   C     0.80647   0.26221   0.20793   0.00000  Uiso   1.00
H292   H     0.84516   0.27192   0.19514   0.00000  Uiso   1.00
H293   H     0.79361   0.26608   0.24473   0.00000  Uiso   1.00
H294   H     0.78452   0.28321   0.19252   0.00000  Uiso   1.00
C295   C     0.00102   0.42079   0.24782   0.00000  Uiso   1.00
C296   C     0.33259   0.57916   0.25112   0.00000  Uiso   1.00
C297   C     0.20121   0.51669   0.04883   0.00000  Uiso   1.00
C298   C     0.14682   0.54433   0.45787   0.00000  Uiso   1.00
C299   C     0.24980   0.50998   0.02487   0.00000  Uiso   1.00
C300   C     0.09818   0.55063   0.48184   0.00000  Uiso   1.00
C301   C     0.30775   0.35518   0.22225   0.00000  Uiso   1.00
C302   C     0.02498   0.64483   0.27542   0.00000  Uiso   1.00
C303   C     0.30708   0.64547   0.22429   0.00000  Uiso   1.00
C304   C     0.03172   0.35369   0.26755   0.00000  Uiso   1.00
C305   C     0.33144   0.62376   0.25156   0.00000  Uiso   1.00
C306   C     0.00277   0.37605   0.24510   0.00000  Uiso   1.00
C307   C     0.18360   0.47321   0.27752   0.00000  Uiso   1.00
C308   C     0.14974   0.52737   0.22322   0.00000  Uiso   1.00
C309   C     0.13350   0.47394   0.27794   0.00000  Uiso   1.00
C310   C     0.19980   0.52641   0.22253   0.00000  Uiso   1.00
C311   C     0.30567   0.49924   0.33618   0.00000  Uiso   1.00
C312   C     0.02777   0.50096   0.16391   0.00000  Uiso   1.00
C313   C     0.29058   0.50037   0.38544   0.00000  Uiso   1.00
C314   C     0.04432   0.50872   0.11525   0.00000  Uiso   1.00
C315   C     0.31247   0.50190   0.45497   0.00000  Uiso   1.00
C316   C     0.03129   0.54193   0.04909   0.00000  Uiso   1.00
C317   C     0.32617   0.50012   0.40858   0.00000  Uiso   1.00
C318   C     0.01321   0.52807   0.09332   0.00000  Uiso   1.00
C319   C     0.24080   0.50254   0.40978   0.00000  Uiso   1.00
C320   C     0.09371   0.50184   0.09181   0.00000  Uiso   1.00
C321   C     0.22776   0.51283   0.45535   0.00000  Uiso   1.00
C322   C     0.11361   0.52024   0.04886   0.00000  Uiso   1.00
C323   C     0.26342   0.50798   0.47854   0.00000  Uiso   1.00
C324   C     0.08095   0.53761   0.02652   0.00000  Uiso   1.00
C325   C     0.17951   0.52471   0.47908   0.00000  Uiso   1.00
C326   C     0.16446   0.51952   0.02626   0.00000  Uiso   1.00
Cu327  Cu    0.04689   0.50001   0.25000   0.00000  Uiso   1.00
Cu328  Cu    0.28645   0.49999   0.25000   0.00000  Uiso   1.00
H329   H     0.27691   0.50707   0.04292   0.00000  Uiso   1.00
H330   H     0.07366   0.56523   0.46501   0.00000  Uiso   1.00
H331   H     0.30841   0.53322   0.11064   0.00000  Uiso   1.00
H332   H     0.03128   0.49741   0.39098   0.00000  Uiso   1.00
H333   H     0.00702   0.49951   0.47230   0.00000  Uiso   1.00
H334   H     0.00661   0.55682   0.03269   0.00000  Uiso   1.00
H335   H     0.10743   0.45404   0.30093   0.00000  Uiso   1.00
H336   H     0.22562   0.54700   0.20024   0.00000  Uiso   1.00
N337   N     0.11736   0.50001   0.24999   0.00000  Uiso   1.00
N338   N     0.21597   0.49999   0.25001   0.00000  Uiso   1.00
O339   O     0.03958   0.43989   0.25000   0.00000  Uiso   1.00
O340   O     0.29375   0.56011   0.25000   0.00000  Uiso   1.00
O341   O     0.29372   0.43988   0.25001   0.00000  Uiso   1.00
O342   O     0.03961   0.56012   0.25000   0.00000  Uiso   1.00
O343   O     0.01852   0.50001   0.31492   0.00000  Uiso   1.00
O344   O     0.31481   0.49999   0.18509   0.00000  Uiso   1.00
O345   O     0.27267   0.50000   0.31492   0.00000  Uiso   1.00
O346   O     0.06067   0.50000   0.18508   0.00000  Uiso   1.00
O347   O     0.12162   0.47550   0.11035   0.00000  Uiso   1.00
C348   C     0.11447   0.43495   0.09893   0.00000  Uiso   1.00
H349   H     0.12605   0.43146   0.06201   0.00000  Uiso   1.00
H350   H     0.07578   0.42532   0.11330   0.00000  Uiso   1.00
H351   H     0.13735   0.41392   0.11326   0.00000  Uiso   1.00
O352   O     0.20535   0.49172   0.38984   0.00000  Uiso   1.00
C353   C     0.18786   0.45211   0.40604   0.00000  Uiso   1.00
H354   H     0.17362   0.45015   0.44312   0.00000  Uiso   1.00
H355   H     0.15677   0.44486   0.39296   0.00000  Uiso   1.00
H356   H     0.21683   0.42850   0.39421   0.00000  Uiso   1.00
O357   O     0.19168   0.52619   0.09330   0.00000  Uiso   1.00
C358   C     0.19905   0.56879   0.09598   0.00000  Uiso   1.00
H359   H     0.22918   0.58188   0.06795   0.00000  Uiso   1.00
H360   H     0.20973   0.57397   0.12673   0.00000  Uiso   1.00
H361   H     0.16456   0.58580   0.09787   0.00000  Uiso   1.00
O362   O     0.16221   0.55982   0.41438   0.00000  Uiso   1.00
C363   C     0.18311   0.59882   0.41452   0.00000  Uiso   1.00
H364   H     0.21609   0.59672   0.42675   0.00000  Uiso   1.00
H365   H     0.15609   0.62071   0.43483   0.00000  Uiso   1.00
H366   H     0.19483   0.61142   0.37968   0.00000  Uiso   1.00
C367   C     0.28166   0.37674   0.19297   0.00000  Uiso   1.00
H368   H     0.24820   0.36392   0.18923   0.00000  Uiso   1.00
O369   O     0.29856   0.40749   0.17085   0.00000  Uiso   1.00
C370   C     0.04473   0.62449   0.31015   0.00000  Uiso   1.00
H371   H     0.07526   0.63783   0.31889   0.00000  Uiso   1.00
O372   O     0.02549   0.59394   0.33123   0.00000  Uiso   1.00
O373   O     0.28164   0.62453   0.20010   0.00000  Uiso   1.00
C374   C     0.31327   0.61728   0.15720   0.00000  Uiso   1.00
H375   H     0.29196   0.60292   0.13706   0.00000  Uiso   1.00
H376   H     0.00991   0.59576   0.15909   0.00000  Uiso   1.00
H377   H     0.32881   0.64631   0.13929   0.00000  Uiso   1.00
O378   O     0.06735   0.37320   0.28135   0.00000  Uiso   1.00
C379   C     0.11252   0.36864   0.24798   0.00000  Uiso   1.00
H380   H     0.10971   0.35963   0.21453   0.00000  Uiso   1.00
H381   H     0.13554   0.34566   0.25971   0.00000  Uiso   1.00
H382   H     0.13164   0.39848   0.24222   0.00000  Uiso   1.00
O383   O     0.19973   0.44865   0.30748   0.00000  Uiso   1.00
C384   C     0.19035   0.40686   0.30285   0.00000  Uiso   1.00
H385   H     0.15134   0.39951   0.31889   0.00000  Uiso   1.00
H386   H     0.21210   0.38797   0.32052   0.00000  Uiso   1.00
H387   H     0.20204   0.39788   0.26730   0.00000  Uiso   1.00
O388   O     0.13340   0.55490   0.19594   0.00000  Uiso   1.00
C389   C     0.13980   0.59554   0.20793   0.00000  Uiso   1.00
H390   H     0.17849   0.60525   0.19514   0.00000  Uiso   1.00
H391   H     0.12694   0.59941   0.24473   0.00000  Uiso   1.00
H392   H     0.11786   0.61655   0.19252   0.00000  Uiso   1.00
C393   C     0.33435   0.42079   0.24782   0.00000  Uiso   1.00
C394   C     0.66592   0.57916   0.25112   0.00000  Uiso   1.00
C395   C     0.53454   0.51669   0.04883   0.00000  Uiso   1.00
C396   C     0.48016   0.54433   0.45787   0.00000  Uiso   1.00
C397   C     0.58313   0.50998   0.02487   0.00000  Uiso   1.00
C398   C     0.43151   0.55063   0.48184   0.00000  Uiso   1.00
C399   C     0.64108   0.35518   0.22225   0.00000  Uiso   1.00
C400   C     0.35831   0.64483   0.27542   0.00000  Uiso   1.00
C401   C     0.64041   0.64547   0.22429   0.00000  Uiso   1.00
C402   C     0.36506   0.35369   0.26755   0.00000  Uiso   1.00
C403   C     0.66477   0.62376   0.25156   0.00000  Uiso   1.00
C404   C     0.33611   0.37605   0.24510   0.00000  Uiso   1.00
C405   C     0.51693   0.47321   0.27752   0.00000  Uiso   1.00
C406   C     0.48307   0.52737   0.22322   0.00000  Uiso   1.00
C407   C     0.46683   0.47394   0.27794   0.00000  Uiso   1.00
C408   C     0.53313   0.52641   0.22253   0.00000  Uiso   1.00
C409   C     0.63900   0.49924   0.33618   0.00000  Uiso   1.00
C410   C     0.36111   0.50096   0.16391   0.00000  Uiso   1.00
C411   C     0.62391   0.50037   0.38544   0.00000  Uiso   1.00
C412   C     0.37765   0.50872   0.11525   0.00000  Uiso   1.00
C413   C     0.64580   0.50190   0.45497   0.00000  Uiso   1.00
C414   C     0.36462   0.54193   0.04909   0.00000  Uiso   1.00
C415   C     0.65950   0.50012   0.40858   0.00000  Uiso   1.00
C416   C     0.34654   0.52807   0.09332   0.00000  Uiso   1.00
C417   C     0.57414   0.50254   0.40978   0.00000  Uiso   1.00
C418   C     0.42705   0.50184   0.09181   0.00000  Uiso   1.00
C419   C     0.56109   0.51283   0.45535   0.00000  Uiso   1.00
C420   C     0.44694   0.52024   0.04886   0.00000  Uiso   1.00
C421   C     0.59676   0.50798   0.47854   0.00000  Uiso   1.00
C422   C     0.41428   0.53761   0.02652   0.00000  Uiso   1.00
C423   C     0.51284   0.52471   0.47908   0.00000  Uiso   1.00
C424   C     0.49779   0.51952   0.02626   0.00000  Uiso   1.00
Cu425  Cu    0.38022   0.50001   0.25000   0.00000  Uiso   1.00
Cu426  Cu    0.61978   0.49999   0.25000   0.00000  Uiso   1.00
H427   H     0.61025   0.50707   0.04292   0.00000  Uiso   1.00
H428   H     0.40700   0.56523   0.46501   0.00000  Uiso   1.00
H429   H     0.64175   0.53322   0.11064   0.00000  Uiso   1.00
H430   H     0.36462   0.49741   0.39098   0.00000  Uiso   1.00
H431   H     0.34036   0.49951   0.47230   0.00000  Uiso   1.00
H432   H     0.33995   0.55682   0.03269   0.00000  Uiso   1.00
H433   H     0.44076   0.45404   0.30093   0.00000  Uiso   1.00
H434   H     0.55896   0.54700   0.20024   0.00000  Uiso   1.00
N435   N     0.45069   0.50001   0.24999   0.00000  Uiso   1.00
N436   N     0.54931   0.49999   0.25001   0.00000  Uiso   1.00
O437   O     0.37291   0.43989   0.25000   0.00000  Uiso   1.00
O438   O     0.62709   0.56011   0.25000   0.00000  Uiso   1.00
O439   O     0.62706   0.43988   0.25001   0.00000  Uiso   1.00
O440   O     0.37294   0.56012   0.25000   0.00000  Uiso   1.00
O441   O     0.35186   0.50001   0.31492   0.00000  Uiso   1.00
O442   O     0.64814   0.49999   0.18509   0.00000  Uiso   1.00
O443   O     0.60600   0.50000   0.31492   0.00000  Uiso   1.00
O444   O     0.39400   0.50000   0.18508   0.00000  Uiso   1.00
O445   O     0.45495   0.47550   0.11035   0.00000  Uiso   1.00
C446   C     0.44780   0.43495   0.09893   0.00000  Uiso   1.00
H447   H     0.45938   0.43146   0.06201   0.00000  Uiso   1.00
H448   H     0.40911   0.42532   0.11330   0.00000  Uiso   1.00
H449   H     0.47069   0.41392   0.11326   0.00000  Uiso   1.00
O450   O     0.53868   0.49172   0.38984   0.00000  Uiso   1.00
C451   C     0.52119   0.45211   0.40604   0.00000  Uiso   1.00
H452   H     0.50696   0.45015   0.44312   0.00000  Uiso   1.00
H453   H     0.49010   0.44486   0.39296   0.00000  Uiso   1.00
H454   H     0.55016   0.42850   0.39421   0.00000  Uiso   1.00
O455   O     0.52501   0.52619   0.09330   0.00000  Uiso   1.00
C456   C     0.53238   0.56879   0.09598   0.00000  Uiso   1.00
H457   H     0.56251   0.58188   0.06795   0.00000  Uiso   1.00
H458   H     0.54307   0.57397   0.12673   0.00000  Uiso   1.00
H459   H     0.49790   0.58580   0.09787   0.00000  Uiso   1.00
O460   O     0.49555   0.55982   0.41438   0.00000  Uiso   1.00
C461   C     0.51645   0.59882   0.41452   0.00000  Uiso   1.00
H462   H     0.54942   0.59672   0.42675   0.00000  Uiso   1.00
H463   H     0.48943   0.62071   0.43483   0.00000  Uiso   1.00
H464   H     0.52816   0.61142   0.37968   0.00000  Uiso   1.00
C465   C     0.61499   0.37674   0.19297   0.00000  Uiso   1.00
H466   H     0.58154   0.36392   0.18923   0.00000  Uiso   1.00
O467   O     0.63189   0.40749   0.17085   0.00000  Uiso   1.00
C468   C     0.37806   0.62449   0.31015   0.00000  Uiso   1.00
H469   H     0.40859   0.63783   0.31889   0.00000  Uiso   1.00
O470   O     0.35882   0.59394   0.33123   0.00000  Uiso   1.00
O471   O     0.61497   0.62453   0.20010   0.00000  Uiso   1.00
C472   C     0.64660   0.61728   0.15720   0.00000  Uiso   1.00
H473   H     0.62529   0.60292   0.13706   0.00000  Uiso   1.00
H474   H     0.34324   0.59576   0.15909   0.00000  Uiso   1.00
H475   H     0.66215   0.64631   0.13929   0.00000  Uiso   1.00
O476   O     0.40069   0.37320   0.28135   0.00000  Uiso   1.00
C477   C     0.44585   0.36864   0.24798   0.00000  Uiso   1.00
H478   H     0.44305   0.35963   0.21453   0.00000  Uiso   1.00
H479   H     0.46888   0.34566   0.25971   0.00000  Uiso   1.00
H480   H     0.46498   0.39848   0.24222   0.00000  Uiso   1.00
O481   O     0.53307   0.44865   0.30748   0.00000  Uiso   1.00
C482   C     0.52368   0.40686   0.30285   0.00000  Uiso   1.00
H483   H     0.48468   0.39951   0.31889   0.00000  Uiso   1.00
H484   H     0.54543   0.38797   0.32052   0.00000  Uiso   1.00
H485   H     0.53537   0.39788   0.26730   0.00000  Uiso   1.00
O486   O     0.46674   0.55490   0.19594   0.00000  Uiso   1.00
C487   C     0.47313   0.59554   0.20793   0.00000  Uiso   1.00
H488   H     0.51183   0.60525   0.19514   0.00000  Uiso   1.00
H489   H     0.46027   0.59941   0.24473   0.00000  Uiso   1.00
H490   H     0.45119   0.61655   0.19252   0.00000  Uiso   1.00
C491   C     0.66769   0.42079   0.24782   0.00000  Uiso   1.00
C492   C     0.99925   0.57916   0.25112   0.00000  Uiso   1.00
C493   C     0.86787   0.51669   0.04883   0.00000  Uiso   1.00
C494   C     0.81349   0.54433   0.45787   0.00000  Uiso   1.00
C495   C     0.91647   0.50998   0.02487   0.00000  Uiso   1.00
C496   C     0.76484   0.55063   0.48184   0.00000  Uiso   1.00
C497   C     0.97442   0.35518   0.22225   0.00000  Uiso   1.00
C498   C     0.69165   0.64483   0.27542   0.00000  Uiso   1.00
C499   C     0.97375   0.64547   0.22429   0.00000  Uiso   1.00
C500   C     0.69839   0.35369   0.26755   0.00000  Uiso   1.00
C501   C     0.99811   0.62376   0.25156   0.00000  Uiso   1.00
C502   C     0.66944   0.37605   0.24510   0.00000  Uiso   1.00
C503   C     0.85026   0.47321   0.27752   0.00000  Uiso   1.00
C504   C     0.81640   0.52737   0.22322   0.00000  Uiso   1.00
C505   C     0.80016   0.47394   0.27794   0.00000  Uiso   1.00
C506   C     0.86646   0.52641   0.22253   0.00000  Uiso   1.00
C507   C     0.97233   0.49924   0.33618   0.00000  Uiso   1.00
C508   C     0.69444   0.50096   0.16391   0.00000  Uiso   1.00
C509   C     0.95724   0.50037   0.38544   0.00000  Uiso   1.00
C510   C     0.71098   0.50872   0.11525   0.00000  Uiso   1.00
C511   C     0.97913   0.50190   0.45497   0.00000  Uiso   1.00
C512   C     0.69796   0.54193   0.04909   0.00000  Uiso   1.00
C513   C     0.99283   0.50012   0.40858   0.00000  Uiso   1.00
C514   C     0.67987   0.52807   0.09332   0.00000  Uiso   1.00
C515   C     0.90747   0.50254   0.40978   0.00000  Uiso   1.00
C516   C     0.76038   0.50184   0.09181   0.00000  Uiso   1.00
C517   C     0.89443   0.51283   0.45535   0.00000  Uiso   1.00
C518   C     0.78028   0.52024   0.04886   0.00000  Uiso   1.00
C519   C     0.93009   0.50798   0.47854   0.00000  Uiso   1.00
C520   C     0.74761   0.53761   0.02652   0.00000  Uiso   1.00
C521   C     0.84617   0.52471   0.47908   0.00000  Uiso   1.00
C522   C     0.83113   0.51952   0.02626   0.00000  Uiso   1.00
Cu523  Cu    0.71355   0.50001   0.25000   0.00000  Uiso   1.00
Cu524  Cu    0.95311   0.49999   0.25000   0.00000  Uiso   1.00
H525   H     0.94358   0.50707   0.04292   0.00000  Uiso   1.00
H526   H     0.74033   0.56523   0.46501   0.00000  Uiso   1.00
H527   H     0.97508   0.53322   0.11064   0.00000  Uiso   1.00
H528   H     0.69795   0.49741   0.39098   0.00000  Uiso   1.00
H529   H     0.67369   0.49951   0.47230   0.00000  Uiso   1.00
H530   H     0.67328   0.55682   0.03269   0.00000  Uiso   1.00
H531   H     0.77410   0.45404   0.30093   0.00000  Uiso   1.00
H532   H     0.89229   0.54700   0.20024   0.00000  Uiso   1.00
N533   N     0.78403   0.50001   0.24999   0.00000  Uiso   1.00
N534   N     0.88264   0.49999   0.25001   0.00000  Uiso   1.00
O535   O     0.70625   0.43989   0.25000   0.00000  Uiso   1.00
O536   O     0.96042   0.56011   0.25000   0.00000  Uiso   1.00
O537   O     0.96039   0.43988   0.25001   0.00000  Uiso   1.00
O538   O     0.70628   0.56012   0.25000   0.00000  Uiso   1.00
O539   O     0.68519   0.50001   0.31492   0.00000  Uiso   1.00
O540   O     0.98148   0.49999   0.18509   0.00000  Uiso   1.00
O541   O     0.93933   0.50000   0.31492   0.00000  Uiso   1.00
O542   O     0.72733   0.50000   0.18508   0.00000  Uiso   1.00
O543   O     0.78829   0.47550   0.11035   0.00000  Uiso   1.00
C544   C     0.78113   0.43495   0.09893   0.00000  Uiso   1.00
H545   H     0.79272   0.43146   0.06201   0.00000  Uiso   1.00
H546   H     0.74245   0.42532   0.11330   0.00000  Uiso   1.00
H547   H     0.80402   0.41392   0.11326   0.00000  Uiso   1.00
O548   O     0.87202   0.49172   0.38984   0.00000  Uiso   1.00
C549   C     0.85452   0.45211   0.40604   0.00000  Uiso   1.00
H550   H     0.84029   0.45015   0.44312   0.00000  Uiso   1.00
H551   H     0.82344   0.44486   0.39296   0.00000  Uiso   1.00
H552   H     0.88349   0.42850   0.39421   0.00000  Uiso   1.00
O553   O     0.85834   0.52619   0.09330   0.00000  Uiso   1.00
C554   C     0.86571   0.56879   0.09598   0.00000  Uiso   1.00
H555   H     0.89584   0.58188   0.06795   0.00000  Uiso   1.00
H556   H     0.87640   0.57397   0.12673   0.00000  Uiso   1.00
H557   H     0.83123   0.58580   0.09787   0.00000  Uiso   1.00
O558   O     0.82888   0.55982   0.41438   0.00000  Uiso   1.00
C559   C     0.84978   0.59882   0.41452   0.00000  Uiso   1.00
H560   H     0.88275   0.59672   0.42675   0.00000  Uiso   1.00
H561   H     0.82276   0.62071   0.43483   0.00000  Uiso   1.00
H562   H     0.86149   0.61142   0.37968   0.00000  Uiso   1.00
C563   C     0.94833   0.37674   0.19297   0.00000  Uiso   1.00
H564   H     0.91487   0.36392   0.18923   0.00000  Uiso   1.00
O565   O     0.96522   0.40749   0.17085   0.00000  Uiso   1.00
C566   C     0.71139   0.62449   0.31015   0.00000  Uiso   1.00
H567   H     0.74192   0.63783   0.31889   0.00000  Uiso   1.00
O568   O     0.69215   0.59394   0.33123   0.00000  Uiso   1.00
O569   O     0.94830   0.62453   0.20010   0.00000  Uiso   1.00
C570   C     0.97994   0.61728   0.15720   0.00000  Uiso   1.00
H571   H     0.95862   0.60292   0.13706   0.00000  Uiso   1.00
H572   H     0.67658   0.59576   0.15909   0.00000  Uiso   1.00
H573   H     0.99548   0.64631   0.13929   0.00000  Uiso   1.00
O574   O     0.73402   0.37320   0.28135   0.00000  Uiso   1.00
C575   C     0.77919   0.36864   0.24798   0.00000  Uiso   1.00
H576   H     0.77638   0.35963   0.21453   0.00000  Uiso   1.00
H577   H     0.80221   0.34566   0.25971   0.00000  Uiso   1.00
H578   H     0.79831   0.39848   0.24222   0.00000  Uiso   1.00
O579   O     0.86640   0.44865   0.30748   0.00000  Uiso   1.00
C580   C     0.85702   0.40686   0.30285   0.00000  Uiso   1.00
H581   H     0.81801   0.39951   0.31889   0.00000  Uiso   1.00
H582   H     0.87876   0.38797   0.32052   0.00000  Uiso   1.00
H583   H     0.86870   0.39788   0.26730   0.00000  Uiso   1.00
O584   O     0.80007   0.55490   0.19594   0.00000  Uiso   1.00
C585   C     0.80647   0.59554   0.20793   0.00000  Uiso   1.00
H586   H     0.84516   0.60525   0.19514   0.00000  Uiso   1.00
H587   H     0.79361   0.59941   0.24473   0.00000  Uiso   1.00
H588   H     0.78452   0.61655   0.19252   0.00000  Uiso   1.00
C589   C     0.00102   0.75412   0.24782   0.00000  Uiso   1.00
C590   C     0.33259   0.91249   0.25112   0.00000  Uiso   1.00
C591   C     0.20121   0.85002   0.04883   0.00000  Uiso   1.00
C592   C     0.14682   0.87767   0.45787   0.00000  Uiso   1.00
C593   C     0.24980   0.84332   0.02487   0.00000  Uiso   1.00
C594   C     0.09818   0.88396   0.48184   0.00000  Uiso   1.00
C595   C     0.30775   0.68851   0.22225   0.00000  Uiso   1.00
C596   C     0.02498   0.97816   0.27542   0.00000  Uiso   1.00
C597   C     0.30708   0.97880   0.22429   0.00000  Uiso   1.00
C598   C     0.03172   0.68702   0.26755   0.00000  Uiso   1.00
C599   C     0.33144   0.95709   0.25156   0.00000  Uiso   1.00
C600   C     0.00277   0.70938   0.24510   0.00000  Uiso   1.00
C601   C     0.18360   0.80655   0.27752   0.00000  Uiso   1.00
C602   C     0.14974   0.86070   0.22322   0.00000  Uiso   1.00
C603   C     0.13350   0.80727   0.27794   0.00000  Uiso   1.00
C604   C     0.19980   0.85975   0.22253   0.00000  Uiso   1.00
C605   C     0.30567   0.83257   0.33618   0.00000  Uiso   1.00
C606   C     0.02777   0.83430   0.16391   0.00000  Uiso   1.00
C607   C     0.29058   0.83370   0.38544   0.00000  Uiso   1.00
C608   C     0.04432   0.84205   0.11525   0.00000  Uiso   1.00
C609   C     0.31247   0.83524   0.45497   0.00000  Uiso   1.00
C610   C     0.03129   0.87526   0.04909   0.00000  Uiso   1.00
C611   C     0.32617   0.83345   0.40858   0.00000  Uiso   1.00
C612   C     0.01321   0.86141   0.09332   0.00000  Uiso   1.00
C613   C     0.24080   0.83587   0.40978   0.00000  Uiso   1.00
C614   C     0.09371   0.83517   0.09181   0.00000  Uiso   1.00
C615   C     0.22776   0.84617   0.45535   0.00000  Uiso   1.00
C616   C     0.11361   0.85357   0.04886   0.00000  Uiso   1.00
C617   C     0.26342   0.84131   0.47854   0.00000  Uiso   1.00
C618   C     0.08095   0.87095   0.02652   0.00000  Uiso   1.00
C619   C     0.17951   0.85804   0.47908   0.00000  Uiso   1.00
C620   C     0.16446   0.85286   0.02626   0.00000  Uiso   1.00
Cu621  Cu    0.04689   0.83334   0.25000   0.00000  Uiso   1.00
Cu622  Cu    0.28645   0.83333   0.25000   0.00000  Uiso   1.00
H623   H     0.27691   0.84040   0.04292   0.00000  Uiso   1.00
H624   H     0.07366   0.89856   0.46501   0.00000  Uiso   1.00
H625   H     0.30841   0.86655   0.11064   0.00000  Uiso   1.00
H626   H     0.03128   0.83074   0.39098   0.00000  Uiso   1.00
H627   H     0.00702   0.83284   0.47230   0.00000  Uiso   1.00
H628   H     0.00661   0.89015   0.03269   0.00000  Uiso   1.00
H629   H     0.10743   0.78738   0.30093   0.00000  Uiso   1.00
H630   H     0.22562   0.88033   0.20024   0.00000  Uiso   1.00
N631   N     0.11736   0.83334   0.24999   0.00000  Uiso   1.00
N632   N     0.21597   0.83332   0.25001   0.00000  Uiso   1.00
O633   O     0.03958   0.77322   0.25000   0.00000  Uiso   1.00
O634   O     0.29375   0.89345   0.25000   0.00000  Uiso   1.00
O635   O     0.29372   0.77321   0.25001   0.00000  Uiso   1.00
O636   O     0.03961   0.89346   0.25000   0.00000  Uiso   1.00
O637   O     0.01852   0.83334   0.31492   0.00000  Uiso   1.00
O638   O     0.31481   0.83332   0.18509   0.00000  Uiso   1.00
O639   O     0.27267   0.83333   0.31492   0.00000  Uiso   1.00
O640   O     0.06067   0.83333   0.18508   0.00000  Uiso   1.00
O641   O     0.12162   0.80883   0.11035   0.00000  Uiso   1.00
C642   C     0.11447   0.76829   0.09893   0.00000  Uiso   1.00
H643   H     0.12605   0.76479   0.06201   0.00000  Uiso   1.00
H644   H     0.07578   0.75866   0.11330   0.00000  Uiso   1.00
H645   H     0.13735   0.74725   0.11326   0.00000  Uiso   1.00
O646   O     0.20535   0.82505   0.38984   0.00000  Uiso   1.00
C647   C     0.18786   0.78545   0.40604   0.00000  Uiso   1.00
H648   H     0.17362   0.78348   0.44312   0.00000  Uiso   1.00
H649   H     0.15677   0.77819   0.39296   0.00000  Uiso   1.00
H650   H     0.21683   0.76184   0.39421   0.00000  Uiso   1.00
O651   O     0.19168   0.85952   0.09330   0.00000  Uiso   1.00
C652   C     0.19905   0.90212   0.09598   0.00000  Uiso   1.00
H653   H     0.22918   0.91521   0.06795   0.00000  Uiso   1.00
H654   H     0.20973   0.90731   0.12673   0.00000  Uiso   1.00
H655   H     0.16456   0.91914   0.09787   0.00000  Uiso   1.00
O656   O     0.16221   0.89316   0.41438   0.00000  Uiso   1.00
C657   C     0.18311   0.93215   0.41452   0.00000  Uiso   1.00
H658   H     0.21609   0.93006   0.42675   0.00000  Uiso   1.00
H659   H     0.15609   0.95404   0.43483   0.00000  Uiso   1.00
H660   H     0.19483   0.94475   0.37968   0.00000  Uiso   1.00
C661   C     0.28166   0.71007   0.19297   0.00000  Uiso   1.00
H662   H     0.24820   0.69726   0.18923   0.00000  Uiso   1.00
O663   O     0.29856   0.74082   0.17085   0.00000  Uiso   1.00
C664   C     0.04473   0.95782   0.31015   0.00000  Uiso   1.00
H665   H     0.07526   0.97116   0.31889   0.00000  Uiso   1.00
O666   O     0.02549   0.92728   0.33123   0.00000  Uiso   1.00
O667   O     0.28164   0.95786   0.20010   0.00000  Uiso   1.00
C668   C     0.31327   0.95062   0.15720   0.00000  Uiso   1.00
H669   H     0.29196   0.93625   0.13706   0.00000  Uiso   1.00
H670   H     0.00991   0.92909   0.15909   0.00000  Uiso   1.00
H671   H     0.32881   0.97964   0.13929   0.00000  Uiso   1.00
O672   O     0.06735   0.70654   0.28135   0.00000  Uiso   1.00
C673   C     0.11252   0.70197   0.24798   0.00000  Uiso   1.00
H674   H     0.10971   0.69296   0.21453   0.00000  Uiso   1.00
H675   H     0.13554   0.67899   0.25971   0.00000  Uiso   1.00
H676   H     0.13164   0.73181   0.24222   0.00000  Uiso   1.00
O677   O     0.19973   0.78198   0.30748   0.00000  Uiso   1.00
C678   C     0.19035   0.74020   0.30285   0.00000  Uiso   1.00
H679   H     0.15134   0.73285   0.31889   0.00000  Uiso   1.00
H680   H     0.21210   0.72130   0.32052   0.00000  Uiso   1.00
H681   H     0.20204   0.73121   0.26730   0.00000  Uiso   1.00
O682   O     0.13340   0.88823   0.19594   0.00000  Uiso   1.00
C683   C     0.13980   0.92887   0.20793   0.00000  Uiso   1.00
H684   H     0.17849   0.93858   0.19514   0.00000  Uiso   1.00
H685   H     0.12694   0.93274   0.24473   0.00000  Uiso   1.00
H686   H     0.11786   0.94988   0.19252   0.00000  Uiso   1.00
C687   C     0.33435   0.75412   0.24782   0.00000  Uiso   1.00
C688   C     0.66592   0.91249   0.25112   0.00000  Uiso   1.00
C689   C     0.53454   0.85002   0.04883   0.00000  Uiso   1.00
C690   C     0.48016   0.87767   0.45787   0.00000  Uiso   1.00
C691   C     0.58313   0.84332   0.02487   0.00000  Uiso   1.00
C692   C     0.43151   0.88396   0.48184   0.00000  Uiso   1.00
C693   C     0.64108   0.68851   0.22225   0.00000  Uiso   1.00
C694   C     0.35831   0.97816   0.27542   0.00000  Uiso   1.00
C695   C     0.64041   0.97880   0.22429   0.00000  Uiso   1.00
C696   C     0.36506   0.68702   0.26755   0.00000  Uiso   1.00
C697   C     0.66477   0.95709   0.25156   0.00000  Uiso   1.00
C698   C     0.33611   0.70938   0.24510   0.00000  Uiso   1.00
C699   C     0.51693   0.80655   0.27752   0.00000  Uiso   1.00
C700   C     0.48307   0.86070   0.22322   0.00000  Uiso   1.00
C701   C     0.46683   0.80727   0.27794   0.00000  Uiso   1.00
C702   C     0.53313   0.85975   0.22253   0.00000  Uiso   1.00
C703   C     0.63900   0.83257   0.33618   0.00000  Uiso   1.00
C704   C     0.36111   0.83430   0.16391   0.00000  Uiso   1.00
C705   C     0.62391   0.83370   0.38544   0.00000  Uiso   1.00
C706   C     0.37765   0.84205   0.11525   0.00000  Uiso   1.00
C707   C     0.64580   0.83524   0.45497   0.00000  Uiso   1.00
C708   C     0.36462   0.87526   0.04909   0.00000  Uiso   1.00
C709   C     0.65950   0.83345   0.40858   0.00000  Uiso   1.00
C710   C     0.34654   0.86141   0.09332   0.00000  Uiso   1.00
C711   C     0.57414   0.83587   0.40978   0.00000  Uiso   1.00
C712   C     0.42705   0.83517   0.09181   0.00000  Uiso   1.00
C713   C     0.56109   0.84617   0.45535   0.00000  Uiso   1.00
C714   C     0.44694   0.85357   0.04886   0.00000  Uiso   1.00
C715   C     0.59676   0.84131   0.47854   0.00000  Uiso   1.00
C716   C     0.41428   0.87095   0.02652   0.00000  Uiso   1.00
C717   C     0.51284   0.85804   0.47908   0.00000  Uiso   1.00
C718   C     0.49779   0.85286   0.02626   0.00000  Uiso   1.00
Cu719  Cu    0.38022   0.83334   0.25000   0.00000  Uiso   1.00
Cu720  Cu    0.61978   0.83333   0.25000   0.00000  Uiso   1.00
H721   H     0.61025   0.84040   0.04292   0.00000  Uiso   1.00
H722   H     0.40700   0.89856   0.46501   0.00000  Uiso   1.00
H723   H     0.64175   0.86655   0.11064   0.00000  Uiso   1.00
H724   H     0.36462   0.83074   0.39098   0.00000  Uiso   1.00
H725   H     0.34036   0.83284   0.47230   0.00000  Uiso   1.00
H726   H     0.33995   0.89015   0.03269   0.00000  Uiso   1.00
H727   H     0.44076   0.78738   0.30093   0.00000  Uiso   1.00
H728   H     0.55896   0.88033   0.20024   0.00000  Uiso   1.00
N729   N     0.45069   0.83334   0.24999   0.00000  Uiso   1.00
N730   N     0.54931   0.83332   0.25001   0.00000  Uiso   1.00
O731   O     0.37291   0.77322   0.25000   0.00000  Uiso   1.00
O732   O     0.62709   0.89345   0.25000   0.00000  Uiso   1.00
O733   O     0.62706   0.77321   0.25001   0.00000  Uiso   1.00
O734   O     0.37294   0.89346   0.25000   0.00000  Uiso   1.00
O735   O     0.35186   0.83334   0.31492   0.00000  Uiso   1.00
O736   O     0.64814   0.83332   0.18509   0.00000  Uiso   1.00
O737   O     0.60600   0.83333   0.31492   0.00000  Uiso   1.00
O738   O     0.39400   0.83333   0.18508   0.00000  Uiso   1.00
O739   O     0.45495   0.80883   0.11035   0.00000  Uiso   1.00
C740   C     0.44780   0.76829   0.09893   0.00000  Uiso   1.00
H741   H     0.45938   0.76479   0.06201   0.00000  Uiso   1.00
H742   H     0.40911   0.75866   0.11330   0.00000  Uiso   1.00
H743   H     0.47069   0.74725   0.11326   0.00000  Uiso   1.00
O744   O     0.53868   0.82505   0.38984   0.00000  Uiso   1.00
C745   C     0.52119   0.78545   0.40604   0.00000  Uiso   1.00
H746   H     0.50696   0.78348   0.44312   0.00000  Uiso   1.00
H747   H     0.49010   0.77819   0.39296   0.00000  Uiso   1.00
H748   H     0.55016   0.76184   0.39421   0.00000  Uiso   1.00
O749   O     0.52501   0.85952   0.09330   0.00000  Uiso   1.00
C750   C     0.53238   0.90212   0.09598   0.00000  Uiso   1.00
H751   H     0.56251   0.91521   0.06795   0.00000  Uiso   1.00
H752   H     0.54307   0.90731   0.12673   0.00000  Uiso   1.00
H753   H     0.49790   0.91914   0.09787   0.00000  Uiso   1.00
O754   O     0.49555   0.89316   0.41438   0.00000  Uiso   1.00
C755   C     0.51645   0.93215   0.41452   0.00000  Uiso   1.00
H756   H     0.54942   0.93006   0.42675   0.00000  Uiso   1.00
H757   H     0.48943   0.95404   0.43483   0.00000  Uiso   1.00
H758   H     0.52816   0.94475   0.37968   0.00000  Uiso   1.00
C759   C     0.61499   0.71007   0.19297   0.00000  Uiso   1.00
H760   H     0.58154   0.69726   0.18923   0.00000  Uiso   1.00
O761   O     0.63189   0.74082   0.17085   0.00000  Uiso   1.00
C762   C     0.37806   0.95782   0.31015   0.00000  Uiso   1.00
H763   H     0.40859   0.97116   0.31889   0.00000  Uiso   1.00
O764   O     0.35882   0.92728   0.33123   0.00000  Uiso   1.00
O765   O     0.61497   0.95786   0.20010   0.00000  Uiso   1.00
C766   C     0.64660   0.95062   0.15720   0.00000  Uiso   1.00
H767   H     0.62529   0.93625   0.13706   0.00000  Uiso   1.00
H768   H     0.34324   0.92909   0.15909   0.00000  Uiso   1.00
H769   H     0.66215   0.97964   0.13929   0.00000  Uiso   1.00
O770   O     0.40069   0.70654   0.28135   0.00000  Uiso   1.00
C771   C     0.44585   0.70197   0.24798   0.00000  Uiso   1.00
H772   H     0.44305   0.69296   0.21453   0.00000  Uiso   1.00
H773   H     0.46888   0.67899   0.25971   0.00000  Uiso   1.00
H774   H     0.46498   0.73181   0.24222   0.00000  Uiso   1.00
O775   O     0.53307   0.78198   0.30748   0.00000  Uiso   1.00
C776   C     0.52368   0.74020   0.30285   0.00000  Uiso   1.00
H777   H     0.48468   0.73285   0.31889   0.00000  Uiso   1.00
H778   H     0.54543   0.72130   0.32052   0.00000  Uiso   1.00
H779   H     0.53537   0.73121   0.26730   0.00000  Uiso   1.00
O780   O     0.46674   0.88823   0.19594   0.00000  Uiso   1.00
C781   C     0.47313   0.92887   0.20793   0.00000  Uiso   1.00
H782   H     0.51183   0.93858   0.19514   0.00000  Uiso   1.00
H783   H     0.46027   0.93274   0.24473   0.00000  Uiso   1.00
H784   H     0.45119   0.94988   0.19252   0.00000  Uiso   1.00
C785   C     0.66769   0.75412   0.24782   0.00000  Uiso   1.00
C786   C     0.99925   0.91249   0.25112   0.00000  Uiso   1.00
C787   C     0.86787   0.85002   0.04883   0.00000  Uiso   1.00
C788   C     0.81349   0.87767   0.45787   0.00000  Uiso   1.00
C789   C     0.91647   0.84332   0.02487   0.00000  Uiso   1.00
C790   C     0.76484   0.88396   0.48184   0.00000  Uiso   1.00
C791   C     0.97442   0.68851   0.22225   0.00000  Uiso   1.00
C792   C     0.69165   0.97816   0.27542   0.00000  Uiso   1.00
C793   C     0.97375   0.97880   0.22429   0.00000  Uiso   1.00
C794   C     0.69839   0.68702   0.26755   0.00000  Uiso   1.00
C795   C     0.99811   0.95709   0.25156   0.00000  Uiso   1.00
C796   C     0.66944   0.70938   0.24510   0.00000  Uiso   1.00
C797   C     0.85026   0.80655   0.27752   0.00000  Uiso   1.00
C798   C     0.81640   0.86070   0.22322   0.00000  Uiso   1.00
C799   C     0.80016   0.80727   0.27794   0.00000  Uiso   1.00
C800   C     0.86646   0.85975   0.22253   0.00000  Uiso   1.00
C801   C     0.97233   0.83257   0.33618   0.00000  Uiso   1.00
C802   C     0.69444   0.83430   0.16391   0.00000  Uiso   1.00
C803   C     0.95724   0.83370   0.38544   0.00000  Uiso   1.00
C804   C     0.71098   0.84205   0.11525   0.00000  Uiso   1.00
C805   C     0.97913   0.83524   0.45497   0.00000  Uiso   1.00
C806   C     0.69796   0.87526   0.04909   0.00000  Uiso   1.00
C807   C     0.99283   0.83345   0.40858   0.00000  Uiso   1.00
C808   C     0.67987   0.86141   0.09332   0.00000  Uiso   1.00
C809   C     0.90747   0.83587   0.40978   0.00000  Uiso   1.00
C810   C     0.76038   0.83517   0.09181   0.00000  Uiso   1.00
C811   C     0.89443   0.84617   0.45535   0.00000  Uiso   1.00
C812   C     0.78028   0.85357   0.04886   0.00000  Uiso   1.00
C813   C     0.93009   0.84131   0.47854   0.00000  Uiso   1.00
C814   C     0.74761   0.87095   0.02652   0.00000  Uiso   1.00
C815   C     0.84617   0.85804   0.47908   0.00000  Uiso   1.00
C816   C     0.83113   0.85286   0.02626   0.00000  Uiso   1.00
Cu817  Cu    0.71355   0.83334   0.25000   0.00000  Uiso   1.00
Cu818  Cu    0.95311   0.83333   0.25000   0.00000  Uiso   1.00
H819   H     0.94358   0.84040   0.04292   0.00000  Uiso   1.00
H820   H     0.74033   0.89856   0.46501   0.00000  Uiso   1.00
H821   H     0.97508   0.86655   0.11064   0.00000  Uiso   1.00
H822   H     0.69795   0.83074   0.39098   0.00000  Uiso   1.00
H823   H     0.67369   0.83284   0.47230   0.00000  Uiso   1.00
H824   H     0.67328   0.89015   0.03269   0.00000  Uiso   1.00
H825   H     0.77410   0.78738   0.30093   0.00000  Uiso   1.00
H826   H     0.89229   0.88033   0.20024   0.00000  Uiso   1.00
N827   N     0.78403   0.83334   0.24999   0.00000  Uiso   1.00
N828   N     0.88264   0.83332   0.25001   0.00000  Uiso   1.00
O829   O     0.70625   0.77322   0.25000   0.00000  Uiso   1.00
O830   O     0.96042   0.89345   0.25000   0.00000  Uiso   1.00
O831   O     0.96039   0.77321   0.25001   0.00000  Uiso   1.00
O832   O     0.70628   0.89346   0.25000   0.00000  Uiso   1.00
O833   O     0.68519   0.83334   0.31492   0.00000  Uiso   1.00
O834   O     0.98148   0.83332   0.18509   0.00000  Uiso   1.00
O835   O     0.93933   0.83333   0.31492   0.00000  Uiso   1.00
O836   O     0.72733   0.83333   0.18508   0.00000  Uiso   1.00
O837   O     0.78829   0.80883   0.11035   0.00000  Uiso   1.00
C838   C     0.78113   0.76829   0.09893   0.00000  Uiso   1.00
H839   H     0.79272   0.76479   0.06201   0.00000  Uiso   1.00
H840   H     0.74245   0.75866   0.11330   0.00000  Uiso   1.00
H841   H     0.80402   0.74725   0.11326   0.00000  Uiso   1.00
O842   O     0.87202   0.82505   0.38984   0.00000  Uiso   1.00
C843   C     0.85452   0.78545   0.40604   0.00000  Uiso   1.00
H844   H     0.84029   0.78348   0.44312   0.00000  Uiso   1.00
H845   H     0.82344   0.77819   0.39296   0.00000  Uiso   1.00
H846   H     0.88349   0.76184   0.39421   0.00000  Uiso   1.00
O847   O     0.85834   0.85952   0.09330   0.00000  Uiso   1.00
C848   C     0.86571   0.90212   0.09598   0.00000  Uiso   1.00
H849   H     0.89584   0.91521   0.06795   0.00000  Uiso   1.00
H850   H     0.87640   0.90731   0.12673   0.00000  Uiso   1.00
H851   H     0.83123   0.91914   0.09787   0.00000  Uiso   1.00
O852   O     0.82888   0.89316   0.41438   0.00000  Uiso   1.00
C853   C     0.84978   0.93215   0.41452   0.00000  Uiso   1.00
H854   H     0.88275   0.93006   0.42675   0.00000  Uiso   1.00
H855   H     0.82276   0.95404   0.43483   0.00000  Uiso   1.00
H856   H     0.86149   0.94475   0.37968   0.00000  Uiso   1.00
C857   C     0.94833   0.71007   0.19297   0.00000  Uiso   1.00
H858   H     0.91487   0.69726   0.18923   0.00000  Uiso   1.00
O859   O     0.96522   0.74082   0.17085   0.00000  Uiso   1.00
C860   C     0.71139   0.95782   0.31015   0.00000  Uiso   1.00
H861   H     0.74192   0.97116   0.31889   0.00000  Uiso   1.00
O862   O     0.69215   0.92728   0.33123   0.00000  Uiso   1.00
O863   O     0.94830   0.95786   0.20010   0.00000  Uiso   1.00
C864   C     0.97994   0.95062   0.15720   0.00000  Uiso   1.00
H865   H     0.95862   0.93625   0.13706   0.00000  Uiso   1.00
H866   H     0.67658   0.92909   0.15909   0.00000  Uiso   1.00
H867   H     0.99548   0.97964   0.13929   0.00000  Uiso   1.00
O868   O     0.73402   0.70654   0.28135   0.00000  Uiso   1.00
C869   C     0.77919   0.70197   0.24798   0.00000  Uiso   1.00
H870   H     0.77638   0.69296   0.21453   0.00000  Uiso   1.00
H871   H     0.80221   0.67899   0.25971   0.00000  Uiso   1.00
H872   H     0.79831   0.73181   0.24222   0.00000  Uiso   1.00
O873   O     0.86640   0.78198   0.30748   0.00000  Uiso   1.00
C874   C     0.85702   0.74020   0.30285   0.00000  Uiso   1.00
H875   H     0.81801   0.73285   0.31889   0.00000  Uiso   1.00
H876   H     0.87876   0.72130   0.32052   0.00000  Uiso   1.00
H877   H     0.86870   0.73121   0.26730   0.00000  Uiso   1.00
O878   O     0.80007   0.88823   0.19594   0.00000  Uiso   1.00
C879   C     0.80647   0.92887   0.20793   0.00000  Uiso   1.00
H880   H     0.84516   0.93858   0.19514   0.00000  Uiso   1.00
H881   H     0.79361   0.93274   0.24473   0.00000  Uiso   1.00
H882   H     0.78452   0.94988   0.19252   0.00000  Uiso   1.00
C883   C     0.00102   0.08746   0.74782   0.00000  Uiso   1.00
C884   C     0.33259   0.24582   0.75112   0.00000  Uiso   1.00
C885   C     0.20121   0.18335   0.54883   0.00000  Uiso   1.00
C886   C     0.14682   0.21100   0.95787   0.00000  Uiso   1.00
C887   C     0.24980   0.17665   0.52487   0.00000  Uiso   1.00
C888   C     0.09818   0.21729   0.98184   0.00000  Uiso   1.00
C889   C     0.30775   0.02185   0.72225   0.00000  Uiso   1.00
C890   C     0.02498   0.31149   0.77542   0.00000  Uiso   1.00
C891   C     0.30708   0.31213   0.72429   0.00000  Uiso   1.00
C892   C     0.03172   0.02035   0.76755   0.00000  Uiso   1.00
C893   C     0.33144   0.29043   0.75156   0.00000  Uiso   1.00
C894   C     0.00277   0.04271   0.74510   0.00000  Uiso   1.00
C895   C     0.18360   0.13988   0.77752   0.00000  Uiso   1.00
C896   C     0.14974   0.19404   0.72322   0.00000  Uiso   1.00
C897   C     0.13350   0.14060   0.77794   0.00000  Uiso   1.00
C898   C     0.19980   0.19308   0.72253   0.00000  Uiso   1.00
C899   C     0.30567   0.16590   0.83618   0.00000  Uiso   1.00
C900   C     0.02777   0.16763   0.66391   0.00000  Uiso   1.00
C901   C     0.29058   0.16704   0.88544   0.00000  Uiso   1.00
C902   C     0.04432   0.17538   0.61525   0.00000  Uiso   1.00
C903   C     0.31247   0.16857   0.95497   0.00000  Uiso   1.00
C904   C     0.03129   0.20859   0.54909   0.00000  Uiso   1.00
C905   C     0.32617   0.16679   0.90858   0.00000  Uiso   1.00
C906   C     0.01321   0.19474   0.59332   0.00000  Uiso   1.00
C907   C     0.24080   0.16920   0.90978   0.00000  Uiso   1.00
C908   C     0.09371   0.16850   0.59181   0.00000  Uiso   1.00
C909   C     0.22776   0.17950   0.95535   0.00000  Uiso   1.00
C910   C     0.11361   0.18691   0.54886   0.00000  Uiso   1.00
C911   C     0.26342   0.17464   0.97854   0.00000  Uiso   1.00
C912   C     0.08095   0.20428   0.52652   0.00000  Uiso   1.00
C913   C     0.17951   0.19138   0.97908   0.00000  Uiso   1.00
C914   C     0.16446   0.18619   0.52626   0.00000  Uiso   1.00
Cu915  Cu    0.04689   0.16667   0.75000   0.00000  Uiso   1.00
Cu916  Cu    0.28645   0.16666   0.75000   0.00000  Uiso   1.00
H917   H     0.27691   0.17374   0.54292   0.00000  Uiso   1.00
H918   H     0.07366   0.23190   0.96501   0.00000  Uiso   1.00
H919   H     0.30841   0.19989   0.61064   0.00000  Uiso   1.00
H920   H     0.03128   0.16408   0.89098   0.00000  Uiso   1.00
H921   H     0.00702   0.16617   0.97230   0.00000  Uiso   1.00
H922   H     0.00661   0.22349   0.53269   0.00000  Uiso   1.00
H923   H     0.10743   0.12071   0.80093   0.00000  Uiso   1.00
H924   H     0.22562   0.21367   0.70024   0.00000  Uiso   1.00
N925   N     0.11736   0.16668   0.74999   0.00000  Uiso   1.00
N926   N     0.21597   0.16666   0.75001   0.00000  Uiso   1.00
O927   O     0.03958   0.10655   0.75000   0.00000  Uiso   1.00
O928   O     0.29375   0.22678   0.75000   0.00000  Uiso   1.00
O929   O     0.29372   0.10654   0.75001   0.00000  Uiso   1.00
O930   O     0.03961   0.22679   0.75000   0.00000  Uiso   1.00
O931   O     0.01852   0.16668   0.81492   0.00000  Uiso   1.00
O932   O     0.31481   0.16666   0.68509   0.00000  Uiso   1.00
O933   O     0.27267   0.16667   0.81492   0.00000  Uiso   1.00
O934   O     0.06067   0.16667   0.68508   0.00000  Uiso   1.00
O935   O     0.12162   0.14216   0.61035   0.00000  Uiso   1.00
C936   C     0.11447   0.10162   0.59893   0.00000  Uiso   1.00
H937   H     0.12605   0.09812   0.56201   0.00000  Uiso   1.00
H938   H     0.07578   0.09199   0.61330   0.00000  Uiso   1.00
H939   H     0.13735   0.08058   0.61326   0.00000  Uiso   1.00
O940   O     0.20535   0.15838   0.88984   0.00000  Uiso   1.00
C941   C     0.18786   0.11878   0.90604   0.00000  Uiso   1.00
H942   H     0.17362   0.11682   0.94312   0.00000  Uiso   1.00
H943   H     0.15677   0.11153   0.89296   0.00000  Uiso   1.00
H944   H     0.21683   0.09517   0.89421   0.00000  Uiso   1.00
O945   O     0.19168   0.19285   0.59330   0.00000  Uiso   1.00
C946   C     0.19905   0.23546   0.59598   0.00000  Uiso   1.00
H947   H     0.22918   0.24855   0.56795   0.00000  Uiso   1.00
H948   H     0.20973   0.24064   0.62673   0.00000  Uiso   1.00
H949   H     0.16456   0.25247   0.59787   0.00000  Uiso   1.00
O950   O     0.16221   0.22649   0.91438   0.00000  Uiso   1.00
C951   C     0.18311   0.26548   0.91452   0.00000  Uiso   1.00
H952   H     0.21609   0.26339   0.92675   0.00000  Uiso   1.00
H953   H     0.15609   0.28737   0.93483   0.00000  Uiso   1.00
H954   H     0.19483   0.27809   0.87968   0.00000  Uiso   1.00
C955   C     0.28166   0.04341   0.69297   0.00000  Uiso   1.00
H956   H     0.24820   0.03059   0.68923   0.00000  Uiso   1.00
O957   O     0.29856   0.07416   0.67085   0.00000  Uiso   1.00
C958   C     0.04473   0.29116   0.81015   0.00000  Uiso   1.00
H959   H     0.07526   0.30450   0.81889   0.00000  Uiso   1.00
O960   O     0.02549   0.26061   0.83123   0.00000  Uiso   1.00
O961   O     0.28164   0.29120   0.70010   0.00000  Uiso   1.00
C962   C     0.31327   0.28395   0.65720   0.00000  Uiso   1.00
H963   H     0.29196   0.26958   0.63706   0.00000  Uiso   1.00
H964   H     0.00991   0.26243   0.65909   0.00000  Uiso   1.00
H965   H     0.32881   0.31298   0.63929   0.00000  Uiso   1.00
O966   O     0.06735   0.03987   0.78135   0.00000  Uiso   1.00
C967   C     0.11252   0.03531   0.74798   0.00000  Uiso   1.00
H968   H     0.10971   0.02630   0.71453   0.00000  Uiso   1.00
H969   H     0.13554   0.01233   0.75971   0.00000  Uiso   1.00
H970   H     0.13164   0.06515   0.74222   0.00000  Uiso   1.00
O971   O     0.19973   0.11532   0.80748   0.00000  Uiso   1.00
C972   C     0.19035   0.07353   0.80285   0.00000  Uiso   1.00
H973   H     0.15134   0.06618   0.81889   0.00000  Uiso   1.00
H974   H     0.21210   0.05463   0.82052   0.00000  Uiso   1.00
H975   H     0.20204   0.06455   0.76730   0.00000  Uiso   1.00
O976   O     0.13340   0.22157   0.69594   0.00000  Uiso   1.00
C977   C     0.13980   0.26221   0.70793   0.00000  Uiso   1.00
H978   H     0.17849   0.27192   0.69514   0.00000  Uiso   1.00
H979   H     0.12694   0.26608   0.74473   0.00000  Uiso   1.00
H980   H     0.11786   0.28321   0.69252   0.00000  Uiso   1.00
C981   C     0.33435   0.08746   0.74782   0.00000  Uiso   1.00
C982   C     0.66592   0.24582   0.75112   0.00000  Uiso   1.00
C983   C     0.53454   0.18335   0.54883   0.00000  Uiso   1.00
C984   C     0.48016   0.21100   0.95787   0.00000  Uiso   1.00
C985   C     0.58313   0.17665   0.52487   0.00000  Uiso   1.00
C986   C     0.43151   0.21729   0.98184   0.00000  Uiso   1.00
C987   C     0.64108   0.02185   0.72225   0.00000  Uiso   1.00
C988   C     0.35831   0.31149   0.77542   0.00000  Uiso   1.00
C989   C     0.64041   0.31213   0.72429   0.00000  Uiso   1.00
C990   C     0.36506   0.02035   0.76755   0.00000  Uiso   1.00
C991   C     0.66477   0.29043   0.75156   0.00000  Uiso   1.00
C992   C     0.33611   0.04271   0.74510   0.00000  Uiso   1.00
C993   C     0.51693   0.13988   0.77752   0.00000  Uiso   1.00
C994   C     0.48307   0.19404   0.72322   0.00000  Uiso   1.00
C995   C     0.46683   0.14060   0.77794   0.00000  Uiso   1.00
C996   C     0.53313   0.19308   0.72253   0.00000  Uiso   1.00
C997   C     0.63900   0.16590   0.83618   0.00000  Uiso   1.00
C998   C     0.36111   0.16763   0.66391   0.00000  Uiso   1.00
C999   C     0.62391   0.16704   0.88544   0.00000  Uiso   1.00
C1000  C     0.37765   0.17538   0.61525   0.00000  Uiso   1.00
C1001  C     0.64580   0.16857   0.95497   0.00000  Uiso   1.00
C1002  C     0.36462   0.20859   0.54909   0.00000  Uiso   1.00
C1003  C     0.65950   0.16679   0.90858   0.00000  Uiso   1.00
C1004  C     0.34654   0.19474   0.59332   0.00000  Uiso   1.00
C1005  C     0.57414   0.16920   0.90978   0.00000  Uiso   1.00
C1006  C     0.42705   0.16850   0.59181   0.00000  Uiso   1.00
C1007  C     0.56109   0.17950   0.95535   0.00000  Uiso   1.00
C1008  C     0.44694   0.18691   0.54886   0.00000  Uiso   1.00
C1009  C     0.59676   0.17464   0.97854   0.00000  Uiso   1.00
C1010  C     0.41428   0.20428   0.52652   0.00000  Uiso   1.00
C1011  C     0.51284   0.19138   0.97908   0.00000  Uiso   1.00
C1012  C     0.49779   0.18619   0.52626   0.00000  Uiso   1.00
Cu1013 Cu    0.38022   0.16667   0.75000   0.00000  Uiso   1.00
Cu1014 Cu    0.61978   0.16666   0.75000   0.00000  Uiso   1.00
H1015  H     0.61025   0.17374   0.54292   0.00000  Uiso   1.00
H1016  H     0.40700   0.23190   0.96501   0.00000  Uiso   1.00
H1017  H     0.64175   0.19989   0.61064   0.00000  Uiso   1.00
H1018  H     0.36462   0.16408   0.89098   0.00000  Uiso   1.00
H1019  H     0.34036   0.16617   0.97230   0.00000  Uiso   1.00
H1020  H     0.33995   0.22349   0.53269   0.00000  Uiso   1.00
H1021  H     0.44076   0.12071   0.80093   0.00000  Uiso   1.00
H1022  H     0.55896   0.21367   0.70024   0.00000  Uiso   1.00
N1023  N     0.45069   0.16668   0.74999   0.00000  Uiso   1.00
N1024  N     0.54931   0.16666   0.75001   0.00000  Uiso   1.00
O1025  O     0.37291   0.10655   0.75000   0.00000  Uiso   1.00
O1026  O     0.62709   0.22678   0.75000   0.00000  Uiso   1.00
O1027  O     0.62706   0.10654   0.75001   0.00000  Uiso   1.00
O1028  O     0.37294   0.22679   0.75000   0.00000  Uiso   1.00
O1029  O     0.35186   0.16668   0.81492   0.00000  Uiso   1.00
O1030  O     0.64814   0.16666   0.68509   0.00000  Uiso   1.00
O1031  O     0.60600   0.16667   0.81492   0.00000  Uiso   1.00
O1032  O     0.39400   0.16667   0.68508   0.00000  Uiso   1.00
O1033  O     0.45495   0.14216   0.61035   0.00000  Uiso   1.00
C1034  C     0.44780   0.10162   0.59893   0.00000  Uiso   1.00
H1035  H     0.45938   0.09812   0.56201   0.00000  Uiso   1.00
H1036  H     0.40911   0.09199   0.61330   0.00000  Uiso   1.00
H1037  H     0.47069   0.08058   0.61326   0.00000  Uiso   1.00
O1038  O     0.53868   0.15838   0.88984   0.00000  Uiso   1.00
C1039  C     0.52119   0.11878   0.90604   0.00000  Uiso   1.00
H1040  H     0.50696   0.11682   0.94312   0.00000  Uiso   1.00
H1041  H     0.49010   0.11153   0.89296   0.00000  Uiso   1.00
H1042  H     0.55016   0.09517   0.89421   0.00000  Uiso   1.00
O1043  O     0.52501   0.19285   0.59330   0.00000  Uiso   1.00
C1044  C     0.53238   0.23546   0.59598   0.00000  Uiso   1.00
H1045  H     0.56251   0.24855   0.56795   0.00000  Uiso   1.00
H1046  H     0.54307   0.24064   0.62673   0.00000  Uiso   1.00
H1047  H     0.49790   0.25247   0.59787   0.00000  Uiso   1.00
O1048  O     0.49555   0.22649   0.91438   0.00000  Uiso   1.00
C1049  C     0.51645   0.26548   0.91452   0.00000  Uiso   1.00
H1050  H     0.54942   0.26339   0.92675   0.00000  Uiso   1.00
H1051  H     0.48943   0.28737   0.93483   0.00000  Uiso   1.00
H1052  H     0.52816   0.27809   0.87968   0.00000  Uiso   1.00
C1053  C     0.61499   0.04341   0.69297   0.00000  Uiso   1.00
H1054  H     0.58154   0.03059   0.68923   0.00000  Uiso   1.00
O1055  O     0.63189   0.07416   0.67085   0.00000  Uiso   1.00
C1056  C     0.37806   0.29116   0.81015   0.00000  Uiso   1.00
H1057  H     0.40859   0.30450   0.81889   0.00000  Uiso   1.00
O1058  O     0.35882   0.26061   0.83123   0.00000  Uiso   1.00
O1059  O     0.61497   0.29120   0.70010   0.00000  Uiso   1.00
C1060  C     0.64660   0.28395   0.65720   0.00000  Uiso   1.00
H1061  H     0.62529   0.26958   0.63706   0.00000  Uiso   1.00
H1062  H     0.34324   0.26243   0.65909   0.00000  Uiso   1.00
H1063  H     0.66215   0.31298   0.63929   0.00000  Uiso   1.00
O1064  O     0.40069   0.03987   0.78135   0.00000  Uiso   1.00
C1065  C     0.44585   0.03531   0.74798   0.00000  Uiso   1.00
H1066  H     0.44305   0.02630   0.71453   0.00000  Uiso   1.00
H1067  H     0.46888   0.01233   0.75971   0.00000  Uiso   1.00
H1068  H     0.46498   0.06515   0.74222   0.00000  Uiso   1.00
O1069  O     0.53307   0.11532   0.80748   0.00000  Uiso   1.00
C1070  C     0.52368   0.07353   0.80285   0.00000  Uiso   1.00
H1071  H     0.48468   0.06618   0.81889   0.00000  Uiso   1.00
H1072  H     0.54543   0.05463   0.82052   0.00000  Uiso   1.00
H1073  H     0.53537   0.06455   0.76730   0.00000  Uiso   1.00
O1074  O     0.46674   0.22157   0.69594   0.00000  Uiso   1.00
C1075  C     0.47313   0.26221   0.70793   0.00000  Uiso   1.00
H1076  H     0.51183   0.27192   0.69514   0.00000  Uiso   1.00
H1077  H     0.46027   0.26608   0.74473   0.00000  Uiso   1.00
H1078  H     0.45119   0.28321   0.69252   0.00000  Uiso   1.00
C1079  C     0.66769   0.08746   0.74782   0.00000  Uiso   1.00
C1080  C     0.99925   0.24582   0.75112   0.00000  Uiso   1.00
C1081  C     0.86787   0.18335   0.54883   0.00000  Uiso   1.00
C1082  C     0.81349   0.21100   0.95787   0.00000  Uiso   1.00
C1083  C     0.91647   0.17665   0.52487   0.00000  Uiso   1.00
C1084  C     0.76484   0.21729   0.98184   0.00000  Uiso   1.00
C1085  C     0.97442   0.02185   0.72225   0.00000  Uiso   1.00
C1086  C     0.69165   0.31149   0.77542   0.00000  Uiso   1.00
C1087  C     0.97375   0.31213   0.72429   0.00000  Uiso   1.00
C1088  C     0.69839   0.02035   0.76755   0.00000  Uiso   1.00
C1089  C     0.99811   0.29043   0.75156   0.00000  Uiso   1.00
C1090  C     0.66944   0.04271   0.74510   0.00000  Uiso   1.00
C1091  C     0.85026   0.13988   0.77752   0.00000  Uiso   1.00
C1092  C     0.81640   0.19404   0.72322   0.00000  Uiso   1.00
C1093  C     0.80016   0.14060   0.77794   0.00000  Uiso   1.00
C1094  C     0.86646   0.19308   0.72253   0.00000  Uiso   1.00
C1095  C     0.97233   0.16590   0.83618   0.00000  Uiso   1.00
C1096  C     0.69444   0.16763   0.66391   0.00000  Uiso   1.00
C1097  C     0.95724   0.16704   0.88544   0.00000  Uiso   1.00
C1098  C     0.71098   0.17538   0.61525   0.00000  Uiso   1.00
C1099  C     0.97913   0.16857   0.95497   0.00000  Uiso   1.00
C1100  C     0.69796   0.20859   0.54909   0.00000  Uiso   1.00
C1101  C     0.99283   0.16679   0.90858   0.00000  Uiso   1.00
C1102  C     0.67987   0.19474   0.59332   0.00000  Uiso   1.00
C1103  C     0.90747   0.16920   0.90978   0.00000  Uiso   1.00
C1104  C     0.76038   0.16850   0.59181   0.00000  Uiso   1.00
C1105  C     0.89443   0.17950   0.95535   0.00000  Uiso   1.00
C1106  C     0.78028   0.18691   0.54886   0.00000  Uiso   1.00
C1107  C     0.93009   0.17464   0.97854   0.00000  Uiso   1.00
C1108  C     0.74761   0.20428   0.52652   0.00000  Uiso   1.00
C1109  C     0.84617   0.19138   0.97908   0.00000  Uiso   1.00
C1110  C     0.83113   0.18619   0.52626   0.00000  Uiso   1.00
Cu1111 Cu    0.71355   0.16667   0.75000   0.00000  Uiso   1.00
Cu1112 Cu    0.95311   0.16666   0.75000   0.00000  Uiso   1.00
H1113  H     0.94358   0.17374   0.54292   0.00000  Uiso   1.00
H1114  H     0.74033   0.23190   0.96501   0.00000  Uiso   1.00
H1115  H     0.97508   0.19989   0.61064   0.00000  Uiso   1.00
H1116  H     0.69795   0.16408   0.89098   0.00000  Uiso   1.00
H1117  H     0.67369   0.16617   0.97230   0.00000  Uiso   1.00
H1118  H     0.67328   0.22349   0.53269   0.00000  Uiso   1.00
H1119  H     0.77410   0.12071   0.80093   0.00000  Uiso   1.00
H1120  H     0.89229   0.21367   0.70024   0.00000  Uiso   1.00
N1121  N     0.78403   0.16668   0.74999   0.00000  Uiso   1.00
N1122  N     0.88264   0.16666   0.75001   0.00000  Uiso   1.00
O1123  O     0.70625   0.10655   0.75000   0.00000  Uiso   1.00
O1124  O     0.96042   0.22678   0.75000   0.00000  Uiso   1.00
O1125  O     0.96039   0.10654   0.75001   0.00000  Uiso   1.00
O1126  O     0.70628   0.22679   0.75000   0.00000  Uiso   1.00
O1127  O     0.68519   0.16668   0.81492   0.00000  Uiso   1.00
O1128  O     0.98148   0.16666   0.68509   0.00000  Uiso   1.00
O1129  O     0.93933   0.16667   0.81492   0.00000  Uiso   1.00
O1130  O     0.72733   0.16667   0.68508   0.00000  Uiso   1.00
O1131  O     0.78829   0.14216   0.61035   0.00000  Uiso   1.00
C1132  C     0.78113   0.10162   0.59893   0.00000  Uiso   1.00
H1133  H     0.79272   0.09812   0.56201   0.00000  Uiso   1.00
H1134  H     0.74245   0.09199   0.61330   0.00000  Uiso   1.00
H1135  H     0.80402   0.08058   0.61326   0.00000  Uiso   1.00
O1136  O     0.87202   0.15838   0.88984   0.00000  Uiso   1.00
C1137  C     0.85452   0.11878   0.90604   0.00000  Uiso   1.00
H1138  H     0.84029   0.11682   0.94312   0.00000  Uiso   1.00
H1139  H     0.82344   0.11153   0.89296   0.00000  Uiso   1.00
H1140  H     0.88349   0.09517   0.89421   0.00000  Uiso   1.00
O1141  O     0.85834   0.19285   0.59330   0.00000  Uiso   1.00
C1142  C     0.86571   0.23546   0.59598   0.00000  Uiso   1.00
H1143  H     0.89584   0.24855   0.56795   0.00000  Uiso   1.00
H1144  H     0.87640   0.24064   0.62673   0.00000  Uiso   1.00
H1145  H     0.83123   0.25247   0.59787   0.00000  Uiso   1.00
O1146  O     0.82888   0.22649   0.91438   0.00000  Uiso   1.00
C1147  C     0.84978   0.26548   0.91452   0.00000  Uiso   1.00
H1148  H     0.88275   0.26339   0.92675   0.00000  Uiso   1.00
H1149  H     0.82276   0.28737   0.93483   0.00000  Uiso   1.00
H1150  H     0.86149   0.27809   0.87968   0.00000  Uiso   1.00
C1151  C     0.94833   0.04341   0.69297   0.00000  Uiso   1.00
H1152  H     0.91487   0.03059   0.68923   0.00000  Uiso   1.00
O1153  O     0.96522   0.07416   0.67085   0.00000  Uiso   1.00
C1154  C     0.71139   0.29116   0.81015   0.00000  Uiso   1.00
H1155  H     0.74192   0.30450   0.81889   0.00000  Uiso   1.00
O1156  O     0.69215   0.26061   0.83123   0.00000  Uiso   1.00
O1157  O     0.94830   0.29120   0.70010   0.00000  Uiso   1.00
C1158  C     0.97994   0.28395   0.65720   0.00000  Uiso   1.00
H1159  H     0.95862   0.26958   0.63706   0.00000  Uiso   1.00
H1160  H     0.67658   0.26243   0.65909   0.00000  Uiso   1.00
H1161  H     0.99548   0.31298   0.63929   0.00000  Uiso   1.00
O1162  O     0.73402   0.03987   0.78135   0.00000  Uiso   1.00
C1163  C     0.77919   0.03531   0.74798   0.00000  Uiso   1.00
H1164  H     0.77638   0.02630   0.71453   0.00000  Uiso   1.00
H1165  H     0.80221   0.01233   0.75971   0.00000  Uiso   1.00
H1166  H     0.79831   0.06515   0.74222   0.00000  Uiso   1.00
O1167  O     0.86640   0.11532   0.80748   0.00000  Uiso   1.00
C1168  C     0.85702   0.07353   0.80285   0.00000  Uiso   1.00
H1169  H     0.81801   0.06618   0.81889   0.00000  Uiso   1.00
H1170  H     0.87876   0.05463   0.82052   0.00000  Uiso   1.00
H1171  H     0.86870   0.06455   0.76730   0.00000  Uiso   1.00
O1172  O     0.80007   0.22157   0.69594   0.00000  Uiso   1.00
C1173  C     0.80647   0.26221   0.70793   0.00000  Uiso   1.00
H1174  H     0.84516   0.27192   0.69514   0.00000  Uiso   1.00
H1175  H     0.79361   0.26608   0.74473   0.00000  Uiso   1.00
H1176  H     0.78452   0.28321   0.69252   0.00000  Uiso   1.00
C1177  C     0.00102   0.42079   0.74782   0.00000  Uiso   1.00
C1178  C     0.33259   0.57916   0.75112   0.00000  Uiso   1.00
C1179  C     0.20121   0.51669   0.54883   0.00000  Uiso   1.00
C1180  C     0.14682   0.54433   0.95787   0.00000  Uiso   1.00
C1181  C     0.24980   0.50998   0.52487   0.00000  Uiso   1.00
C1182  C     0.09818   0.55063   0.98184   0.00000  Uiso   1.00
C1183  C     0.30775   0.35518   0.72225   0.00000  Uiso   1.00
C1184  C     0.02498   0.64483   0.77542   0.00000  Uiso   1.00
C1185  C     0.30708   0.64547   0.72429   0.00000  Uiso   1.00
C1186  C     0.03172   0.35369   0.76755   0.00000  Uiso   1.00
C1187  C     0.33144   0.62376   0.75156   0.00000  Uiso   1.00
C1188  C     0.00277   0.37605   0.74510   0.00000  Uiso   1.00
C1189  C     0.18360   0.47321   0.77752   0.00000  Uiso   1.00
C1190  C     0.14974   0.52737   0.72322   0.00000  Uiso   1.00
C1191  C     0.13350   0.47394   0.77794   0.00000  Uiso   1.00
C1192  C     0.19980   0.52641   0.72253   0.00000  Uiso   1.00
C1193  C     0.30567   0.49924   0.83618   0.00000  Uiso   1.00
C1194  C     0.02777   0.50096   0.66391   0.00000  Uiso   1.00
C1195  C     0.29058   0.50037   0.88544   0.00000  Uiso   1.00
C1196  C     0.04432   0.50872   0.61525   0.00000  Uiso   1.00
C1197  C     0.31247   0.50190   0.95497   0.00000  Uiso   1.00
C1198  C     0.03129   0.54193   0.54909   0.00000  Uiso   1.00
C1199  C     0.32617   0.50012   0.90858   0.00000  Uiso   1.00
C1200  C     0.01321   0.52807   0.59332   0.00000  Uiso   1.00
C1201  C     0.24080   0.50254   0.90978   0.00000  Uiso   1.00
C1202  C     0.09371   0.50184   0.59181   0.00000  Uiso   1.00
C1203  C     0.22776   0.51283   0.95535   0.00000  Uiso   1.00
C1204  C     0.11361   0.52024   0.54886   0.00000  Uiso   1.00
C1205  C     0.26342   0.50798   0.97854   0.00000  Uiso   1.00
C1206  C     0.08095   0.53761   0.52652   0.00000  Uiso   1.00
C1207  C     0.17951   0.52471   0.97908   0.00000  Uiso   1.00
C1208  C     0.16446   0.51952   0.52626   0.00000  Uiso   1.00
Cu1209 Cu    0.04689   0.50001   0.75000   0.00000  Uiso   1.00
Cu1210 Cu    0.28645   0.49999   0.75000   0.00000  Uiso   1.00
H1211  H     0.27691   0.50707   0.54292   0.00000  Uiso   1.00
H1212  H     0.07366   0.56523   0.96501   0.00000  Uiso   1.00
H1213  H     0.30841   0.53322   0.61064   0.00000  Uiso   1.00
H1214  H     0.03128   0.49741   0.89098   0.00000  Uiso   1.00
H1215  H     0.00702   0.49951   0.97230   0.00000  Uiso   1.00
H1216  H     0.00661   0.55682   0.53269   0.00000  Uiso   1.00
H1217  H     0.10743   0.45404   0.80093   0.00000  Uiso   1.00
H1218  H     0.22562   0.54700   0.70024   0.00000  Uiso   1.00
N1219  N     0.11736   0.50001   0.74999   0.00000  Uiso   1.00
N1220  N     0.21597   0.49999   0.75001   0.00000  Uiso   1.00
O1221  O     0.03958   0.43989   0.75000   0.00000  Uiso   1.00
O1222  O     0.29375   0.56011   0.75000   0.00000  Uiso   1.00
O1223  O     0.29372   0.43988   0.75001   0.00000  Uiso   1.00
O1224  O     0.03961   0.56012   0.75000   0.00000  Uiso   1.00
O1225  O     0.01852   0.50001   0.81492   0.00000  Uiso   1.00
O1226  O     0.31481   0.49999   0.68509   0.00000  Uiso   1.00
O1227  O     0.27267   0.50000   0.81492   0.00000  Uiso   1.00
O1228  O     0.06067   0.50000   0.68508   0.00000  Uiso   1.00
O1229  O     0.12162   0.47550   0.61035   0.00000  Uiso   1.00
C1230  C     0.11447   0.43495   0.59893   0.00000  Uiso   1.00
H1231  H     0.12605   0.43146   0.56201   0.00000  Uiso   1.00
H1232  H     0.07578   0.42532   0.61330   0.00000  Uiso   1.00
H1233  H     0.13735   0.41392   0.61326   0.00000  Uiso   1.00
O1234  O     0.20535   0.49172   0.88984   0.00000  Uiso   1.00
C1235  C     0.18786   0.45211   0.90604   0.00000  Uiso   1.00
H1236  H     0.17362   0.45015   0.94312   0.00000  Uiso   1.00
H1237  H     0.15677   0.44486   0.89296   0.00000  Uiso   1.00
H1238  H     0.21683   0.42850   0.89421   0.00000  Uiso   1.00
O1239  O     0.19168   0.52619   0.59330   0.00000  Uiso   1.00
C1240  C     0.19905   0.56879   0.59598   0.00000  Uiso   1.00
H1241  H     0.22918   0.58188   0.56795   0.00000  Uiso   1.00
H1242  H     0.20973   0.57397   0.62673   0.00000  Uiso   1.00
H1243  H     0.16456   0.58580   0.59787   0.00000  Uiso   1.00
O1244  O     0.16221   0.55982   0.91438   0.00000  Uiso   1.00
C1245  C     0.18311   0.59882   0.91452   0.00000  Uiso   1.00
H1246  H     0.21609   0.59672   0.92675   0.00000  Uiso   1.00
H1247  H     0.15609   0.62071   0.93483   0.00000  Uiso   1.00
H1248  H     0.19483   0.61142   0.87968   0.00000  Uiso   1.00
C1249  C     0.28166   0.37674   0.69297   0.00000  Uiso   1.00
H1250  H     0.24820   0.36392   0.68923   0.00000  Uiso   1.00
O1251  O     0.29856   0.40749   0.67085   0.00000  Uiso   1.00
C1252  C     0.04473   0.62449   0.81015   0.00000  Uiso   1.00
H1253  H     0.07526   0.63783   0.81889   0.00000  Uiso   1.00
O1254  O     0.02549   0.59394   0.83123   0.00000  Uiso   1.00
O1255  O     0.28164   0.62453   0.70010   0.00000  Uiso   1.00
C1256  C     0.31327   0.61728   0.65720   0.00000  Uiso   1.00
H1257  H     0.29196   0.60292   0.63706   0.00000  Uiso   1.00
H1258  H     0.00991   0.59576   0.65909   0.00000  Uiso   1.00
H1259  H     0.32881   0.64631   0.63929   0.00000  Uiso   1.00
O1260  O     0.06735   0.37320   0.78135   0.00000  Uiso   1.00
C1261  C     0.11252   0.36864   0.74798   0.00000  Uiso   1.00
H1262  H     0.10971   0.35963   0.71453   0.00000  Uiso   1.00
H1263  H     0.13554   0.34566   0.75971   0.00000  Uiso   1.00
H1264  H     0.13164   0.39848   0.74222   0.00000  Uiso   1.00
O1265  O     0.19973   0.44865   0.80748   0.00000  Uiso   1.00
C1266  C     0.19035   0.40686   0.80285   0.00000  Uiso   1.00
H1267  H     0.15134   0.39951   0.81889   0.00000  Uiso   1.00
H1268  H     0.21210   0.38797   0.82052   0.00000  Uiso   1.00
H1269  H     0.20204   0.39788   0.76730   0.00000  Uiso   1.00
O1270  O     0.13340   0.55490   0.69594   0.00000  Uiso   1.00
C1271  C     0.13980   0.59554   0.70793   0.00000  Uiso   1.00
H1272  H     0.17849   0.60525   0.69514   0.00000  Uiso   1.00
H1273  H     0.12694   0.59941   0.74473   0.00000  Uiso   1.00
H1274  H     0.11786   0.61655   0.69252   0.00000  Uiso   1.00
C1275  C     0.33435   0.42079   0.74782   0.00000  Uiso   1.00
C1276  C     0.66592   0.57916   0.75112   0.00000  Uiso   1.00
C1277  C     0.53454   0.51669   0.54883   0.00000  Uiso   1.00
C1278  C     0.48016   0.54433   0.95787   0.00000  Uiso   1.00
C1279  C     0.58313   0.50998   0.52487   0.00000  Uiso   1.00
C1280  C     0.43151   0.55063   0.98184   0.00000  Uiso   1.00
C1281  C     0.64108   0.35518   0.72225   0.00000  Uiso   1.00
C1282  C     0.35831   0.64483   0.77542   0.00000  Uiso   1.00
C1283  C     0.64041   0.64547   0.72429   0.00000  Uiso   1.00
C1284  C     0.36506   0.35369   0.76755   0.00000  Uiso   1.00
C1285  C     0.66477   0.62376   0.75156   0.00000  Uiso   1.00
C1286  C     0.33611   0.37605   0.74510   0.00000  Uiso   1.00
C1287  C     0.51693   0.47321   0.77752   0.00000  Uiso   1.00
C1288  C     0.48307   0.52737   0.72322   0.00000  Uiso   1.00
C1289  C     0.46683   0.47394   0.77794   0.00000  Uiso   1.00
C1290  C     0.53313   0.52641   0.72253   0.00000  Uiso   1.00
C1291  C     0.63900   0.49924   0.83618   0.00000  Uiso   1.00
C1292  C     0.36111   0.50096   0.66391   0.00000  Uiso   1.00
C1293  C     0.62391   0.50037   0.88544   0.00000  Uiso   1.00
C1294  C     0.37765   0.50872   0.61525   0.00000  Uiso   1.00
C1295  C     0.64580   0.50190   0.95497   0.00000  Uiso   1.00
C1296  C     0.36462   0.54193   0.54909   0.00000  Uiso   1.00
C1297  C     0.65950   0.50012   0.90858   0.00000  Uiso   1.00
C1298  C     0.34654   0.52807   0.59332   0.00000  Uiso   1.00
C1299  C     0.57414   0.50254   0.90978   0.00000  Uiso   1.00
C1300  C     0.42705   0.50184   0.59181   0.00000  Uiso   1.00
C1301  C     0.56109   0.51283   0.95535   0.00000  Uiso   1.00
C1302  C     0.44694   0.52024   0.54886   0.00000  Uiso   1.00
C1303  C     0.59676   0.50798   0.97854   0.00000  Uiso   1.00
C1304  C     0.41428   0.53761   0.52652   0.00000  Uiso   1.00
C1305  C     0.51284   0.52471   0.97908   0.00000  Uiso   1.00
C1306  C     0.49779   0.51952   0.52626   0.00000  Uiso   1.00
Cu1307 Cu    0.38022   0.50001   0.75000   0.00000  Uiso   1.00
Cu1308 Cu    0.61978   0.49999   0.75000   0.00000  Uiso   1.00
H1309  H     0.61025   0.50707   0.54292   0.00000  Uiso   1.00
H1310  H     0.40700   0.56523   0.96501   0.00000  Uiso   1.00
H1311  H     0.64175   0.53322   0.61064   0.00000  Uiso   1.00
H1312  H     0.36462   0.49741   0.89098   0.00000  Uiso   1.00
H1313  H     0.34036   0.49951   0.97230   0.00000  Uiso   1.00
H1314  H     0.33995   0.55682   0.53269   0.00000  Uiso   1.00
H1315  H     0.44076   0.45404   0.80093   0.00000  Uiso   1.00
H1316  H     0.55896   0.54700   0.70024   0.00000  Uiso   1.00
N1317  N     0.45069   0.50001   0.74999   0.00000  Uiso   1.00
N1318  N     0.54931   0.49999   0.75001   0.00000  Uiso   1.00
O1319  O     0.37291   0.43989   0.75000   0.00000  Uiso   1.00
O1320  O     0.62709   0.56011   0.75000   0.00000  Uiso   1.00
O1321  O     0.62706   0.43988   0.75001   0.00000  Uiso   1.00
O1322  O     0.37294   0.56012   0.75000   0.00000  Uiso   1.00
O1323  O     0.35186   0.50001   0.81492   0.00000  Uiso   1.00
O1324  O     0.64814   0.49999   0.68509   0.00000  Uiso   1.00
O1325  O     0.60600   0.50000   0.81492   0.00000  Uiso   1.00
O1326  O     0.39400   0.50000   0.68508   0.00000  Uiso   1.00
O1327  O     0.45495   0.47550   0.61035   0.00000  Uiso   1.00
C1328  C     0.44780   0.43495   0.59893   0.00000  Uiso   1.00
H1329  H     0.45938   0.43146   0.56201   0.00000  Uiso   1.00
H1330  H     0.40911   0.42532   0.61330   0.00000  Uiso   1.00
H1331  H     0.47069   0.41392   0.61326   0.00000  Uiso   1.00
O1332  O     0.53868   0.49172   0.88984   0.00000  Uiso   1.00
C1333  C     0.52119   0.45211   0.90604   0.00000  Uiso   1.00
H1334  H     0.50696   0.45015   0.94312   0.00000  Uiso   1.00
H1335  H     0.49010   0.44486   0.89296   0.00000  Uiso   1.00
H1336  H     0.55016   0.42850   0.89421   0.00000  Uiso   1.00
O1337  O     0.52501   0.52619   0.59330   0.00000  Uiso   1.00
C1338  C     0.53238   0.56879   0.59598   0.00000  Uiso   1.00
H1339  H     0.56251   0.58188   0.56795   0.00000  Uiso   1.00
H1340  H     0.54307   0.57397   0.62673   0.00000  Uiso   1.00
H1341  H     0.49790   0.58580   0.59787   0.00000  Uiso   1.00
O1342  O     0.49555   0.55982   0.91438   0.00000  Uiso   1.00
C1343  C     0.51645   0.59882   0.91452   0.00000  Uiso   1.00
H1344  H     0.54942   0.59672   0.92675   0.00000  Uiso   1.00
H1345  H     0.48943   0.62071   0.93483   0.00000  Uiso   1.00
H1346  H     0.52816   0.61142   0.87968   0.00000  Uiso   1.00
C1347  C     0.61499   0.37674   0.69297   0.00000  Uiso   1.00
H1348  H     0.58154   0.36392   0.68923   0.00000  Uiso   1.00
O1349  O     0.63189   0.40749   0.67085   0.00000  Uiso   1.00
C1350  C     0.37806   0.62449   0.81015   0.00000  Uiso   1.00
H1351  H     0.40859   0.63783   0.81889   0.00000  Uiso   1.00
O1352  O     0.35882   0.59394   0.83123   0.00000  Uiso   1.00
O1353  O     0.61497   0.62453   0.70010   0.00000  Uiso   1.00
C1354  C     0.64660   0.61728   0.65720   0.00000  Uiso   1.00
H1355  H     0.62529   0.60292   0.63706   0.00000  Uiso   1.00
H1356  H     0.34324   0.59576   0.65909   0.00000  Uiso   1.00
H1357  H     0.66215   0.64631   0.63929   0.00000  Uiso   1.00
O1358  O     0.40069   0.37320   0.78135   0.00000  Uiso   1.00
C1359  C     0.44585   0.36864   0.74798   0.00000  Uiso   1.00
H1360  H     0.44305   0.35963   0.71453   0.00000  Uiso   1.00
H1361  H     0.46888   0.34566   0.75971   0.00000  Uiso   1.00
H1362  H     0.46498   0.39848   0.74222   0.00000  Uiso   1.00
O1363  O     0.53307   0.44865   0.80748   0.00000  Uiso   1.00
C1364  C     0.52368   0.40686   0.80285   0.00000  Uiso   1.00
H1365  H     0.48468   0.39951   0.81889   0.00000  Uiso   1.00
H1366  H     0.54543   0.38797   0.82052   0.00000  Uiso   1.00
H1367  H     0.53537   0.39788   0.76730   0.00000  Uiso   1.00
O1368  O     0.46674   0.55490   0.69594   0.00000  Uiso   1.00
C1369  C     0.47313   0.59554   0.70793   0.00000  Uiso   1.00
H1370  H     0.51183   0.60525   0.69514   0.00000  Uiso   1.00
H1371  H     0.46027   0.59941   0.74473   0.00000  Uiso   1.00
H1372  H     0.45119   0.61655   0.69252   0.00000  Uiso   1.00
C1373  C     0.66769   0.42079   0.74782   0.00000  Uiso   1.00
C1374  C     0.99925   0.57916   0.75112   0.00000  Uiso   1.00
C1375  C     0.86787   0.51669   0.54883   0.00000  Uiso   1.00
C1376  C     0.81349   0.54433   0.95787   0.00000  Uiso   1.00
C1377  C     0.91647   0.50998   0.52487   0.00000  Uiso   1.00
C1378  C     0.76484   0.55063   0.98184   0.00000  Uiso   1.00
C1379  C     0.97442   0.35518   0.72225   0.00000  Uiso   1.00
C1380  C     0.69165   0.64483   0.77542   0.00000  Uiso   1.00
C1381  C     0.97375   0.64547   0.72429   0.00000  Uiso   1.00
C1382  C     0.69839   0.35369   0.76755   0.00000  Uiso   1.00
C1383  C     0.99811   0.62376   0.75156   0.00000  Uiso   1.00
C1384  C     0.66944   0.37605   0.74510   0.00000  Uiso   1.00
C1385  C     0.85026   0.47321   0.77752   0.00000  Uiso   1.00
C1386  C     0.81640   0.52737   0.72322   0.00000  Uiso   1.00
C1387  C     0.80016   0.47394   0.77794   0.00000  Uiso   1.00
C1388  C     0.86646   0.52641   0.72253   0.00000  Uiso   1.00
C1389  C     0.97233   0.49924   0.83618   0.00000  Uiso   1.00
C1390  C     0.69444   0.50096   0.66391   0.00000  Uiso   1.00
C1391  C     0.95724   0.50037   0.88544   0.00000  Uiso   1.00
C1392  C     0.71098   0.50872   0.61525   0.00000  Uiso   1.00
C1393  C     0.97913   0.50190   0.95497   0.00000  Uiso   1.00
C1394  C     0.69796   0.54193   0.54909   0.00000  Uiso   1.00
C1395  C     0.99283   0.50012   0.90858   0.00000  Uiso   1.00
C1396  C     0.67987   0.52807   0.59332   0.00000  Uiso   1.00
C1397  C     0.90747   0.50254   0.90978   0.00000  Uiso   1.00
C1398  C     0.76038   0.50184   0.59181   0.00000  Uiso   1.00
C1399  C     0.89443   0.51283   0.95535   0.00000  Uiso   1.00
C1400  C     0.78028   0.52024   0.54886   0.00000  Uiso   1.00
C1401  C     0.93009   0.50798   0.97854   0.00000  Uiso   1.00
C1402  C     0.74761   0.53761   0.52652   0.00000  Uiso   1.00
C1403  C     0.84617   0.52471   0.97908   0.00000  Uiso   1.00
C1404  C     0.83113   0.51952   0.52626   0.00000  Uiso   1.00
Cu1405 Cu    0.71355   0.50001   0.75000   0.00000  Uiso   1.00
Cu1406 Cu    0.95311   0.49999   0.75000   0.00000  Uiso   1.00
H1407  H     0.94358   0.50707   0.54292   0.00000  Uiso   1.00
H1408  H     0.74033   0.56523   0.96501   0.00000  Uiso   1.00
H1409  H     0.97508   0.53322   0.61064   0.00000  Uiso   1.00
H1410  H     0.69795   0.49741   0.89098   0.00000  Uiso   1.00
H1411  H     0.67369   0.49951   0.97230   0.00000  Uiso   1.00
H1412  H     0.67328   0.55682   0.53269   0.00000  Uiso   1.00
H1413  H     0.77410   0.45404   0.80093   0.00000  Uiso   1.00
H1414  H     0.89229   0.54700   0.70024   0.00000  Uiso   1.00
N1415  N     0.78403   0.50001   0.74999   0.00000  Uiso   1.00
N1416  N     0.88264   0.49999   0.75001   0.00000  Uiso   1.00
O1417  O     0.70625   0.43989   0.75000   0.00000  Uiso   1.00
O1418  O     0.96042   0.56011   0.75000   0.00000  Uiso   1.00
O1419  O     0.96039   0.43988   0.75001   0.00000  Uiso   1.00
O1420  O     0.70628   0.56012   0.75000   0.00000  Uiso   1.00
O1421  O     0.68519   0.50001   0.81492   0.00000  Uiso   1.00
O1422  O     0.98148   0.49999   0.68509   0.00000  Uiso   1.00
O1423  O     0.93933   0.50000   0.81492   0.00000  Uiso   1.00
O1424  O     0.72733   0.50000   0.68508   0.00000  Uiso   1.00
O1425  O     0.78829   0.47550   0.61035   0.00000  Uiso   1.00
C1426  C     0.78113   0.43495   0.59893   0.00000  Uiso   1.00
H1427  H     0.79272   0.43146   0.56201   0.00000  Uiso   1.00
H1428  H     0.74245   0.42532   0.61330   0.00000  Uiso   1.00
H1429  H     0.80402   0.41392   0.61326   0.00000  Uiso   1.00
O1430  O     0.87202   0.49172   0.88984   0.00000  Uiso   1.00
C1431  C     0.85452   0.45211   0.90604   0.00000  Uiso   1.00
H1432  H     0.84029   0.45015   0.94312   0.00000  Uiso   1.00
H1433  H     0.82344   0.44486   0.89296   0.00000  Uiso   1.00
H1434  H     0.88349   0.42850   0.89421   0.00000  Uiso   1.00
O1435  O     0.85834   0.52619   0.59330   0.00000  Uiso   1.00
C1436  C     0.86571   0.56879   0.59598   0.00000  Uiso   1.00
H1437  H     0.89584   0.58188   0.56795   0.00000  Uiso   1.00
H1438  H     0.87640   0.57397   0.62673   0.00000  Uiso   1.00
H1439  H     0.83123   0.58580   0.59787   0.00000  Uiso   1.00
O1440  O     0.82888   0.55982   0.91438   0.00000  Uiso   1.00
C1441  C     0.84978   0.59882   0.91452   0.00000  Uiso   1.00
H1442  H     0.88275   0.59672   0.92675   0.00000  Uiso   1.00
H1443  H     0.82276   0.62071   0.93483   0.00000  Uiso   1.00
H1444  H     0.86149   0.61142   0.87968   0.00000  Uiso   1.00
C1445  C     0.94833   0.37674   0.69297   0.00000  Uiso   1.00
H1446  H     0.91487   0.36392   0.68923   0.00000  Uiso   1.00
O1447  O     0.96522   0.40749   0.67085   0.00000  Uiso   1.00
C1448  C     0.71139   0.62449   0.81015   0.00000  Uiso   1.00
H1449  H     0.74192   0.63783   0.81889   0.00000  Uiso   1.00
O1450  O     0.69215   0.59394   0.83123   0.00000  Uiso   1.00
O1451  O     0.94830   0.62453   0.70010   0.00000  Uiso   1.00
C1452  C     0.97994   0.61728   0.65720   0.00000  Uiso   1.00
H1453  H     0.95862   0.60292   0.63706   0.00000  Uiso   1.00
H1454  H     0.67658   0.59576   0.65909   0.00000  Uiso   1.00
H1455  H     0.99548   0.64631   0.63929   0.00000  Uiso   1.00
O1456  O     0.73402   0.37320   0.78135   0.00000  Uiso   1.00
C1457  C     0.77919   0.36864   0.74798   0.00000  Uiso   1.00
H1458  H     0.77638   0.35963   0.71453   0.00000  Uiso   1.00
H1459  H     0.80221   0.34566   0.75971   0.00000  Uiso   1.00
H1460  H     0.79831   0.39848   0.74222   0.00000  Uiso   1.00
O1461  O     0.86640   0.44865   0.80748   0.00000  Uiso   1.00
C1462  C     0.85702   0.40686   0.80285   0.00000  Uiso   1.00
H1463  H     0.81801   0.39951   0.81889   0.00000  Uiso   1.00
H1464  H     0.87876   0.38797   0.82052   0.00000  Uiso   1.00
H1465  H     0.86870   0.39788   0.76730   0.00000  Uiso   1.00
O1466  O     0.80007   0.55490   0.69594   0.00000  Uiso   1.00
C1467  C     0.80647   0.59554   0.70793   0.00000  Uiso   1.00
H1468  H     0.84516   0.60525   0.69514   0.00000  Uiso   1.00
H1469  H     0.79361   0.59941   0.74473   0.00000  Uiso   1.00
H1470  H     0.78452   0.61655   0.69252   0.00000  Uiso   1.00
C1471  C     0.00102   0.75412   0.74782   0.00000  Uiso   1.00
C1472  C     0.33259   0.91249   0.75112   0.00000  Uiso   1.00
C1473  C     0.20121   0.85002   0.54883   0.00000  Uiso   1.00
C1474  C     0.14682   0.87767   0.95787   0.00000  Uiso   1.00
C1475  C     0.24980   0.84332   0.52487   0.00000  Uiso   1.00
C1476  C     0.09818   0.88396   0.98184   0.00000  Uiso   1.00
C1477  C     0.30775   0.68851   0.72225   0.00000  Uiso   1.00
C1478  C     0.02498   0.97816   0.77542   0.00000  Uiso   1.00
C1479  C     0.30708   0.97880   0.72429   0.00000  Uiso   1.00
C1480  C     0.03172   0.68702   0.76755   0.00000  Uiso   1.00
C1481  C     0.33144   0.95709   0.75156   0.00000  Uiso   1.00
C1482  C     0.00277   0.70938   0.74510   0.00000  Uiso   1.00
C1483  C     0.18360   0.80655   0.77752   0.00000  Uiso   1.00
C1484  C     0.14974   0.86070   0.72322   0.00000  Uiso   1.00
C1485  C     0.13350   0.80727   0.77794   0.00000  Uiso   1.00
C1486  C     0.19980   0.85975   0.72253   0.00000  Uiso   1.00
C1487  C     0.30567   0.83257   0.83618   0.00000  Uiso   1.00
C1488  C     0.02777   0.83430   0.66391   0.00000  Uiso   1.00
C1489  C     0.29058   0.83370   0.88544   0.00000  Uiso   1.00
C1490  C     0.04432   0.84205   0.61525   0.00000  Uiso   1.00
C1491  C     0.31247   0.83524   0.95497   0.00000  Uiso   1.00
C1492  C     0.03129   0.87526   0.54909   0.00000  Uiso   1.00
C1493  C     0.32617   0.83345   0.90858   0.00000  Uiso   1.00
C1494  C     0.01321   0.86141   0.59332   0.00000  Uiso   1.00
C1495  C     0.24080   0.83587   0.90978   0.00000  Uiso   1.00
C1496  C     0.09371   0.83517   0.59181   0.00000  Uiso   1.00
C1497  C     0.22776   0.84617   0.95535   0.00000  Uiso   1.00
C1498  C     0.11361   0.85357   0.54886   0.00000  Uiso   1.00
C1499  C     0.26342   0.84131   0.97854   0.00000  Uiso   1.00
C1500  C     0.08095   0.87095   0.52652   0.00000  Uiso   1.00
C1501  C     0.17951   0.85804   0.97908   0.00000  Uiso   1.00
C1502  C     0.16446   0.85286   0.52626   0.00000  Uiso   1.00
Cu1503 Cu    0.04689   0.83334   0.75000   0.00000  Uiso   1.00
Cu1504 Cu    0.28645   0.83333   0.75000   0.00000  Uiso   1.00
H1505  H     0.27691   0.84040   0.54292   0.00000  Uiso   1.00
H1506  H     0.07366   0.89856   0.96501   0.00000  Uiso   1.00
H1507  H     0.30841   0.86655   0.61064   0.00000  Uiso   1.00
H1508  H     0.03128   0.83074   0.89098   0.00000  Uiso   1.00
H1509  H     0.00702   0.83284   0.97230   0.00000  Uiso   1.00
H1510  H     0.00661   0.89015   0.53269   0.00000  Uiso   1.00
H1511  H     0.10743   0.78738   0.80093   0.00000  Uiso   1.00
H1512  H     0.22562   0.88033   0.70024   0.00000  Uiso   1.00
N1513  N     0.11736   0.83334   0.74999   0.00000  Uiso   1.00
N1514  N     0.21597   0.83332   0.75001   0.00000  Uiso   1.00
O1515  O     0.03958   0.77322   0.75000   0.00000  Uiso   1.00
O1516  O     0.29375   0.89345   0.75000   0.00000  Uiso   1.00
O1517  O     0.29372   0.77321   0.75001   0.00000  Uiso   1.00
O1518  O     0.03961   0.89346   0.75000   0.00000  Uiso   1.00
O1519  O     0.01852   0.83334   0.81492   0.00000  Uiso   1.00
O1520  O     0.31481   0.83332   0.68509   0.00000  Uiso   1.00
O1521  O     0.27267   0.83333   0.81492   0.00000  Uiso   1.00
O1522  O     0.06067   0.83333   0.68508   0.00000  Uiso   1.00
O1523  O     0.12162   0.80883   0.61035   0.00000  Uiso   1.00
C1524  C     0.11447   0.76829   0.59893   0.00000  Uiso   1.00
H1525  H     0.12605   0.76479   0.56201   0.00000  Uiso   1.00
H1526  H     0.07578   0.75866   0.61330   0.00000  Uiso   1.00
H1527  H     0.13735   0.74725   0.61326   0.00000  Uiso   1.00
O1528  O     0.20535   0.82505   0.88984   0.00000  Uiso   1.00
C1529  C     0.18786   0.78545   0.90604   0.00000  Uiso   1.00
H1530  H     0.17362   0.78348   0.94312   0.00000  Uiso   1.00
H1531  H     0.15677   0.77819   0.89296   0.00000  Uiso   1.00
H1532  H     0.21683   0.76184   0.89421   0.00000  Uiso   1.00
O1533  O     0.19168   0.85952   0.59330   0.00000  Uiso   1.00
C1534  C     0.19905   0.90212   0.59598   0.00000  Uiso   1.00
H1535  H     0.22918   0.91521   0.56795   0.00000  Uiso   1.00
H1536  H     0.20973   0.90731   0.62673   0.00000  Uiso   1.00
H1537  H     0.16456   0.91914   0.59787   0.00000  Uiso   1.00
O1538  O     0.16221   0.89316   0.91438   0.00000  Uiso   1.00
C1539  C     0.18311   0.93215   0.91452   0.00000  Uiso   1.00
H1540  H     0.21609   0.93006   0.92675   0.00000  Uiso   1.00
H1541  H     0.15609   0.95404   0.93483   0.00000  Uiso   1.00
H1542  H     0.19483   0.94475   0.87968   0.00000  Uiso   1.00
C1543  C     0.28166   0.71007   0.69297   0.00000  Uiso   1.00
H1544  H     0.24820   0.69726   0.68923   0.00000  Uiso   1.00
O1545  O     0.29856   0.74082   0.67085   0.00000  Uiso   1.00
C1546  C     0.04473   0.95782   0.81015   0.00000  Uiso   1.00
H1547  H     0.07526   0.97116   0.81889   0.00000  Uiso   1.00
O1548  O     0.02549   0.92728   0.83123   0.00000  Uiso   1.00
O1549  O     0.28164   0.95786   0.70010   0.00000  Uiso   1.00
C1550  C     0.31327   0.95062   0.65720   0.00000  Uiso   1.00
H1551  H     0.29196   0.93625   0.63706   0.00000  Uiso   1.00
H1552  H     0.00991   0.92909   0.65909   0.00000  Uiso   1.00
H1553  H     0.32881   0.97964   0.63929   0.00000  Uiso   1.00
O1554  O     0.06735   0.70654   0.78135   0.00000  Uiso   1.00
C1555  C     0.11252   0.70197   0.74798   0.00000  Uiso   1.00
H1556  H     0.10971   0.69296   0.71453   0.00000  Uiso   1.00
H1557  H     0.13554   0.67899   0.75971   0.00000  Uiso   1.00
H1558  H     0.13164   0.73181   0.74222   0.00000  Uiso   1.00
O1559  O     0.19973   0.78198   0.80748   0.00000  Uiso   1.00
C1560  C     0.19035   0.74020   0.80285   0.00000  Uiso   1.00
H1561  H     0.15134   0.73285   0.81889   0.00000  Uiso   1.00
H1562  H     0.21210   0.72130   0.82052   0.00000  Uiso   1.00
H1563  H     0.20204   0.73121   0.76730   0.00000  Uiso   1.00
O1564  O     0.13340   0.88823   0.69594   0.00000  Uiso   1.00
C1565  C     0.13980   0.92887   0.70793   0.00000  Uiso   1.00
H1566  H     0.17849   0.93858   0.69514   0.00000  Uiso   1.00
H1567  H     0.12694   0.93274   0.74473   0.00000  Uiso   1.00
H1568  H     0.11786   0.94988   0.69252   0.00000  Uiso   1.00
C1569  C     0.33435   0.75412   0.74782   0.00000  Uiso   1.00
C1570  C     0.66592   0.91249   0.75112   0.00000  Uiso   1.00
C1571  C     0.53454   0.85002   0.54883   0.00000  Uiso   1.00
C1572  C     0.48016   0.87767   0.95787   0.00000  Uiso   1.00
C1573  C     0.58313   0.84332   0.52487   0.00000  Uiso   1.00
C1574  C     0.43151   0.88396   0.98184   0.00000  Uiso   1.00
C1575  C     0.64108   0.68851   0.72225   0.00000  Uiso   1.00
C1576  C     0.35831   0.97816   0.77542   0.00000  Uiso   1.00
C1577  C     0.64041   0.97880   0.72429   0.00000  Uiso   1.00
C1578  C     0.36506   0.68702   0.76755   0.00000  Uiso   1.00
C1579  C     0.66477   0.95709   0.75156   0.00000  Uiso   1.00
C1580  C     0.33611   0.70938   0.74510   0.00000  Uiso   1.00
C1581  C     0.51693   0.80655   0.77752   0.00000  Uiso   1.00
C1582  C     0.48307   0.86070   0.72322   0.00000  Uiso   1.00
C1583  C     0.46683   0.80727   0.77794   0.00000  Uiso   1.00
C1584  C     0.53313   0.85975   0.72253   0.00000  Uiso   1.00
C1585  C     0.63900   0.83257   0.83618   0.00000  Uiso   1.00
C1586  C     0.36111   0.83430   0.66391   0.00000  Uiso   1.00
C1587  C     0.62391   0.83370   0.88544   0.00000  Uiso   1.00
C1588  C     0.37765   0.84205   0.61525   0.00000  Uiso   1.00
C1589  C     0.64580   0.83524   0.95497   0.00000  Uiso   1.00
C1590  C     0.36462   0.87526   0.54909   0.00000  Uiso   1.00
C1591  C     0.65950   0.83345   0.90858   0.00000  Uiso   1.00
C1592  C     0.34654   0.86141   0.59332   0.00000  Uiso   1.00
C1593  C     0.57414   0.83587   0.90978   0.00000  Uiso   1.00
C1594  C     0.42705   0.83517   0.59181   0.00000  Uiso   1.00
C1595  C     0.56109   0.84617   0.95535   0.00000  Uiso   1.00
C1596  C     0.44694   0.85357   0.54886   0.00000  Uiso   1.00
C1597  C     0.59676   0.84131   0.97854   0.00000  Uiso   1.00
C1598  C     0.41428   0.87095   0.52652   0.00000  Uiso   1.00
C1599  C     0.51284   0.85804   0.97908   0.00000  Uiso   1.00
C1600  C     0.49779   0.85286   0.52626   0.00000  Uiso   1.00
Cu1601 Cu    0.38022   0.83334   0.75000   0.00000  Uiso   1.00
Cu1602 Cu    0.61978   0.83333   0.75000   0.00000  Uiso   1.00
H1603  H     0.61025   0.84040   0.54292   0.00000  Uiso   1.00
H1604  H     0.40700   0.89856   0.96501   0.00000  Uiso   1.00
H1605  H     0.64175   0.86655   0.61064   0.00000  Uiso   1.00
H1606  H     0.36462   0.83074   0.89098   0.00000  Uiso   1.00
H1607  H     0.34036   0.83284   0.97230   0.00000  Uiso   1.00
H1608  H     0.33995   0.89015   0.53269   0.00000  Uiso   1.00
H1609  H     0.44076   0.78738   0.80093   0.00000  Uiso   1.00
H1610  H     0.55896   0.88033   0.70024   0.00000  Uiso   1.00
N1611  N     0.45069   0.83334   0.74999   0.00000  Uiso   1.00
N1612  N     0.54931   0.83332   0.75001   0.00000  Uiso   1.00
O1613  O     0.37291   0.77322   0.75000   0.00000  Uiso   1.00
O1614  O     0.62709   0.89345   0.75000   0.00000  Uiso   1.00
O1615  O     0.62706   0.77321   0.75001   0.00000  Uiso   1.00
O1616  O     0.37294   0.89346   0.75000   0.00000  Uiso   1.00
O1617  O     0.35186   0.83334   0.81492   0.00000  Uiso   1.00
O1618  O     0.64814   0.83332   0.68509   0.00000  Uiso   1.00
O1619  O     0.60600   0.83333   0.81492   0.00000  Uiso   1.00
O1620  O     0.39400   0.83333   0.68508   0.00000  Uiso   1.00
O1621  O     0.45495   0.80883   0.61035   0.00000  Uiso   1.00
C1622  C     0.44780   0.76829   0.59893   0.00000  Uiso   1.00
H1623  H     0.45938   0.76479   0.56201   0.00000  Uiso   1.00
H1624  H     0.40911   0.75866   0.61330   0.00000  Uiso   1.00
H1625  H     0.47069   0.74725   0.61326   0.00000  Uiso   1.00
O1626  O     0.53868   0.82505   0.88984   0.00000  Uiso   1.00
C1627  C     0.52119   0.78545   0.90604   0.00000  Uiso   1.00
H1628  H     0.50696   0.78348   0.94312   0.00000  Uiso   1.00
H1629  H     0.49010   0.77819   0.89296   0.00000  Uiso   1.00
H1630  H     0.55016   0.76184   0.89421   0.00000  Uiso   1.00
O1631  O     0.52501   0.85952   0.59330   0.00000  Uiso   1.00
C1632  C     0.53238   0.90212   0.59598   0.00000  Uiso   1.00
H1633  H     0.56251   0.91521   0.56795   0.00000  Uiso   1.00
H1634  H     0.54307   0.90731   0.62673   0.00000  Uiso   1.00
H1635  H     0.49790   0.91914   0.59787   0.00000  Uiso   1.00
O1636  O     0.49555   0.89316   0.91438   0.00000  Uiso   1.00
C1637  C     0.51645   0.93215   0.91452   0.00000  Uiso   1.00
H1638  H     0.54942   0.93006   0.92675   0.00000  Uiso   1.00
H1639  H     0.48943   0.95404   0.93483   0.00000  Uiso   1.00
H1640  H     0.52816   0.94475   0.87968   0.00000  Uiso   1.00
C1641  C     0.61499   0.71007   0.69297   0.00000  Uiso   1.00
H1642  H     0.58154   0.69726   0.68923   0.00000  Uiso   1.00
O1643  O     0.63189   0.74082   0.67085   0.00000  Uiso   1.00
C1644  C     0.37806   0.95782   0.81015   0.00000  Uiso   1.00
H1645  H     0.40859   0.97116   0.81889   0.00000  Uiso   1.00
O1646  O     0.35882   0.92728   0.83123   0.00000  Uiso   1.00
O1647  O     0.61497   0.95786   0.70010   0.00000  Uiso   1.00
C1648  C     0.64660   0.95062   0.65720   0.00000  Uiso   1.00
H1649  H     0.62529   0.93625   0.63706   0.00000  Uiso   1.00
H1650  H     0.34324   0.92909   0.65909   0.00000  Uiso   1.00
H1651  H     0.66215   0.97964   0.63929   0.00000  Uiso   1.00
O1652  O     0.40069   0.70654   0.78135   0.00000  Uiso   1.00
C1653  C     0.44585   0.70197   0.74798   0.00000  Uiso   1.00
H1654  H     0.44305   0.69296   0.71453   0.00000  Uiso   1.00
H1655  H     0.46888   0.67899   0.75971   0.00000  Uiso   1.00
H1656  H     0.46498   0.73181   0.74222   0.00000  Uiso   1.00
O1657  O     0.53307   0.78198   0.80748   0.00000  Uiso   1.00
C1658  C     0.52368   0.74020   0.80285   0.00000  Uiso   1.00
H1659  H     0.48468   0.73285   0.81889   0.00000  Uiso   1.00
H1660  H     0.54543   0.72130   0.82052   0.00000  Uiso   1.00
H1661  H     0.53537   0.73121   0.76730   0.00000  Uiso   1.00
O1662  O     0.46674   0.88823   0.69594   0.00000  Uiso   1.00
C1663  C     0.47313   0.92887   0.70793   0.00000  Uiso   1.00
H1664  H     0.51183   0.93858   0.69514   0.00000  Uiso   1.00
H1665  H     0.46027   0.93274   0.74473   0.00000  Uiso   1.00
H1666  H     0.45119   0.94988   0.69252   0.00000  Uiso   1.00
C1667  C     0.66769   0.75412   0.74782   0.00000  Uiso   1.00
C1668  C     0.99925   0.91249   0.75112   0.00000  Uiso   1.00
C1669  C     0.86787   0.85002   0.54883   0.00000  Uiso   1.00
C1670  C     0.81349   0.87767   0.95787   0.00000  Uiso   1.00
C1671  C     0.91647   0.84332   0.52487   0.00000  Uiso   1.00
C1672  C     0.76484   0.88396   0.98184   0.00000  Uiso   1.00
C1673  C     0.97442   0.68851   0.72225   0.00000  Uiso   1.00
C1674  C     0.69165   0.97816   0.77542   0.00000  Uiso   1.00
C1675  C     0.97375   0.97880   0.72429   0.00000  Uiso   1.00
C1676  C     0.69839   0.68702   0.76755   0.00000  Uiso   1.00
C1677  C     0.99811   0.95709   0.75156   0.00000  Uiso   1.00
C1678  C     0.66944   0.70938   0.74510   0.00000  Uiso   1.00
C1679  C     0.85026   0.80655   0.77752   0.00000  Uiso   1.00
C1680  C     0.81640   0.86070   0.72322   0.00000  Uiso   1.00
C1681  C     0.80016   0.80727   0.77794   0.00000  Uiso   1.00
C1682  C     0.86646   0.85975   0.72253   0.00000  Uiso   1.00
C1683  C     0.97233   0.83257   0.83618   0.00000  Uiso   1.00
C1684  C     0.69444   0.83430   0.66391   0.00000  Uiso   1.00
C1685  C     0.95724   0.83370   0.88544   0.00000  Uiso   1.00
C1686  C     0.71098   0.84205   0.61525   0.00000  Uiso   1.00
C1687  C     0.97913   0.83524   0.95497   0.00000  Uiso   1.00
C1688  C     0.69796   0.87526   0.54909   0.00000  Uiso   1.00
C1689  C     0.99283   0.83345   0.90858   0.00000  Uiso   1.00
C1690  C     0.67987   0.86141   0.59332   0.00000  Uiso   1.00
C1691  C     0.90747   0.83587   0.90978   0.00000  Uiso   1.00
C1692  C     0.76038   0.83517   0.59181   0.00000  Uiso   1.00
C1693  C     0.89443   0.84617   0.95535   0.00000  Uiso   1.00
C1694  C     0.78028   0.85357   0.54886   0.00000  Uiso   1.00
C1695  C     0.93009   0.84131   0.97854   0.00000  Uiso   1.00
C1696  C     0.74761   0.87095   0.52652   0.00000  Uiso   1.00
C1697  C     0.84617   0.85804   0.97908   0.00000  Uiso   1.00
C1698  C     0.83113   0.85286   0.52626   0.00000  Uiso   1.00
Cu1699 Cu    0.71355   0.83334   0.75000   0.00000  Uiso   1.00
Cu1700 Cu    0.95311   0.83333   0.75000   0.00000  Uiso   1.00
H1701  H     0.94358   0.84040   0.54292   0.00000  Uiso   1.00
H1702  H     0.74033   0.89856   0.96501   0.00000  Uiso   1.00
H1703  H     0.97508   0.86655   0.61064   0.00000  Uiso   1.00
H1704  H     0.69795   0.83074   0.89098   0.00000  Uiso   1.00
H1705  H     0.67369   0.83284   0.97230   0.00000  Uiso   1.00
H1706  H     0.67328   0.89015   0.53269   0.00000  Uiso   1.00
H1707  H     0.77410   0.78738   0.80093   0.00000  Uiso   1.00
H1708  H     0.89229   0.88033   0.70024   0.00000  Uiso   1.00
N1709  N     0.78403   0.83334   0.74999   0.00000  Uiso   1.00
N1710  N     0.88264   0.83332   0.75001   0.00000  Uiso   1.00
O1711  O     0.70625   0.77322   0.75000   0.00000  Uiso   1.00
O1712  O     0.96042   0.89345   0.75000   0.00000  Uiso   1.00
O1713  O     0.96039   0.77321   0.75001   0.00000  Uiso   1.00
O1714  O     0.70628   0.89346   0.75000   0.00000  Uiso   1.00
O1715  O     0.68519   0.83334   0.81492   0.00000  Uiso   1.00
O1716  O     0.98148   0.83332   0.68509   0.00000  Uiso   1.00
O1717  O     0.93933   0.83333   0.81492   0.00000  Uiso   1.00
O1718  O     0.72733   0.83333   0.68508   0.00000  Uiso   1.00
O1719  O     0.78829   0.80883   0.61035   0.00000  Uiso   1.00
C1720  C     0.78113   0.76829   0.59893   0.00000  Uiso   1.00
H1721  H     0.79272   0.76479   0.56201   0.00000  Uiso   1.00
H1722  H     0.74245   0.75866   0.61330   0.00000  Uiso   1.00
H1723  H     0.80402   0.74725   0.61326   0.00000  Uiso   1.00
O1724  O     0.87202   0.82505   0.88984   0.00000  Uiso   1.00
C1725  C     0.85452   0.78545   0.90604   0.00000  Uiso   1.00
H1726  H     0.84029   0.78348   0.94312   0.00000  Uiso   1.00
H1727  H     0.82344   0.77819   0.89296   0.00000  Uiso   1.00
H1728  H     0.88349   0.76184   0.89421   0.00000  Uiso   1.00
O1729  O     0.85834   0.85952   0.59330   0.00000  Uiso   1.00
C1730  C     0.86571   0.90212   0.59598   0.00000  Uiso   1.00
H1731  H     0.89584   0.91521   0.56795   0.00000  Uiso   1.00
H1732  H     0.87640   0.90731   0.62673   0.00000  Uiso   1.00
H1733  H     0.83123   0.91914   0.59787   0.00000  Uiso   1.00
O1734  O     0.82888   0.89316   0.91438   0.00000  Uiso   1.00
C1735  C     0.84978   0.93215   0.91452   0.00000  Uiso   1.00
H1736  H     0.88275   0.93006   0.92675   0.00000  Uiso   1.00
H1737  H     0.82276   0.95404   0.93483   0.00000  Uiso   1.00
H1738  H     0.86149   0.94475   0.87968   0.00000  Uiso   1.00
C1739  C     0.94833   0.71007   0.69297   0.00000  Uiso   1.00
H1740  H     0.91487   0.69726   0.68923   0.00000  Uiso   1.00
O1741  O     0.96522   0.74082   0.67085   0.00000  Uiso   1.00
C1742  C     0.71139   0.95782   0.81015   0.00000  Uiso   1.00
H1743  H     0.74192   0.97116   0.81889   0.00000  Uiso   1.00
O1744  O     0.69215   0.92728   0.83123   0.00000  Uiso   1.00
O1745  O     0.94830   0.95786   0.70010   0.00000  Uiso   1.00
C1746  C     0.97994   0.95062   0.65720   0.00000  Uiso   1.00
H1747  H     0.95862   0.93625   0.63706   0.00000  Uiso   1.00
H1748  H     0.67658   0.92909   0.65909   0.00000  Uiso   1.00
H1749  H     0.99548   0.97964   0.63929   0.00000  Uiso   1.00
O1750  O     0.73402   0.70654   0.78135   0.00000  Uiso   1.00
C1751  C     0.77919   0.70197   0.74798   0.00000  Uiso   1.00
H1752  H     0.77638   0.69296   0.71453   0.00000  Uiso   1.00
H1753  H     0.80221   0.67899   0.75971   0.00000  Uiso   1.00
H1754  H     0.79831   0.73181   0.74222   0.00000  Uiso   1.00
O1755  O     0.86640   0.78198   0.80748   0.00000  Uiso   1.00
C1756  C     0.85702   0.74020   0.80285   0.00000  Uiso   1.00
H1757  H     0.81801   0.73285   0.81889   0.00000  Uiso   1.00
H1758  H     0.87876   0.72130   0.82052   0.00000  Uiso   1.00
H1759  H     0.86870   0.73121   0.76730   0.00000  Uiso   1.00
O1760  O     0.80007   0.88823   0.69594   0.00000  Uiso   1.00
C1761  C     0.80647   0.92887   0.70793   0.00000  Uiso   1.00
H1762  H     0.84516   0.93858   0.69514   0.00000  Uiso   1.00
H1763  H     0.79361   0.93274   0.74473   0.00000  Uiso   1.00
H1764  H     0.78452   0.94988   0.69252   0.00000  Uiso   1.00
loop_
_geom_bond_atom_site_label_1
_geom_bond_atom_site_label_2
_geom_bond_distance
_geom_bond_site_symmetry_2
_ccdc_geom_bond_type
C1     C12     1.460   .     S
C1     O45     1.292   .     A
C1     O243    1.294   1_455 S
C2     O46     1.288   .     A
C2     C11     1.451   .     S
C2     O146    1.293   .     S
C3     C32     1.421   .     A
C3     C5      1.395   .     A
C3     O63     1.381   .     S
C4     C6      1.394   .     A
C4     O68     1.383   .     S
C4     C31     1.423   .     A
C5     H35     1.081   .     S
C5     C911    1.390   1_554 S
C6     H36     1.084   .     S
C6     C912    1.394   .     S
C7     C73     1.488   .     S
C7     C597    1.400   1_545 S
C7     C110    1.414   .     S
C8     C76     1.491   .     S
C8     C304    1.393   .     S
C8     C207    1.409   1_455 S
C9     O79     1.386   .     S
C9     C11     1.412   .     A
C9     C301    1.400   .     S
C10    O84     1.382   .     S
C10    C12     1.409   .     A
C10    C596    1.393   1_545 S
C11    C106    1.409   .     S
C12    C203    1.414   1_455 S
C13    C15     1.427   .     A
C13    O89     1.383   .     S
C13    N44     1.369   .     A
C14    C16     1.424   .     A
C14    O94     1.382   .     S
C14    N43     1.372   .     A
C15    H41     1.081   .     S
C15    N43     1.365   .     A
C16    N44     1.362   .     A
C16    H42     1.081   .     S
C17    O51     1.298   .     A
C17    C19     1.475   .     S
C17    O147    1.298   .     S
C18    O52     1.293   .     A
C18    C20     1.471   .     S
C18    O246    1.300   1_455 S
C19    C23     1.405   .     A
C19    C25     1.411   .     A
C20    C24     1.399   .     A
C20    C26     1.411   .     A
C21    C29     1.399   .     A
C21    C23     1.391   .     A
C21    H137    1.084   .     S
C22    H40     1.083   .     S
C22    C30     1.400   .     A
C22    C24     1.392   .     A
C23    H136    1.083   .     S
C24    H233    1.083   1_455 S
C25    O58     1.385   .     S
C25    C27     1.414   .     A
C26    O53     1.384   .     S
C26    C28     1.416   .     A
C27    C29     1.412   .     A
C27    C31     1.422   .     A
C28    C32     1.423   .     A
C28    C30     1.417   .     A
C29    C887    1.390   .     S
C30    C888    1.394   1_554 S
C31    C914    1.417   .     S
C32    C913    1.417   1_554 S
Cu33   O45     1.970   .     S
Cu33   O52     1.951   .     S
Cu33   O49     1.956   .     S
Cu33   N43     2.013   .     S
Cu33   O48     1.964   .     S
Cu33   Cu230   2.679   1_455 S
Cu34   O51     1.951   .     S
Cu34   O46     1.970   .     S
Cu34   O50     1.956   .     S
Cu34   N44     2.013   .     S
Cu34   O47     1.964   .     S
Cu34   Cu131   2.679   .     S
H37    C122    1.083   .     S
H38    C219    1.083   1_455 S
H39    C217    1.084   1_455 S
O47    C99     1.294   .     S
O48    C198    1.293   1_455 S
O49    C213    1.298   1_455 S
O50    C116    1.300   .     S
O53    C54     1.410   .     S
C54    H56     1.113   .     S
C54    H55     1.114   .     S
C54    H57     1.109   .     S
O58    C59     1.414   .     S
C59    H60     1.112   .     S
C59    H61     1.109   .     S
C59    H62     1.113   .     S
O63    C64     1.413   .     S
C64    H67     1.111   .     S
C64    H66     1.105   .     S
C64    H65     1.116   .     S
O68    C69     1.410   .     S
C69    H70     1.113   .     S
C69    H71     1.113   .     S
C69    H72     1.109   .     S
C73    H74     1.086   .     S
C73    O75     1.221   .     D
C76    O78     1.221   .     D
C76    H77     1.085   .     S
O79    C80     1.411   .     S
C80    H83     1.113   .     S
C80    H81     1.108   .     S
C80    H180    1.112   .     S
H82    C276    1.112   1_455 S
O84    C85     1.418   .     S
C85    H87     1.110   .     S
C85    H86     1.118   .     S
C85    H88     1.105   .     S
O89    C90     1.409   .     S
C90    H92     1.109   .     S
C90    H93     1.111   .     S
C90    H91     1.110   .     S
O94    C95     1.414   .     S
C95    H96     1.110   .     S
C95    H98     1.109   .     S
C95    H97     1.113   .     S
C99    C110    1.460   .     S
C99    O143    1.292   .     A
C100   O144    1.288   .     A
C100   C109    1.451   .     S
C100   O244    1.293   .     S
C101   C130    1.421   .     A
C101   C103    1.395   .     A
C101   O161    1.381   .     S
C102   C104    1.394   .     A
C102   O166    1.383   .     S
C102   C129    1.423   .     A
C103   H133    1.081   .     S
C103   C1009   1.390   1_554 S
C104   H134    1.084   .     S
C104   C1010   1.394   .     S
C105   C171    1.488   .     S
C105   C695    1.400   1_545 S
C105   C208    1.414   .     S
C106   C174    1.491   .     S
C106   C402    1.393   .     S
C107   O177    1.386   .     S
C107   C109    1.412   .     A
C107   C399    1.400   .     S
C108   O182    1.382   .     S
C108   C110    1.409   .     A
C108   C694    1.393   1_545 S
C109   C204    1.409   .     S
C111   C113    1.427   .     A
C111   O187    1.383   .     S
C111   N142    1.369   .     A
C112   C114    1.424   .     A
C112   O192    1.382   .     S
C112   N141    1.372   .     A
C113   H139    1.081   .     S
C113   N141    1.365   .     A
C114   N142    1.362   .     A
C114   H140    1.081   .     S
C115   O149    1.298   .     A
C115   C117    1.475   .     S
C115   O245    1.298   .     S
C116   O150    1.293   .     A
C116   C118    1.471   .     S
C117   C121    1.405   .     A
C117   C123    1.411   .     A
C118   C122    1.399   .     A
C118   C124    1.411   .     A
C119   C127    1.399   .     A
C119   C121    1.391   .     A
C119   H235    1.084   .     S
C120   H138    1.083   .     S
C120   C128    1.400   .     A
C120   C122    1.392   .     A
C121   H234    1.083   .     S
C123   O156    1.385   .     S
C123   C125    1.414   .     A
C124   O151    1.384   .     S
C124   C126    1.416   .     A
C125   C127    1.412   .     A
C125   C129    1.422   .     A
C126   C130    1.423   .     A
C126   C128    1.417   .     A
C127   C985    1.390   .     S
C128   C986    1.394   1_554 S
C129   C1012   1.417   .     S
C130   C1011   1.417   1_554 S
Cu131  O143    1.970   .     S
Cu131  O150    1.951   .     S
Cu131  O147    1.956   .     S
Cu131  N141    2.013   .     S
Cu131  O146    1.964   .     S
Cu132  O149    1.951   .     S
Cu132  O144    1.970   .     S
Cu132  O148    1.956   .     S
Cu132  N142    2.013   .     S
Cu132  O145    1.964   .     S
Cu132  Cu229   2.679   .     S
H135   C220    1.083   .     S
O145   C197    1.294   .     S
O148   C214    1.300   .     S
O151   C152    1.410   .     S
C152   H154    1.113   .     S
C152   H153    1.114   .     S
C152   H155    1.109   .     S
O156   C157    1.414   .     S
C157   H158    1.112   .     S
C157   H159    1.109   .     S
C157   H160    1.113   .     S
O161   C162    1.413   .     S
C162   H165    1.111   .     S
C162   H164    1.105   .     S
C162   H163    1.116   .     S
O166   C167    1.410   .     S
C167   H168    1.113   .     S
C167   H169    1.113   .     S
C167   H170    1.109   .     S
C171   H172    1.086   .     S
C171   O173    1.221   .     D
C174   O176    1.221   .     D
C174   H175    1.085   .     S
O177   C178    1.411   .     S
C178   H181    1.113   .     S
C178   H179    1.108   .     S
C178   H278    1.112   .     S
O182   C183    1.418   .     S
C183   H185    1.110   .     S
C183   H184    1.118   .     S
C183   H186    1.105   .     S
O187   C188    1.409   .     S
C188   H190    1.109   .     S
C188   H191    1.111   .     S
C188   H189    1.110   .     S
O192   C193    1.414   .     S
C193   H194    1.110   .     S
C193   H196    1.109   .     S
C193   H195    1.113   .     S
C197   C208    1.460   .     S
C197   O241    1.292   .     A
C198   O242    1.288   .     A
C198   C207    1.451   .     S
C198   O48     1.293   1_655 S
C199   C228    1.421   .     A
C199   C201    1.395   .     A
C199   O259    1.381   .     S
C200   C202    1.394   .     A
C200   O264    1.383   .     S
C200   C227    1.423   .     A
C201   H231    1.081   .     S
C201   C1107   1.390   1_554 S
C202   H232    1.084   .     S
C202   C1108   1.394   .     S
C203   C269    1.488   .     S
C203   C793    1.400   1_545 S
C203   C12     1.414   1_655 S
C204   C272    1.491   .     S
C204   C500    1.393   .     S
C205   O275    1.386   .     S
C205   C207    1.412   .     A
C205   C497    1.400   .     S
C206   O280    1.382   .     S
C206   C208    1.409   .     A
C206   C792    1.393   1_545 S
C207   C8      1.409   1_655 S
C209   C211    1.427   .     A
C209   O285    1.383   .     S
C209   N240    1.369   .     A
C210   C212    1.424   .     A
C210   O290    1.382   .     S
C210   N239    1.372   .     A
C211   H237    1.081   .     S
C211   N239    1.365   .     A
C212   N240    1.362   .     A
C212   H238    1.081   .     S
C213   O247    1.298   .     A
C213   C215    1.475   .     S
C213   O49     1.298   1_655 S
C214   O248    1.293   .     A
C214   C216    1.471   .     S
C215   C219    1.405   .     A
C215   C221    1.411   .     A
C216   C220    1.399   .     A
C216   C222    1.411   .     A
C217   C225    1.399   .     A
C217   C219    1.391   .     A
C217   H39     1.084   1_655 S
C218   H236    1.083   .     S
C218   C226    1.400   .     A
C218   C220    1.392   .     A
C219   H38     1.083   1_655 S
C221   O254    1.385   .     S
C221   C223    1.414   .     A
C222   O249    1.384   .     S
C222   C224    1.416   .     A
C223   C225    1.412   .     A
C223   C227    1.422   .     A
C224   C228    1.423   .     A
C224   C226    1.417   .     A
C225   C1083   1.390   .     S
C226   C1084   1.394   1_554 S
C227   C1110   1.417   .     S
C228   C1109   1.417   1_554 S
Cu229  O241    1.970   .     S
Cu229  O248    1.951   .     S
Cu229  O245    1.956   .     S
Cu229  N239    2.013   .     S
Cu229  O244    1.964   .     S
Cu230  O247    1.951   .     S
Cu230  O242    1.970   .     S
Cu230  O246    1.956   .     S
Cu230  N240    2.013   .     S
Cu230  O243    1.964   .     S
Cu230  Cu33    2.679   1_655 S
H233   C24     1.083   1_655 S
O243   C1      1.294   1_655 S
O246   C18     1.300   1_655 S
O249   C250    1.410   .     S
C250   H252    1.113   .     S
C250   H251    1.114   .     S
C250   H253    1.109   .     S
O254   C255    1.414   .     S
C255   H256    1.112   .     S
C255   H257    1.109   .     S
C255   H258    1.113   .     S
O259   C260    1.413   .     S
C260   H263    1.111   .     S
C260   H262    1.105   .     S
C260   H261    1.116   .     S
O264   C265    1.410   .     S
C265   H266    1.113   .     S
C265   H267    1.113   .     S
C265   H268    1.109   .     S
C269   H270    1.086   .     S
C269   O271    1.221   .     D
C272   O274    1.221   .     D
C272   H273    1.085   .     S
O275   C276    1.411   .     S
C276   H279    1.113   .     S
C276   H277    1.108   .     S
C276   H82     1.112   1_655 S
O280   C281    1.418   .     S
C281   H283    1.110   .     S
C281   H282    1.118   .     S
C281   H284    1.105   .     S
O285   C286    1.409   .     S
C286   H288    1.109   .     S
C286   H289    1.111   .     S
C286   H287    1.110   .     S
O290   C291    1.414   .     S
C291   H292    1.110   .     S
C291   H294    1.109   .     S
C291   H293    1.113   .     S
C295   C306    1.460   .     S
C295   O339    1.292   .     A
C295   O537    1.294   1_455 S
C296   O340    1.288   .     A
C296   C305    1.451   .     S
C296   O440    1.293   .     S
C297   C326    1.421   .     A
C297   C299    1.395   .     A
C297   O357    1.381   .     S
C298   C300    1.394   .     A
C298   O362    1.383   .     S
C298   C325    1.423   .     A
C299   H329    1.081   .     S
C299   C1205   1.390   1_554 S
C300   H330    1.084   .     S
C300   C1206   1.394   .     S
C301   C367    1.488   .     S
C301   C404    1.414   .     S
C302   C370    1.491   .     S
C302   C598    1.393   .     S
C302   C501    1.409   1_455 S
C303   O373    1.386   .     S
C303   C305    1.412   .     A
C303   C595    1.400   .     S
C304   O378    1.382   .     S
C304   C306    1.409   .     A
C305   C400    1.409   .     S
C306   C497    1.414   1_455 S
C307   C309    1.427   .     A
C307   O383    1.383   .     S
C307   N338    1.369   .     A
C308   C310    1.424   .     A
C308   O388    1.382   .     S
C308   N337    1.372   .     A
C309   H335    1.081   .     S
C309   N337    1.365   .     A
C310   N338    1.362   .     A
C310   H336    1.081   .     S
C311   O345    1.298   .     A
C311   C313    1.475   .     S
C311   O441    1.298   .     S
C312   O346    1.293   .     A
C312   C314    1.471   .     S
C312   O540    1.300   1_455 S
C313   C317    1.405   .     A
C313   C319    1.411   .     A
C314   C318    1.399   .     A
C314   C320    1.411   .     A
C315   C323    1.399   .     A
C315   C317    1.391   .     A
C315   H431    1.084   .     S
C316   H334    1.083   .     S
C316   C324    1.400   .     A
C316   C318    1.392   .     A
C317   H430    1.083   .     S
C318   H527    1.083   1_455 S
C319   O352    1.385   .     S
C319   C321    1.414   .     A
C320   O347    1.384   .     S
C320   C322    1.416   .     A
C321   C323    1.412   .     A
C321   C325    1.422   .     A
C322   C326    1.423   .     A
C322   C324    1.417   .     A
C323   C1181   1.390   .     S
C324   C1182   1.394   1_554 S
C325   C1208   1.417   .     S
C326   C1207   1.417   1_554 S
Cu327  O339    1.970   .     S
Cu327  O346    1.951   .     S
Cu327  O343    1.956   .     S
Cu327  N337    2.013   .     S
Cu327  O342    1.964   .     S
Cu327  Cu524   2.679   1_455 S
Cu328  O345    1.951   .     S
Cu328  O340    1.970   .     S
Cu328  O344    1.956   .     S
Cu328  N338    2.013   .     S
Cu328  O341    1.964   .     S
Cu328  Cu425   2.679   .     S
H331   C416    1.083   .     S
H332   C513    1.083   1_455 S
H333   C511    1.084   1_455 S
O341   C393    1.294   .     S
O342   C492    1.293   1_455 S
O343   C507    1.298   1_455 S
O344   C410    1.300   .     S
O347   C348    1.410   .     S
C348   H350    1.113   .     S
C348   H349    1.114   .     S
C348   H351    1.109   .     S
O352   C353    1.414   .     S
C353   H354    1.112   .     S
C353   H355    1.109   .     S
C353   H356    1.113   .     S
O357   C358    1.413   .     S
C358   H361    1.111   .     S
C358   H360    1.105   .     S
C358   H359    1.116   .     S
O362   C363    1.410   .     S
C363   H364    1.113   .     S
C363   H365    1.113   .     S
C363   H366    1.109   .     S
C367   H368    1.086   .     S
C367   O369    1.221   .     D
C370   O372    1.221   .     D
C370   H371    1.085   .     S
O373   C374    1.411   .     S
C374   H377    1.113   .     S
C374   H375    1.108   .     S
C374   H474    1.112   .     S
H376   C570    1.112   1_455 S
O378   C379    1.418   .     S
C379   H381    1.110   .     S
C379   H380    1.118   .     S
C379   H382    1.105   .     S
O383   C384    1.409   .     S
C384   H386    1.109   .     S
C384   H387    1.111   .     S
C384   H385    1.110   .     S
O388   C389    1.414   .     S
C389   H390    1.110   .     S
C389   H392    1.109   .     S
C389   H391    1.113   .     S
C393   C404    1.460   .     S
C393   O437    1.292   .     A
C394   O438    1.288   .     A
C394   C403    1.451   .     S
C394   O538    1.293   .     S
C395   C424    1.421   .     A
C395   C397    1.395   .     A
C395   O455    1.381   .     S
C396   C398    1.394   .     A
C396   O460    1.383   .     S
C396   C423    1.423   .     A
C397   H427    1.081   .     S
C397   C1303   1.390   1_554 S
C398   H428    1.084   .     S
C398   C1304   1.394   .     S
C399   C465    1.488   .     S
C399   C502    1.414   .     S
C400   C468    1.491   .     S
C400   C696    1.393   .     S
C401   O471    1.386   .     S
C401   C403    1.412   .     A
C401   C693    1.400   .     S
C402   O476    1.382   .     S
C402   C404    1.409   .     A
C403   C498    1.409   .     S
C405   C407    1.427   .     A
C405   O481    1.383   .     S
C405   N436    1.369   .     A
C406   C408    1.424   .     A
C406   O486    1.382   .     S
C406   N435    1.372   .     A
C407   H433    1.081   .     S
C407   N435    1.365   .     A
C408   N436    1.362   .     A
C408   H434    1.081   .     S
C409   O443    1.298   .     A
C409   C411    1.475   .     S
C409   O539    1.298   .     S
C410   O444    1.293   .     A
C410   C412    1.471   .     S
C411   C415    1.405   .     A
C411   C417    1.411   .     A
C412   C416    1.399   .     A
C412   C418    1.411   .     A
C413   C421    1.399   .     A
C413   C415    1.391   .     A
C413   H529    1.084   .     S
C414   H432    1.083   .     S
C414   C422    1.400   .     A
C414   C416    1.392   .     A
C415   H528    1.083   .     S
C417   O450    1.385   .     S
C417   C419    1.414   .     A
C418   O445    1.384   .     S
C418   C420    1.416   .     A
C419   C421    1.412   .     A
C419   C423    1.422   .     A
C420   C424    1.423   .     A
C420   C422    1.417   .     A
C421   C1279   1.390   .     S
C422   C1280   1.394   1_554 S
C423   C1306   1.417   .     S
C424   C1305   1.417   1_554 S
Cu425  O437    1.970   .     S
Cu425  O444    1.951   .     S
Cu425  O441    1.956   .     S
Cu425  N435    2.013   .     S
Cu425  O440    1.964   .     S
Cu426  O443    1.951   .     S
Cu426  O438    1.970   .     S
Cu426  O442    1.956   .     S
Cu426  N436    2.013   .     S
Cu426  O439    1.964   .     S
Cu426  Cu523   2.679   .     S
H429   C514    1.083   .     S
O439   C491    1.294   .     S
O442   C508    1.300   .     S
O445   C446    1.410   .     S
C446   H448    1.113   .     S
C446   H447    1.114   .     S
C446   H449    1.109   .     S
O450   C451    1.414   .     S
C451   H452    1.112   .     S
C451   H453    1.109   .     S
C451   H454    1.113   .     S
O455   C456    1.413   .     S
C456   H459    1.111   .     S
C456   H458    1.105   .     S
C456   H457    1.116   .     S
O460   C461    1.410   .     S
C461   H462    1.113   .     S
C461   H463    1.113   .     S
C461   H464    1.109   .     S
C465   H466    1.086   .     S
C465   O467    1.221   .     D
C468   O470    1.221   .     D
C468   H469    1.085   .     S
O471   C472    1.411   .     S
C472   H475    1.113   .     S
C472   H473    1.108   .     S
C472   H572    1.112   .     S
O476   C477    1.418   .     S
C477   H479    1.110   .     S
C477   H478    1.118   .     S
C477   H480    1.105   .     S
O481   C482    1.409   .     S
C482   H484    1.109   .     S
C482   H485    1.111   .     S
C482   H483    1.110   .     S
O486   C487    1.414   .     S
C487   H488    1.110   .     S
C487   H490    1.109   .     S
C487   H489    1.113   .     S
C491   C502    1.460   .     S
C491   O535    1.292   .     A
C492   O536    1.288   .     A
C492   C501    1.451   .     S
C492   O342    1.293   1_655 S
C493   C522    1.421   .     A
C493   C495    1.395   .     A
C493   O553    1.381   .     S
C494   C496    1.394   .     A
C494   O558    1.383   .     S
C494   C521    1.423   .     A
C495   H525    1.081   .     S
C495   C1401   1.390   1_554 S
C496   H526    1.084   .     S
C496   C1402   1.394   .     S
C497   C563    1.488   .     S
C497   C306    1.414   1_655 S
C498   C566    1.491   .     S
C498   C794    1.393   .     S
C499   O569    1.386   .     S
C499   C501    1.412   .     A
C499   C791    1.400   .     S
C500   O574    1.382   .     S
C500   C502    1.409   .     A
C501   C302    1.409   1_655 S
C503   C505    1.427   .     A
C503   O579    1.383   .     S
C503   N534    1.369   .     A
C504   C506    1.424   .     A
C504   O584    1.382   .     S
C504   N533    1.372   .     A
C505   H531    1.081   .     S
C505   N533    1.365   .     A
C506   N534    1.362   .     A
C506   H532    1.081   .     S
C507   O541    1.298   .     A
C507   C509    1.475   .     S
C507   O343    1.298   1_655 S
C508   O542    1.293   .     A
C508   C510    1.471   .     S
C509   C513    1.405   .     A
C509   C515    1.411   .     A
C510   C514    1.399   .     A
C510   C516    1.411   .     A
C511   C519    1.399   .     A
C511   C513    1.391   .     A
C511   H333    1.084   1_655 S
C512   H530    1.083   .     S
C512   C520    1.400   .     A
C512   C514    1.392   .     A
C513   H332    1.083   1_655 S
C515   O548    1.385   .     S
C515   C517    1.414   .     A
C516   O543    1.384   .     S
C516   C518    1.416   .     A
C517   C519    1.412   .     A
C517   C521    1.422   .     A
C518   C522    1.423   .     A
C518   C520    1.417   .     A
C519   C1377   1.390   .     S
C520   C1378   1.394   1_554 S
C521   C1404   1.417   .     S
C522   C1403   1.417   1_554 S
Cu523  O535    1.970   .     S
Cu523  O542    1.951   .     S
Cu523  O539    1.956   .     S
Cu523  N533    2.013   .     S
Cu523  O538    1.964   .     S
Cu524  O541    1.951   .     S
Cu524  O536    1.970   .     S
Cu524  O540    1.956   .     S
Cu524  N534    2.013   .     S
Cu524  O537    1.964   .     S
Cu524  Cu327   2.679   1_655 S
H527   C318    1.083   1_655 S
O537   C295    1.294   1_655 S
O540   C312    1.300   1_655 S
O543   C544    1.410   .     S
C544   H546    1.113   .     S
C544   H545    1.114   .     S
C544   H547    1.109   .     S
O548   C549    1.414   .     S
C549   H550    1.112   .     S
C549   H551    1.109   .     S
C549   H552    1.113   .     S
O553   C554    1.413   .     S
C554   H557    1.111   .     S
C554   H556    1.105   .     S
C554   H555    1.116   .     S
O558   C559    1.410   .     S
C559   H560    1.113   .     S
C559   H561    1.113   .     S
C559   H562    1.109   .     S
C563   H564    1.086   .     S
C563   O565    1.221   .     D
C566   O568    1.221   .     D
C566   H567    1.085   .     S
O569   C570    1.411   .     S
C570   H573    1.113   .     S
C570   H571    1.108   .     S
C570   H376    1.112   1_655 S
O574   C575    1.418   .     S
C575   H577    1.110   .     S
C575   H576    1.118   .     S
C575   H578    1.105   .     S
O579   C580    1.409   .     S
C580   H582    1.109   .     S
C580   H583    1.111   .     S
C580   H581    1.110   .     S
O584   C585    1.414   .     S
C585   H586    1.110   .     S
C585   H588    1.109   .     S
C585   H587    1.113   .     S
C589   C600    1.460   .     S
C589   O633    1.292   .     A
C589   O831    1.294   1_455 S
C590   O634    1.288   .     A
C590   C599    1.451   .     S
C590   O734    1.293   .     S
C591   C620    1.421   .     A
C591   C593    1.395   .     A
C591   O651    1.381   .     S
C592   C594    1.394   .     A
C592   O656    1.383   .     S
C592   C619    1.423   .     A
C593   H623    1.081   .     S
C593   C1499   1.390   1_554 S
C594   H624    1.084   .     S
C594   C1500   1.394   .     S
C595   C661    1.488   .     S
C595   C698    1.414   .     S
C596   C664    1.491   .     S
C596   C10     1.393   1_565 S
C596   C795    1.409   1_455 S
C597   O667    1.386   .     S
C597   C599    1.412   .     A
C597   C7      1.400   1_565 S
C598   O672    1.382   .     S
C598   C600    1.409   .     A
C599   C694    1.409   .     S
C600   C791    1.414   1_455 S
C601   C603    1.427   .     A
C601   O677    1.383   .     S
C601   N632    1.369   .     A
C602   C604    1.424   .     A
C602   O682    1.382   .     S
C602   N631    1.372   .     A
C603   H629    1.081   .     S
C603   N631    1.365   .     A
C604   N632    1.362   .     A
C604   H630    1.081   .     S
C605   O639    1.298   .     A
C605   C607    1.475   .     S
C605   O735    1.298   .     S
C606   O640    1.293   .     A
C606   C608    1.471   .     S
C606   O834    1.300   1_455 S
C607   C611    1.405   .     A
C607   C613    1.411   .     A
C608   C612    1.399   .     A
C608   C614    1.411   .     A
C609   C617    1.399   .     A
C609   C611    1.391   .     A
C609   H725    1.084   .     S
C610   H628    1.083   .     S
C610   C618    1.400   .     A
C610   C612    1.392   .     A
C611   H724    1.083   .     S
C612   H821    1.083   1_455 S
C613   O646    1.385   .     S
C613   C615    1.414   .     A
C614   O641    1.384   .     S
C614   C616    1.416   .     A
C615   C617    1.412   .     A
C615   C619    1.422   .     A
C616   C620    1.423   .     A
C616   C618    1.417   .     A
C617   C1475   1.390   .     S
C618   C1476   1.394   1_554 S
C619   C1502   1.417   .     S
C620   C1501   1.417   1_554 S
Cu621  O633    1.970   .     S
Cu621  O640    1.951   .     S
Cu621  O637    1.956   .     S
Cu621  N631    2.013   .     S
Cu621  O636    1.964   .     S
Cu621  Cu818   2.679   1_455 S
Cu622  O639    1.951   .     S
Cu622  O634    1.970   .     S
Cu622  O638    1.956   .     S
Cu622  N632    2.013   .     S
Cu622  O635    1.964   .     S
Cu622  Cu719   2.679   .     S
H625   C710    1.083   .     S
H626   C807    1.083   1_455 S
H627   C805    1.084   1_455 S
O635   C687    1.294   .     S
O636   C786    1.293   1_455 S
O637   C801    1.298   1_455 S
O638   C704    1.300   .     S
O641   C642    1.410   .     S
C642   H644    1.113   .     S
C642   H643    1.114   .     S
C642   H645    1.109   .     S
O646   C647    1.414   .     S
C647   H648    1.112   .     S
C647   H649    1.109   .     S
C647   H650    1.113   .     S
O651   C652    1.413   .     S
C652   H655    1.111   .     S
C652   H654    1.105   .     S
C652   H653    1.116   .     S
O656   C657    1.410   .     S
C657   H658    1.113   .     S
C657   H659    1.113   .     S
C657   H660    1.109   .     S
C661   H662    1.086   .     S
C661   O663    1.221   .     D
C664   O666    1.221   .     D
C664   H665    1.085   .     S
O667   C668    1.411   .     S
C668   H671    1.113   .     S
C668   H669    1.108   .     S
C668   H768    1.112   .     S
H670   C864    1.112   1_455 S
O672   C673    1.418   .     S
C673   H675    1.110   .     S
C673   H674    1.118   .     S
C673   H676    1.105   .     S
O677   C678    1.409   .     S
C678   H680    1.109   .     S
C678   H681    1.111   .     S
C678   H679    1.110   .     S
O682   C683    1.414   .     S
C683   H684    1.110   .     S
C683   H686    1.109   .     S
C683   H685    1.113   .     S
C687   C698    1.460   .     S
C687   O731    1.292   .     A
C688   O732    1.288   .     A
C688   C697    1.451   .     S
C688   O832    1.293   .     S
C689   C718    1.421   .     A
C689   C691    1.395   .     A
C689   O749    1.381   .     S
C690   C692    1.394   .     A
C690   O754    1.383   .     S
C690   C717    1.423   .     A
C691   H721    1.081   .     S
C691   C1597   1.390   1_554 S
C692   H722    1.084   .     S
C692   C1598   1.394   .     S
C693   C759    1.488   .     S
C693   C796    1.414   .     S
C694   C762    1.491   .     S
C694   C108    1.393   1_565 S
C695   O765    1.386   .     S
C695   C697    1.412   .     A
C695   C105    1.400   1_565 S
C696   O770    1.382   .     S
C696   C698    1.409   .     A
C697   C792    1.409   .     S
C699   C701    1.427   .     A
C699   O775    1.383   .     S
C699   N730    1.369   .     A
C700   C702    1.424   .     A
C700   O780    1.382   .     S
C700   N729    1.372   .     A
C701   H727    1.081   .     S
C701   N729    1.365   .     A
C702   N730    1.362   .     A
C702   H728    1.081   .     S
C703   O737    1.298   .     A
C703   C705    1.475   .     S
C703   O833    1.298   .     S
C704   O738    1.293   .     A
C704   C706    1.471   .     S
C705   C709    1.405   .     A
C705   C711    1.411   .     A
C706   C710    1.399   .     A
C706   C712    1.411   .     A
C707   C715    1.399   .     A
C707   C709    1.391   .     A
C707   H823    1.084   .     S
C708   H726    1.083   .     S
C708   C716    1.400   .     A
C708   C710    1.392   .     A
C709   H822    1.083   .     S
C711   O744    1.385   .     S
C711   C713    1.414   .     A
C712   O739    1.384   .     S
C712   C714    1.416   .     A
C713   C715    1.412   .     A
C713   C717    1.422   .     A
C714   C718    1.423   .     A
C714   C716    1.417   .     A
C715   C1573   1.390   .     S
C716   C1574   1.394   1_554 S
C717   C1600   1.417   .     S
C718   C1599   1.417   1_554 S
Cu719  O731    1.970   .     S
Cu719  O738    1.951   .     S
Cu719  O735    1.956   .     S
Cu719  N729    2.013   .     S
Cu719  O734    1.964   .     S
Cu720  O737    1.951   .     S
Cu720  O732    1.970   .     S
Cu720  O736    1.956   .     S
Cu720  N730    2.013   .     S
Cu720  O733    1.964   .     S
Cu720  Cu817   2.679   .     S
H723   C808    1.083   .     S
O733   C785    1.294   .     S
O736   C802    1.300   .     S
O739   C740    1.410   .     S
C740   H742    1.113   .     S
C740   H741    1.114   .     S
C740   H743    1.109   .     S
O744   C745    1.414   .     S
C745   H746    1.112   .     S
C745   H747    1.109   .     S
C745   H748    1.113   .     S
O749   C750    1.413   .     S
C750   H753    1.111   .     S
C750   H752    1.105   .     S
C750   H751    1.116   .     S
O754   C755    1.410   .     S
C755   H756    1.113   .     S
C755   H757    1.113   .     S
C755   H758    1.109   .     S
C759   H760    1.086   .     S
C759   O761    1.221   .     D
C762   O764    1.221   .     D
C762   H763    1.085   .     S
O765   C766    1.411   .     S
C766   H769    1.113   .     S
C766   H767    1.108   .     S
C766   H866    1.112   .     S
O770   C771    1.418   .     S
C771   H773    1.110   .     S
C771   H772    1.118   .     S
C771   H774    1.105   .     S
O775   C776    1.409   .     S
C776   H778    1.109   .     S
C776   H779    1.111   .     S
C776   H777    1.110   .     S
O780   C781    1.414   .     S
C781   H782    1.110   .     S
C781   H784    1.109   .     S
C781   H783    1.113   .     S
C785   C796    1.460   .     S
C785   O829    1.292   .     A
C786   O830    1.288   .     A
C786   C795    1.451   .     S
C786   O636    1.293   1_655 S
C787   C816    1.421   .     A
C787   C789    1.395   .     A
C787   O847    1.381   .     S
C788   C790    1.394   .     A
C788   O852    1.383   .     S
C788   C815    1.423   .     A
C789   H819    1.081   .     S
C789   C1695   1.390   1_554 S
C790   H820    1.084   .     S
C790   C1696   1.394   .     S
C791   C857    1.488   .     S
C791   C600    1.414   1_655 S
C792   C860    1.491   .     S
C792   C206    1.393   1_565 S
C793   O863    1.386   .     S
C793   C795    1.412   .     A
C793   C203    1.400   1_565 S
C794   O868    1.382   .     S
C794   C796    1.409   .     A
C795   C596    1.409   1_655 S
C797   C799    1.427   .     A
C797   O873    1.383   .     S
C797   N828    1.369   .     A
C798   C800    1.424   .     A
C798   O878    1.382   .     S
C798   N827    1.372   .     A
C799   H825    1.081   .     S
C799   N827    1.365   .     A
C800   N828    1.362   .     A
C800   H826    1.081   .     S
C801   O835    1.298   .     A
C801   C803    1.475   .     S
C801   O637    1.298   1_655 S
C802   O836    1.293   .     A
C802   C804    1.471   .     S
C803   C807    1.405   .     A
C803   C809    1.411   .     A
C804   C808    1.399   .     A
C804   C810    1.411   .     A
C805   C813    1.399   .     A
C805   C807    1.391   .     A
C805   H627    1.084   1_655 S
C806   H824    1.083   .     S
C806   C814    1.400   .     A
C806   C808    1.392   .     A
C807   H626    1.083   1_655 S
C809   O842    1.385   .     S
C809   C811    1.414   .     A
C810   O837    1.384   .     S
C810   C812    1.416   .     A
C811   C813    1.412   .     A
C811   C815    1.422   .     A
C812   C816    1.423   .     A
C812   C814    1.417   .     A
C813   C1671   1.390   .     S
C814   C1672   1.394   1_554 S
C815   C1698   1.417   .     S
C816   C1697   1.417   1_554 S
Cu817  O829    1.970   .     S
Cu817  O836    1.951   .     S
Cu817  O833    1.956   .     S
Cu817  N827    2.013   .     S
Cu817  O832    1.964   .     S
Cu818  O835    1.951   .     S
Cu818  O830    1.970   .     S
Cu818  O834    1.956   .     S
Cu818  N828    2.013   .     S
Cu818  O831    1.964   .     S
Cu818  Cu621   2.679   1_655 S
H821   C612    1.083   1_655 S
O831   C589    1.294   1_655 S
O834   C606    1.300   1_655 S
O837   C838    1.410   .     S
C838   H840    1.113   .     S
C838   H839    1.114   .     S
C838   H841    1.109   .     S
O842   C843    1.414   .     S
C843   H844    1.112   .     S
C843   H845    1.109   .     S
C843   H846    1.113   .     S
O847   C848    1.413   .     S
C848   H851    1.111   .     S
C848   H850    1.105   .     S
C848   H849    1.116   .     S
O852   C853    1.410   .     S
C853   H854    1.113   .     S
C853   H855    1.113   .     S
C853   H856    1.109   .     S
C857   H858    1.086   .     S
C857   O859    1.221   .     D
C860   O862    1.221   .     D
C860   H861    1.085   .     S
O863   C864    1.411   .     S
C864   H867    1.113   .     S
C864   H865    1.108   .     S
C864   H670    1.112   1_655 S
O868   C869    1.418   .     S
C869   H871    1.110   .     S
C869   H870    1.118   .     S
C869   H872    1.105   .     S
O873   C874    1.409   .     S
C874   H876    1.109   .     S
C874   H877    1.111   .     S
C874   H875    1.110   .     S
O878   C879    1.414   .     S
C879   H880    1.110   .     S
C879   H882    1.109   .     S
C879   H881    1.113   .     S
C883   C894    1.460   .     S
C883   O927    1.292   .     A
C883   O1125   1.294   1_455 S
C884   O928    1.288   .     A
C884   C893    1.451   .     S
C884   O1028   1.293   .     S
C885   C914    1.421   .     A
C885   C887    1.395   .     A
C885   O945    1.381   .     S
C886   C888    1.394   .     A
C886   O950    1.383   .     S
C886   C913    1.423   .     A
C887   H917    1.081   .     S
C888   H918    1.084   .     S
C888   C30     1.394   1_556 S
C889   C955    1.488   .     S
C889   C1479   1.400   1_545 S
C889   C992    1.414   .     S
C890   C958    1.491   .     S
C890   C1186   1.393   .     S
C890   C1089   1.409   1_455 S
C891   O961    1.386   .     S
C891   C893    1.412   .     A
C891   C1183   1.400   .     S
C892   O966    1.382   .     S
C892   C894    1.409   .     A
C892   C1478   1.393   1_545 S
C893   C988    1.409   .     S
C894   C1085   1.414   1_455 S
C895   C897    1.427   .     A
C895   O971    1.383   .     S
C895   N926    1.369   .     A
C896   C898    1.424   .     A
C896   O976    1.382   .     S
C896   N925    1.372   .     A
C897   H923    1.081   .     S
C897   N925    1.365   .     A
C898   N926    1.362   .     A
C898   H924    1.081   .     S
C899   O933    1.298   .     A
C899   C901    1.475   .     S
C899   O1029   1.298   .     S
C900   O934    1.293   .     A
C900   C902    1.471   .     S
C900   O1128   1.300   1_455 S
C901   C905    1.405   .     A
C901   C907    1.411   .     A
C902   C906    1.399   .     A
C902   C908    1.411   .     A
C903   C911    1.399   .     A
C903   C905    1.391   .     A
C903   H1019   1.084   .     S
C904   H922    1.083   .     S
C904   C912    1.400   .     A
C904   C906    1.392   .     A
C905   H1018   1.083   .     S
C906   H1115   1.083   1_455 S
C907   O940    1.385   .     S
C907   C909    1.414   .     A
C908   O935    1.384   .     S
C908   C910    1.416   .     A
C909   C911    1.412   .     A
C909   C913    1.422   .     A
C910   C914    1.423   .     A
C910   C912    1.417   .     A
C911   C5      1.390   1_556 S
C913   C32     1.417   1_556 S
Cu915  O927    1.970   .     S
Cu915  O934    1.951   .     S
Cu915  O931    1.956   .     S
Cu915  N925    2.013   .     S
Cu915  O930    1.964   .     S
Cu915  Cu1112  2.679   1_455 S
Cu916  O933    1.951   .     S
Cu916  O928    1.970   .     S
Cu916  O932    1.956   .     S
Cu916  N926    2.013   .     S
Cu916  O929    1.964   .     S
Cu916  Cu1013  2.679   .     S
H919   C1004   1.083   .     S
H920   C1101   1.083   1_455 S
H921   C1099   1.084   1_455 S
O929   C981    1.294   .     S
O930   C1080   1.293   1_455 S
O931   C1095   1.298   1_455 S
O932   C998    1.300   .     S
O935   C936    1.410   .     S
C936   H938    1.113   .     S
C936   H937    1.114   .     S
C936   H939    1.109   .     S
O940   C941    1.414   .     S
C941   H942    1.112   .     S
C941   H943    1.109   .     S
C941   H944    1.113   .     S
O945   C946    1.413   .     S
C946   H949    1.111   .     S
C946   H948    1.105   .     S
C946   H947    1.116   .     S
O950   C951    1.410   .     S
C951   H952    1.113   .     S
C951   H953    1.113   .     S
C951   H954    1.109   .     S
C955   H956    1.086   .     S
C955   O957    1.221   .     D
C958   O960    1.221   .     D
C958   H959    1.085   .     S
O961   C962    1.411   .     S
C962   H965    1.113   .     S
C962   H963    1.108   .     S
C962   H1062   1.112   .     S
H964   C1158   1.112   1_455 S
O966   C967    1.418   .     S
C967   H969    1.110   .     S
C967   H968    1.118   .     S
C967   H970    1.105   .     S
O971   C972    1.409   .     S
C972   H974    1.109   .     S
C972   H975    1.111   .     S
C972   H973    1.110   .     S
O976   C977    1.414   .     S
C977   H978    1.110   .     S
C977   H980    1.109   .     S
C977   H979    1.113   .     S
C981   C992    1.460   .     S
C981   O1025   1.292   .     A
C982   O1026   1.288   .     A
C982   C991    1.451   .     S
C982   O1126   1.293   .     S
C983   C1012   1.421   .     A
C983   C985    1.395   .     A
C983   O1043   1.381   .     S
C984   C986    1.394   .     A
C984   O1048   1.383   .     S
C984   C1011   1.423   .     A
C985   H1015   1.081   .     S
C986   H1016   1.084   .     S
C986   C128    1.394   1_556 S
C987   C1053   1.488   .     S
C987   C1577   1.400   1_545 S
C987   C1090   1.414   .     S
C988   C1056   1.491   .     S
C988   C1284   1.393   .     S
C989   O1059   1.386   .     S
C989   C991    1.412   .     A
C989   C1281   1.400   .     S
C990   O1064   1.382   .     S
C990   C992    1.409   .     A
C990   C1576   1.393   1_545 S
C991   C1086   1.409   .     S
C993   C995    1.427   .     A
C993   O1069   1.383   .     S
C993   N1024   1.369   .     A
C994   C996    1.424   .     A
C994   O1074   1.382   .     S
C994   N1023   1.372   .     A
C995   H1021   1.081   .     S
C995   N1023   1.365   .     A
C996   N1024   1.362   .     A
C996   H1022   1.081   .     S
C997   O1031   1.298   .     A
C997   C999    1.475   .     S
C997   O1127   1.298   .     S
C998   O1032   1.293   .     A
C998   C1000   1.471   .     S
C999   C1003   1.405   .     A
C999   C1005   1.411   .     A
C1000  C1004   1.399   .     A
C1000  C1006   1.411   .     A
C1001  C1009   1.399   .     A
C1001  C1003   1.391   .     A
C1001  H1117   1.084   .     S
C1002  H1020   1.083   .     S
C1002  C1010   1.400   .     A
C1002  C1004   1.392   .     A
C1003  H1116   1.083   .     S
C1005  O1038   1.385   .     S
C1005  C1007   1.414   .     A
C1006  O1033   1.384   .     S
C1006  C1008   1.416   .     A
C1007  C1009   1.412   .     A
C1007  C1011   1.422   .     A
C1008  C1012   1.423   .     A
C1008  C1010   1.417   .     A
C1009  C103    1.390   1_556 S
C1011  C130    1.417   1_556 S
Cu1013 O1025   1.970   .     S
Cu1013 O1032   1.951   .     S
Cu1013 O1029   1.956   .     S
Cu1013 N1023   2.013   .     S
Cu1013 O1028   1.964   .     S
Cu1014 O1031   1.951   .     S
Cu1014 O1026   1.970   .     S
Cu1014 O1030   1.956   .     S
Cu1014 N1024   2.013   .     S
Cu1014 O1027   1.964   .     S
Cu1014 Cu1111  2.679   .     S
H1017  C1102   1.083   .     S
O1027  C1079   1.294   .     S
O1030  C1096   1.300   .     S
O1033  C1034   1.410   .     S
C1034  H1036   1.113   .     S
C1034  H1035   1.114   .     S
C1034  H1037   1.109   .     S
O1038  C1039   1.414   .     S
C1039  H1040   1.112   .     S
C1039  H1041   1.109   .     S
C1039  H1042   1.113   .     S
O1043  C1044   1.413   .     S
C1044  H1047   1.111   .     S
C1044  H1046   1.105   .     S
C1044  H1045   1.116   .     S
O1048  C1049   1.410   .     S
C1049  H1050   1.113   .     S
C1049  H1051   1.113   .     S
C1049  H1052   1.109   .     S
C1053  H1054   1.086   .     S
C1053  O1055   1.221   .     D
C1056  O1058   1.221   .     D
C1056  H1057   1.085   .     S
O1059  C1060   1.411   .     S
C1060  H1063   1.113   .     S
C1060  H1061   1.108   .     S
C1060  H1160   1.112   .     S
O1064  C1065   1.418   .     S
C1065  H1067   1.110   .     S
C1065  H1066   1.118   .     S
C1065  H1068   1.105   .     S
O1069  C1070   1.409   .     S
C1070  H1072   1.109   .     S
C1070  H1073   1.111   .     S
C1070  H1071   1.110   .     S
O1074  C1075   1.414   .     S
C1075  H1076   1.110   .     S
C1075  H1078   1.109   .     S
C1075  H1077   1.113   .     S
C1079  C1090   1.460   .     S
C1079  O1123   1.292   .     A
C1080  O1124   1.288   .     A
C1080  C1089   1.451   .     S
C1080  O930    1.293   1_655 S
C1081  C1110   1.421   .     A
C1081  C1083   1.395   .     A
C1081  O1141   1.381   .     S
C1082  C1084   1.394   .     A
C1082  O1146   1.383   .     S
C1082  C1109   1.423   .     A
C1083  H1113   1.081   .     S
C1084  H1114   1.084   .     S
C1084  C226    1.394   1_556 S
C1085  C1151   1.488   .     S
C1085  C1675   1.400   1_545 S
C1085  C894    1.414   1_655 S
C1086  C1154   1.491   .     S
C1086  C1382   1.393   .     S
C1087  O1157   1.386   .     S
C1087  C1089   1.412   .     A
C1087  C1379   1.400   .     S
C1088  O1162   1.382   .     S
C1088  C1090   1.409   .     A
C1088  C1674   1.393   1_545 S
C1089  C890    1.409   1_655 S
C1091  C1093   1.427   .     A
C1091  O1167   1.383   .     S
C1091  N1122   1.369   .     A
C1092  C1094   1.424   .     A
C1092  O1172   1.382   .     S
C1092  N1121   1.372   .     A
C1093  H1119   1.081   .     S
C1093  N1121   1.365   .     A
C1094  N1122   1.362   .     A
C1094  H1120   1.081   .     S
C1095  O1129   1.298   .     A
C1095  C1097   1.475   .     S
C1095  O931    1.298   1_655 S
C1096  O1130   1.293   .     A
C1096  C1098   1.471   .     S
C1097  C1101   1.405   .     A
C1097  C1103   1.411   .     A
C1098  C1102   1.399   .     A
C1098  C1104   1.411   .     A
C1099  C1107   1.399   .     A
C1099  C1101   1.391   .     A
C1099  H921    1.084   1_655 S
C1100  H1118   1.083   .     S
C1100  C1108   1.400   .     A
C1100  C1102   1.392   .     A
C1101  H920    1.083   1_655 S
C1103  O1136   1.385   .     S
C1103  C1105   1.414   .     A
C1104  O1131   1.384   .     S
C1104  C1106   1.416   .     A
C1105  C1107   1.412   .     A
C1105  C1109   1.422   .     A
C1106  C1110   1.423   .     A
C1106  C1108   1.417   .     A
C1107  C201    1.390   1_556 S
C1109  C228    1.417   1_556 S
Cu1111 O1123   1.970   .     S
Cu1111 O1130   1.951   .     S
Cu1111 O1127   1.956   .     S
Cu1111 N1121   2.013   .     S
Cu1111 O1126   1.964   .     S
Cu1112 O1129   1.951   .     S
Cu1112 O1124   1.970   .     S
Cu1112 O1128   1.956   .     S
Cu1112 N1122   2.013   .     S
Cu1112 O1125   1.964   .     S
Cu1112 Cu915   2.679   1_655 S
H1115  C906    1.083   1_655 S
O1125  C883    1.294   1_655 S
O1128  C900    1.300   1_655 S
O1131  C1132   1.410   .     S
C1132  H1134   1.113   .     S
C1132  H1133   1.114   .     S
C1132  H1135   1.109   .     S
O1136  C1137   1.414   .     S
C1137  H1138   1.112   .     S
C1137  H1139   1.109   .     S
C1137  H1140   1.113   .     S
O1141  C1142   1.413   .     S
C1142  H1145   1.111   .     S
C1142  H1144   1.105   .     S
C1142  H1143   1.116   .     S
O1146  C1147   1.410   .     S
C1147  H1148   1.113   .     S
C1147  H1149   1.113   .     S
C1147  H1150   1.109   .     S
C1151  H1152   1.086   .     S
C1151  O1153   1.221   .     D
C1154  O1156   1.221   .     D
C1154  H1155   1.085   .     S
O1157  C1158   1.411   .     S
C1158  H1161   1.113   .     S
C1158  H1159   1.108   .     S
C1158  H964    1.112   1_655 S
O1162  C1163   1.418   .     S
C1163  H1165   1.110   .     S
C1163  H1164   1.118   .     S
C1163  H1166   1.105   .     S
O1167  C1168   1.409   .     S
C1168  H1170   1.109   .     S
C1168  H1171   1.111   .     S
C1168  H1169   1.110   .     S
O1172  C1173   1.414   .     S
C1173  H1174   1.110   .     S
C1173  H1176   1.109   .     S
C1173  H1175   1.113   .     S
C1177  C1188   1.460   .     S
C1177  O1221   1.292   .     A
C1177  O1419   1.294   1_455 S
C1178  O1222   1.288   .     A
C1178  C1187   1.451   .     S
C1178  O1322   1.293   .     S
C1179  C1208   1.421   .     A
C1179  C1181   1.395   .     A
C1179  O1239   1.381   .     S
C1180  C1182   1.394   .     A
C1180  O1244   1.383   .     S
C1180  C1207   1.423   .     A
C1181  H1211   1.081   .     S
C1182  H1212   1.084   .     S
C1182  C324    1.394   1_556 S
C1183  C1249   1.488   .     S
C1183  C1286   1.414   .     S
C1184  C1252   1.491   .     S
C1184  C1480   1.393   .     S
C1184  C1383   1.409   1_455 S
C1185  O1255   1.386   .     S
C1185  C1187   1.412   .     A
C1185  C1477   1.400   .     S
C1186  O1260   1.382   .     S
C1186  C1188   1.409   .     A
C1187  C1282   1.409   .     S
C1188  C1379   1.414   1_455 S
C1189  C1191   1.427   .     A
C1189  O1265   1.383   .     S
C1189  N1220   1.369   .     A
C1190  C1192   1.424   .     A
C1190  O1270   1.382   .     S
C1190  N1219   1.372   .     A
C1191  H1217   1.081   .     S
C1191  N1219   1.365   .     A
C1192  N1220   1.362   .     A
C1192  H1218   1.081   .     S
C1193  O1227   1.298   .     A
C1193  C1195   1.475   .     S
C1193  O1323   1.298   .     S
C1194  O1228   1.293   .     A
C1194  C1196   1.471   .     S
C1194  O1422   1.300   1_455 S
C1195  C1199   1.405   .     A
C1195  C1201   1.411   .     A
C1196  C1200   1.399   .     A
C1196  C1202   1.411   .     A
C1197  C1205   1.399   .     A
C1197  C1199   1.391   .     A
C1197  H1313   1.084   .     S
C1198  H1216   1.083   .     S
C1198  C1206   1.400   .     A
C1198  C1200   1.392   .     A
C1199  H1312   1.083   .     S
C1200  H1409   1.083   1_455 S
C1201  O1234   1.385   .     S
C1201  C1203   1.414   .     A
C1202  O1229   1.384   .     S
C1202  C1204   1.416   .     A
C1203  C1205   1.412   .     A
C1203  C1207   1.422   .     A
C1204  C1208   1.423   .     A
C1204  C1206   1.417   .     A
C1205  C299    1.390   1_556 S
C1207  C326    1.417   1_556 S
Cu1209 O1221   1.970   .     S
Cu1209 O1228   1.951   .     S
Cu1209 O1225   1.956   .     S
Cu1209 N1219   2.013   .     S
Cu1209 O1224   1.964   .     S
Cu1209 Cu1406  2.679   1_455 S
Cu1210 O1227   1.951   .     S
Cu1210 O1222   1.970   .     S
Cu1210 O1226   1.956   .     S
Cu1210 N1220   2.013   .     S
Cu1210 O1223   1.964   .     S
Cu1210 Cu1307  2.679   .     S
H1213  C1298   1.083   .     S
H1214  C1395   1.083   1_455 S
H1215  C1393   1.084   1_455 S
O1223  C1275   1.294   .     S
O1224  C1374   1.293   1_455 S
O1225  C1389   1.298   1_455 S
O1226  C1292   1.300   .     S
O1229  C1230   1.410   .     S
C1230  H1232   1.113   .     S
C1230  H1231   1.114   .     S
C1230  H1233   1.109   .     S
O1234  C1235   1.414   .     S
C1235  H1236   1.112   .     S
C1235  H1237   1.109   .     S
C1235  H1238   1.113   .     S
O1239  C1240   1.413   .     S
C1240  H1243   1.111   .     S
C1240  H1242   1.105   .     S
C1240  H1241   1.116   .     S
O1244  C1245   1.410   .     S
C1245  H1246   1.113   .     S
C1245  H1247   1.113   .     S
C1245  H1248   1.109   .     S
C1249  H1250   1.086   .     S
C1249  O1251   1.221   .     D
C1252  O1254   1.221   .     D
C1252  H1253   1.085   .     S
O1255  C1256   1.411   .     S
C1256  H1259   1.113   .     S
C1256  H1257   1.108   .     S
C1256  H1356   1.112   .     S
H1258  C1452   1.112   1_455 S
O1260  C1261   1.418   .     S
C1261  H1263   1.110   .     S
C1261  H1262   1.118   .     S
C1261  H1264   1.105   .     S
O1265  C1266   1.409   .     S
C1266  H1268   1.109   .     S
C1266  H1269   1.111   .     S
C1266  H1267   1.110   .     S
O1270  C1271   1.414   .     S
C1271  H1272   1.110   .     S
C1271  H1274   1.109   .     S
C1271  H1273   1.113   .     S
C1275  C1286   1.460   .     S
C1275  O1319   1.292   .     A
C1276  O1320   1.288   .     A
C1276  C1285   1.451   .     S
C1276  O1420   1.293   .     S
C1277  C1306   1.421   .     A
C1277  C1279   1.395   .     A
C1277  O1337   1.381   .     S
C1278  C1280   1.394   .     A
C1278  O1342   1.383   .     S
C1278  C1305   1.423   .     A
C1279  H1309   1.081   .     S
C1280  H1310   1.084   .     S
C1280  C422    1.394   1_556 S
C1281  C1347   1.488   .     S
C1281  C1384   1.414   .     S
C1282  C1350   1.491   .     S
C1282  C1578   1.393   .     S
C1283  O1353   1.386   .     S
C1283  C1285   1.412   .     A
C1283  C1575   1.400   .     S
C1284  O1358   1.382   .     S
C1284  C1286   1.409   .     A
C1285  C1380   1.409   .     S
C1287  C1289   1.427   .     A
C1287  O1363   1.383   .     S
C1287  N1318   1.369   .     A
C1288  C1290   1.424   .     A
C1288  O1368   1.382   .     S
C1288  N1317   1.372   .     A
C1289  H1315   1.081   .     S
C1289  N1317   1.365   .     A
C1290  N1318   1.362   .     A
C1290  H1316   1.081   .     S
C1291  O1325   1.298   .     A
C1291  C1293   1.475   .     S
C1291  O1421   1.298   .     S
C1292  O1326   1.293   .     A
C1292  C1294   1.471   .     S
C1293  C1297   1.405   .     A
C1293  C1299   1.411   .     A
C1294  C1298   1.399   .     A
C1294  C1300   1.411   .     A
C1295  C1303   1.399   .     A
C1295  C1297   1.391   .     A
C1295  H1411   1.084   .     S
C1296  H1314   1.083   .     S
C1296  C1304   1.400   .     A
C1296  C1298   1.392   .     A
C1297  H1410   1.083   .     S
C1299  O1332   1.385   .     S
C1299  C1301   1.414   .     A
C1300  O1327   1.384   .     S
C1300  C1302   1.416   .     A
C1301  C1303   1.412   .     A
C1301  C1305   1.422   .     A
C1302  C1306   1.423   .     A
C1302  C1304   1.417   .     A
C1303  C397    1.390   1_556 S
C1305  C424    1.417   1_556 S
Cu1307 O1319   1.970   .     S
Cu1307 O1326   1.951   .     S
Cu1307 O1323   1.956   .     S
Cu1307 N1317   2.013   .     S
Cu1307 O1322   1.964   .     S
Cu1308 O1325   1.951   .     S
Cu1308 O1320   1.970   .     S
Cu1308 O1324   1.956   .     S
Cu1308 N1318   2.013   .     S
Cu1308 O1321   1.964   .     S
Cu1308 Cu1405  2.679   .     S
H1311  C1396   1.083   .     S
O1321  C1373   1.294   .     S
O1324  C1390   1.300   .     S
O1327  C1328   1.410   .     S
C1328  H1330   1.113   .     S
C1328  H1329   1.114   .     S
C1328  H1331   1.109   .     S
O1332  C1333   1.414   .     S
C1333  H1334   1.112   .     S
C1333  H1335   1.109   .     S
C1333  H1336   1.113   .     S
O1337  C1338   1.413   .     S
C1338  H1341   1.111   .     S
C1338  H1340   1.105   .     S
C1338  H1339   1.116   .     S
O1342  C1343   1.410   .     S
C1343  H1344   1.113   .     S
C1343  H1345   1.113   .     S
C1343  H1346   1.109   .     S
C1347  H1348   1.086   .     S
C1347  O1349   1.221   .     D
C1350  O1352   1.221   .     D
C1350  H1351   1.085   .     S
O1353  C1354   1.411   .     S
C1354  H1357   1.113   .     S
C1354  H1355   1.108   .     S
C1354  H1454   1.112   .     S
O1358  C1359   1.418   .     S
C1359  H1361   1.110   .     S
C1359  H1360   1.118   .     S
C1359  H1362   1.105   .     S
O1363  C1364   1.409   .     S
C1364  H1366   1.109   .     S
C1364  H1367   1.111   .     S
C1364  H1365   1.110   .     S
O1368  C1369   1.414   .     S
C1369  H1370   1.110   .     S
C1369  H1372   1.109   .     S
C1369  H1371   1.113   .     S
C1373  C1384   1.460   .     S
C1373  O1417   1.292   .     A
C1374  O1418   1.288   .     A
C1374  C1383   1.451   .     S
C1374  O1224   1.293   1_655 S
C1375  C1404   1.421   .     A
C1375  C1377   1.395   .     A
C1375  O1435   1.381   .     S
C1376  C1378   1.394   .     A
C1376  O1440   1.383   .     S
C1376  C1403   1.423   .     A
C1377  H1407   1.081   .     S
C1378  H1408   1.084   .     S
C1378  C520    1.394   1_556 S
C1379  C1445   1.488   .     S
C1379  C1188   1.414   1_655 S
C1380  C1448   1.491   .     S
C1380  C1676   1.393   .     S
C1381  O1451   1.386   .     S
C1381  C1383   1.412   .     A
C1381  C1673   1.400   .     S
C1382  O1456   1.382   .     S
C1382  C1384   1.409   .     A
C1383  C1184   1.409   1_655 S
C1385  C1387   1.427   .     A
C1385  O1461   1.383   .     S
C1385  N1416   1.369   .     A
C1386  C1388   1.424   .     A
C1386  O1466   1.382   .     S
C1386  N1415   1.372   .     A
C1387  H1413   1.081   .     S
C1387  N1415   1.365   .     A
C1388  N1416   1.362   .     A
C1388  H1414   1.081   .     S
C1389  O1423   1.298   .     A
C1389  C1391   1.475   .     S
C1389  O1225   1.298   1_655 S
C1390  O1424   1.293   .     A
C1390  C1392   1.471   .     S
C1391  C1395   1.405   .     A
C1391  C1397   1.411   .     A
C1392  C1396   1.399   .     A
C1392  C1398   1.411   .     A
C1393  C1401   1.399   .     A
C1393  C1395   1.391   .     A
C1393  H1215   1.084   1_655 S
C1394  H1412   1.083   .     S
C1394  C1402   1.400   .     A
C1394  C1396   1.392   .     A
C1395  H1214   1.083   1_655 S
C1397  O1430   1.385   .     S
C1397  C1399   1.414   .     A
C1398  O1425   1.384   .     S
C1398  C1400   1.416   .     A
C1399  C1401   1.412   .     A
C1399  C1403   1.422   .     A
C1400  C1404   1.423   .     A
C1400  C1402   1.417   .     A
C1401  C495    1.390   1_556 S
C1403  C522    1.417   1_556 S
Cu1405 O1417   1.970   .     S
Cu1405 O1424   1.951   .     S
Cu1405 O1421   1.956   .     S
Cu1405 N1415   2.013   .     S
Cu1405 O1420   1.964   .     S
Cu1406 O1423   1.951   .     S
Cu1406 O1418   1.970   .     S
Cu1406 O1422   1.956   .     S
Cu1406 N1416   2.013   .     S
Cu1406 O1419   1.964   .     S
Cu1406 Cu1209  2.679   1_655 S
H1409  C1200   1.083   1_655 S
O1419  C1177   1.294   1_655 S
O1422  C1194   1.300   1_655 S
O1425  C1426   1.410   .     S
C1426  H1428   1.113   .     S
C1426  H1427   1.114   .     S
C1426  H1429   1.109   .     S
O1430  C1431   1.414   .     S
C1431  H1432   1.112   .     S
C1431  H1433   1.109   .     S
C1431  H1434   1.113   .     S
O1435  C1436   1.413   .     S
C1436  H1439   1.111   .     S
C1436  H1438   1.105   .     S
C1436  H1437   1.116   .     S
O1440  C1441   1.410   .     S
C1441  H1442   1.113   .     S
C1441  H1443   1.113   .     S
C1441  H1444   1.109   .     S
C1445  H1446   1.086   .     S
C1445  O1447   1.221   .     D
C1448  O1450   1.221   .     D
C1448  H1449   1.085   .     S
O1451  C1452   1.411   .     S
C1452  H1455   1.113   .     S
C1452  H1453   1.108   .     S
C1452  H1258   1.112   1_655 S
O1456  C1457   1.418   .     S
C1457  H1459   1.110   .     S
C1457  H1458   1.118   .     S
C1457  H1460   1.105   .     S
O1461  C1462   1.409   .     S
C1462  H1464   1.109   .     S
C1462  H1465   1.111   .     S
C1462  H1463   1.110   .     S
O1466  C1467   1.414   .     S
C1467  H1468   1.110   .     S
C1467  H1470   1.109   .     S
C1467  H1469   1.113   .     S
C1471  C1482   1.460   .     S
C1471  O1515   1.292   .     A
C1471  O1713   1.294   1_455 S
C1472  O1516   1.288   .     A
C1472  C1481   1.451   .     S
C1472  O1616   1.293   .     S
C1473  C1502   1.421   .     A
C1473  C1475   1.395   .     A
C1473  O1533   1.381   .     S
C1474  C1476   1.394   .     A
C1474  O1538   1.383   .     S
C1474  C1501   1.423   .     A
C1475  H1505   1.081   .     S
C1476  H1506   1.084   .     S
C1476  C618    1.394   1_556 S
C1477  C1543   1.488   .     S
C1477  C1580   1.414   .     S
C1478  C1546   1.491   .     S
C1478  C892    1.393   1_565 S
C1478  C1677   1.409   1_455 S
C1479  O1549   1.386   .     S
C1479  C1481   1.412   .     A
C1479  C889    1.400   1_565 S
C1480  O1554   1.382   .     S
C1480  C1482   1.409   .     A
C1481  C1576   1.409   .     S
C1482  C1673   1.414   1_455 S
C1483  C1485   1.427   .     A
C1483  O1559   1.383   .     S
C1483  N1514   1.369   .     A
C1484  C1486   1.424   .     A
C1484  O1564   1.382   .     S
C1484  N1513   1.372   .     A
C1485  H1511   1.081   .     S
C1485  N1513   1.365   .     A
C1486  N1514   1.362   .     A
C1486  H1512   1.081   .     S
C1487  O1521   1.298   .     A
C1487  C1489   1.475   .     S
C1487  O1617   1.298   .     S
C1488  O1522   1.293   .     A
C1488  C1490   1.471   .     S
C1488  O1716   1.300   1_455 S
C1489  C1493   1.405   .     A
C1489  C1495   1.411   .     A
C1490  C1494   1.399   .     A
C1490  C1496   1.411   .     A
C1491  C1499   1.399   .     A
C1491  C1493   1.391   .     A
C1491  H1607   1.084   .     S
C1492  H1510   1.083   .     S
C1492  C1500   1.400   .     A
C1492  C1494   1.392   .     A
C1493  H1606   1.083   .     S
C1494  H1703   1.083   1_455 S
C1495  O1528   1.385   .     S
C1495  C1497   1.414   .     A
C1496  O1523   1.384   .     S
C1496  C1498   1.416   .     A
C1497  C1499   1.412   .     A
C1497  C1501   1.422   .     A
C1498  C1502   1.423   .     A
C1498  C1500   1.417   .     A
C1499  C593    1.390   1_556 S
C1501  C620    1.417   1_556 S
Cu1503 O1515   1.970   .     S
Cu1503 O1522   1.951   .     S
Cu1503 O1519   1.956   .     S
Cu1503 N1513   2.013   .     S
Cu1503 O1518   1.964   .     S
Cu1503 Cu1700  2.679   1_455 S
Cu1504 O1521   1.951   .     S
Cu1504 O1516   1.970   .     S
Cu1504 O1520   1.956   .     S
Cu1504 N1514   2.013   .     S
Cu1504 O1517   1.964   .     S
Cu1504 Cu1601  2.679   .     S
H1507  C1592   1.083   .     S
H1508  C1689   1.083   1_455 S
H1509  C1687   1.084   1_455 S
O1517  C1569   1.294   .     S
O1518  C1668   1.293   1_455 S
O1519  C1683   1.298   1_455 S
O1520  C1586   1.300   .     S
O1523  C1524   1.410   .     S
C1524  H1526   1.113   .     S
C1524  H1525   1.114   .     S
C1524  H1527   1.109   .     S
O1528  C1529   1.414   .     S
C1529  H1530   1.112   .     S
C1529  H1531   1.109   .     S
C1529  H1532   1.113   .     S
O1533  C1534   1.413   .     S
C1534  H1537   1.111   .     S
C1534  H1536   1.105   .     S
C1534  H1535   1.116   .     S
O1538  C1539   1.410   .     S
C1539  H1540   1.113   .     S
C1539  H1541   1.113   .     S
C1539  H1542   1.109   .     S
C1543  H1544   1.086   .     S
C1543  O1545   1.221   .     D
C1546  O1548   1.221   .     D
C1546  H1547   1.085   .     S
O1549  C1550   1.411   .     S
C1550  H1553   1.113   .     S
C1550  H1551   1.108   .     S
C1550  H1650   1.112   .     S
H1552  C1746   1.112   1_455 S
O1554  C1555   1.418   .     S
C1555  H1557   1.110   .     S
C1555  H1556   1.118   .     S
C1555  H1558   1.105   .     S
O1559  C1560   1.409   .     S
C1560  H1562   1.109   .     S
C1560  H1563   1.111   .     S
C1560  H1561   1.110   .     S
O1564  C1565   1.414   .     S
C1565  H1566   1.110   .     S
C1565  H1568   1.109   .     S
C1565  H1567   1.113   .     S
C1569  C1580   1.460   .     S
C1569  O1613   1.292   .     A
C1570  O1614   1.288   .     A
C1570  C1579   1.451   .     S
C1570  O1714   1.293   .     S
C1571  C1600   1.421   .     A
C1571  C1573   1.395   .     A
C1571  O1631   1.381   .     S
C1572  C1574   1.394   .     A
C1572  O1636   1.383   .     S
C1572  C1599   1.423   .     A
C1573  H1603   1.081   .     S
C1574  H1604   1.084   .     S
C1574  C716    1.394   1_556 S
C1575  C1641   1.488   .     S
C1575  C1678   1.414   .     S
C1576  C1644   1.491   .     S
C1576  C990    1.393   1_565 S
C1577  O1647   1.386   .     S
C1577  C1579   1.412   .     A
C1577  C987    1.400   1_565 S
C1578  O1652   1.382   .     S
C1578  C1580   1.409   .     A
C1579  C1674   1.409   .     S
C1581  C1583   1.427   .     A
C1581  O1657   1.383   .     S
C1581  N1612   1.369   .     A
C1582  C1584   1.424   .     A
C1582  O1662   1.382   .     S
C1582  N1611   1.372   .     A
C1583  H1609   1.081   .     S
C1583  N1611   1.365   .     A
C1584  N1612   1.362   .     A
C1584  H1610   1.081   .     S
C1585  O1619   1.298   .     A
C1585  C1587   1.475   .     S
C1585  O1715   1.298   .     S
C1586  O1620   1.293   .     A
C1586  C1588   1.471   .     S
C1587  C1591   1.405   .     A
C1587  C1593   1.411   .     A
C1588  C1592   1.399   .     A
C1588  C1594   1.411   .     A
C1589  C1597   1.399   .     A
C1589  C1591   1.391   .     A
C1589  H1705   1.084   .     S
C1590  H1608   1.083   .     S
C1590  C1598   1.400   .     A
C1590  C1592   1.392   .     A
C1591  H1704   1.083   .     S
C1593  O1626   1.385   .     S
C1593  C1595   1.414   .     A
C1594  O1621   1.384   .     S
C1594  C1596   1.416   .     A
C1595  C1597   1.412   .     A
C1595  C1599   1.422   .     A
C1596  C1600   1.423   .     A
C1596  C1598   1.417   .     A
C1597  C691    1.390   1_556 S
C1599  C718    1.417   1_556 S
Cu1601 O1613   1.970   .     S
Cu1601 O1620   1.951   .     S
Cu1601 O1617   1.956   .     S
Cu1601 N1611   2.013   .     S
Cu1601 O1616   1.964   .     S
Cu1602 O1619   1.951   .     S
Cu1602 O1614   1.970   .     S
Cu1602 O1618   1.956   .     S
Cu1602 N1612   2.013   .     S
Cu1602 O1615   1.964   .     S
Cu1602 Cu1699  2.679   .     S
H1605  C1690   1.083   .     S
O1615  C1667   1.294   .     S
O1618  C1684   1.300   .     S
O1621  C1622   1.410   .     S
C1622  H1624   1.113   .     S
C1622  H1623   1.114   .     S
C1622  H1625   1.109   .     S
O1626  C1627   1.414   .     S
C1627  H1628   1.112   .     S
C1627  H1629   1.109   .     S
C1627  H1630   1.113   .     S
O1631  C1632   1.413   .     S
C1632  H1635   1.111   .     S
C1632  H1634   1.105   .     S
C1632  H1633   1.116   .     S
O1636  C1637   1.410   .     S
C1637  H1638   1.113   .     S
C1637  H1639   1.113   .     S
C1637  H1640   1.109   .     S
C1641  H1642   1.086   .     S
C1641  O1643   1.221   .     D
C1644  O1646   1.221   .     D
C1644  H1645   1.085   .     S
O1647  C1648   1.411   .     S
C1648  H1651   1.113   .     S
C1648  H1649   1.108   .     S
C1648  H1748   1.112   .     S
O1652  C1653   1.418   .     S
C1653  H1655   1.110   .     S
C1653  H1654   1.118   .     S
C1653  H1656   1.105   .     S
O1657  C1658   1.409   .     S
C1658  H1660   1.109   .     S
C1658  H1661   1.111   .     S
C1658  H1659   1.110   .     S
O1662  C1663   1.414   .     S
C1663  H1664   1.110   .     S
C1663  H1666   1.109   .     S
C1663  H1665   1.113   .     S
C1667  C1678   1.460   .     S
C1667  O1711   1.292   .     A
C1668  O1712   1.288   .     A
C1668  C1677   1.451   .     S
C1668  O1518   1.293   1_655 S
C1669  C1698   1.421   .     A
C1669  C1671   1.395   .     A
C1669  O1729   1.381   .     S
C1670  C1672   1.394   .     A
C1670  O1734   1.383   .     S
C1670  C1697   1.423   .     A
C1671  H1701   1.081   .     S
C1672  H1702   1.084   .     S
C1672  C814    1.394   1_556 S
C1673  C1739   1.488   .     S
C1673  C1482   1.414   1_655 S
C1674  C1742   1.491   .     S
C1674  C1088   1.393   1_565 S
C1675  O1745   1.386   .     S
C1675  C1677   1.412   .     A
C1675  C1085   1.400   1_565 S
C1676  O1750   1.382   .     S
C1676  C1678   1.409   .     A
C1677  C1478   1.409   1_655 S
C1679  C1681   1.427   .     A
C1679  O1755   1.383   .     S
C1679  N1710   1.369   .     A
C1680  C1682   1.424   .     A
C1680  O1760   1.382   .     S
C1680  N1709   1.372   .     A
C1681  H1707   1.081   .     S
C1681  N1709   1.365   .     A
C1682  N1710   1.362   .     A
C1682  H1708   1.081   .     S
C1683  O1717   1.298   .     A
C1683  C1685   1.475   .     S
C1683  O1519   1.298   1_655 S
C1684  O1718   1.293   .     A
C1684  C1686   1.471   .     S
C1685  C1689   1.405   .     A
C1685  C1691   1.411   .     A
C1686  C1690   1.399   .     A
C1686  C1692   1.411   .     A
C1687  C1695   1.399   .     A
C1687  C1689   1.391   .     A
C1687  H1509   1.084   1_655 S
C1688  H1706   1.083   .     S
C1688  C1696   1.400   .     A
C1688  C1690   1.392   .     A
C1689  H1508   1.083   1_655 S
C1691  O1724   1.385   .     S
C1691  C1693   1.414   .     A
C1692  O1719   1.384   .     S
C1692  C1694   1.416   .     A
C1693  C1695   1.412   .     A
C1693  C1697   1.422   .     A
C1694  C1698   1.423   .     A
C1694  C1696   1.417   .     A
C1695  C789    1.390   1_556 S
C1697  C816    1.417   1_556 S
Cu1699 O1711   1.970   .     S
Cu1699 O1718   1.951   .     S
Cu1699 O1715   1.956   .     S
Cu1699 N1709   2.013   .     S
Cu1699 O1714   1.964   .     S
Cu1700 O1717   1.951   .     S
Cu1700 O1712   1.970   .     S
Cu1700 O1716   1.956   .     S
Cu1700 N1710   2.013   .     S
Cu1700 O1713   1.964   .     S
Cu1700 Cu1503  2.679   1_655 S
H1703  C1494   1.083   1_655 S
O1713  C1471   1.294   1_655 S
O1716  C1488   1.300   1_655 S
O1719  C1720   1.410   .     S
C1720  H1722   1.113   .     S
C1720  H1721   1.114   .     S
C1720  H1723   1.109   .     S
O1724  C1725   1.414   .     S
C1725  H1726   1.112   .     S
C1725  H1727   1.109   .     S
C1725  H1728   1.113   .     S
O1729  C1730   1.413   .     S
C1730  H1733   1.111   .     S
C1730  H1732   1.105   .     S
C1730  H1731   1.116   .     S
O1734  C1735   1.410   .     S
C1735  H1736   1.113   .     S
C1735  H1737   1.113   .     S
C1735  H1738   1.109   .     S
C1739  H1740   1.086   .     S
C1739  O1741   1.221   .     D
C1742  O1744   1.221   .     D
C1742  H1743   1.085   .     S
O1745  C1746   1.411   .     S
C1746  H1749   1.113   .     S
C1746  H1747   1.108   .     S
C1746  H1552   1.112   1_655 S
O1750  C1751   1.418   .     S
C1751  H1753   1.110   .     S
C1751  H1752   1.118   .     S
C1751  H1754   1.105   .     S
O1755  C1756   1.409   .     S
C1756  H1758   1.109   .     S
C1756  H1759   1.111   .     S
C1756  H1757   1.110   .     S
O1760  C1761   1.414   .     S
C1761  H1762   1.110   .     S
C1761  H1764   1.109   .     S
C1761  H1763   1.113   .     S
