data_str_m3_o1_o18_pcu_sym.8
_audit_creation_date              2020-01-03
_audit_creation_method            'Materials Studio'
_symmetry_space_group_name_H-M    'P1'
_symmetry_Int_Tables_number       1
_symmetry_cell_setting            triclinic
loop_
_symmetry_equiv_pos_as_xyz
  x,y,z
_cell_length_a                    29.9539
_cell_length_b                    32.0351
_cell_length_c                    31.1830
_cell_angle_alpha                 92.4494
_cell_angle_beta                  66.7578
_cell_angle_gamma                 89.4638
loop_
_atom_site_label
_atom_site_type_symbol
_atom_site_fract_x
_atom_site_fract_y
_atom_site_fract_z
_atom_site_U_iso_or_equiv
_atom_site_adp_type
_atom_site_occupancy
C1     C     0.16650   0.24655   0.25014   0.00000  Uiso   1.00
C2     C     0.12215   0.31314   0.26920   0.00000  Uiso   1.00
C3     C     0.16668   0.04263   0.25118   0.00000  Uiso   1.00
C4     C     0.16640   0.29078   0.25051   0.00000  Uiso   1.00
C5     C     0.32183   0.13858   0.22174   0.00000  Uiso   1.00
C6     C     0.01234   0.19575   0.27758   0.00000  Uiso   1.00
C7     C     0.03518   0.13683   0.22455   0.00000  Uiso   1.00
C8     C     0.29828   0.19700   0.27565   0.00000  Uiso   1.00
C9     C     0.13593   0.16611   0.33789   0.00000  Uiso   1.00
C10    C     0.19722   0.16728   0.16203   0.00000  Uiso   1.00
C11    C     0.11653   0.16870   0.38884   0.00000  Uiso   1.00
C12    C     0.16671   0.08681   0.25027   0.00000  Uiso   1.00
C13    C     0.21567   0.16890   0.11107   0.00000  Uiso   1.00
C14    C     0.05794   0.19684   0.46288   0.00000  Uiso   1.00
C15    C     0.27809   0.15540   0.03389   0.00000  Uiso   1.00
C16    C     0.07034   0.18580   0.41579   0.00000  Uiso   1.00
C17    C     0.26394   0.15907   0.08210   0.00000  Uiso   1.00
C18    C     0.14843   0.15951   0.40988   0.00000  Uiso   1.00
C19    C     0.18238   0.17800   0.09128   0.00000  Uiso   1.00
C20    C     0.13880   0.17374   0.45569   0.00000  Uiso   1.00
C21    C     0.19564   0.17524   0.04295   0.00000  Uiso   1.00
C22    C     0.09203   0.19138   0.48290   0.00000  Uiso   1.00
C23    C     0.11388   0.19925   0.04924   0.00000  Uiso   1.00
C24    C     0.24417   0.16268   0.01416   0.00000  Uiso   1.00
C25    C     0.17465   0.17143   0.47471   0.00000  Uiso   1.00
C26    C     0.16118   0.18206   0.02289   0.00000  Uiso   1.00
C27    C     0.01201   0.12333   0.13875   0.00000  Uiso   1.00
C28    C     0.32352   0.23677   0.35344   0.00000  Uiso   1.00
C29    C     0.05382   0.06118   0.20640   0.00000  Uiso   1.00
C30    C     0.22828   0.23591   0.33693   0.00000  Uiso   1.00
C31    C     0.22389   0.16029   0.44678   0.00000  Uiso   1.00
C32    C     0.08017   0.20402   0.02937   0.00000  Uiso   1.00
C33    C     0.25804   0.15659   0.46622   0.00000  Uiso   1.00
C34    C     0.21081   0.31081   0.23274   0.00000  Uiso   1.00
C35    C     0.12232   0.02265   0.26983   0.00000  Uiso   1.00
C36    C     0.21095   0.02027   0.23303   0.00000  Uiso   1.00
H37    H     0.04460   0.21776   0.05054   0.00000  Uiso   1.00
H38    H     0.23772   0.15520   0.40939   0.00000  Uiso   1.00
H39    H     0.24519   0.29344   0.21810   0.00000  Uiso   1.00
H40    H     0.08801   0.04008   0.28481   0.00000  Uiso   1.00
H41    H     0.24538   0.03575   0.21847   0.00000  Uiso   1.00
H42    H     0.08775   0.29764   0.28369   0.00000  Uiso   1.00
H43    H     0.27935   0.11073   0.19028   0.00000  Uiso   1.00
H44    H     0.00207   0.10367   0.11384   0.00000  Uiso   1.00
H45    H     0.05075   0.11621   0.13041   0.00000  Uiso   1.00
H46    H     0.00787   0.15699   0.13347   0.00000  Uiso   1.00
H47    H     0.05740   0.21971   0.30741   0.00000  Uiso   1.00
H48    H     0.29528   0.14781   0.44367   0.00000  Uiso   1.00
H49    H     0.00959   0.24320   0.37676   0.00000  Uiso   1.00
H50    H     0.29823   0.21113   0.36821   0.00000  Uiso   1.00
H51    H     0.30488   0.26677   0.35378   0.00000  Uiso   1.00
H52    H     0.09793   0.11050   0.17057   0.00000  Uiso   1.00
H53    H     0.08525   0.04014   0.20149   0.00000  Uiso   1.00
H54    H     0.04001   0.05181   0.17933   0.00000  Uiso   1.00
H55    H     0.02524   0.05720   0.24179   0.00000  Uiso   1.00
H56    H     0.28709   0.26174   0.28346   0.00000  Uiso   1.00
H57    H     0.19356   0.24086   0.33292   0.00000  Uiso   1.00
H58    H     0.23070   0.26327   0.35878   0.00000  Uiso   1.00
H59    H     0.14532   0.18494   0.11455   0.00000  Uiso   1.00
H60    H     0.22716   0.20722   0.35589   0.00000  Uiso   1.00
H61    H     0.18153   0.14231   0.38896   0.00000  Uiso   1.00
H62    H     0.29010   0.15269   0.09663   0.00000  Uiso   1.00
H63    H     0.04469   0.19175   0.40021   0.00000  Uiso   1.00
H64    H     0.02245   0.21108   0.48315   0.00000  Uiso   1.00
H65    H     0.31509   0.14540   0.01219   0.00000  Uiso   1.00
H66    H     0.10213   0.21096   0.08500   0.00000  Uiso   1.00
N67    N     0.04759   0.16668   0.25001   0.00000  Uiso   1.00
N68    N     0.28574   0.16666   0.24999   0.00000  Uiso   1.00
N69    N     0.31468   0.11360   0.18621   0.00000  Uiso   1.00
N70    N     0.02454   0.22577   0.30638   0.00000  Uiso   1.00
N71    N     0.06967   0.10392   0.20131   0.00000  Uiso   1.00
N72    N     0.26854   0.23427   0.29147   0.00000  Uiso   1.00
O73    O     0.12846   0.22775   0.25000   0.00000  Uiso   1.00
O74    O     0.20488   0.10558   0.24999   0.00000  Uiso   1.00
O75    O     0.20490   0.22774   0.25000   0.00000  Uiso   1.00
O76    O     0.12843   0.10559   0.25000   0.00000  Uiso   1.00
O77    O     0.10661   0.16667   0.31612   0.00000  Uiso   1.00
O78    O     0.22672   0.16666   0.18387   0.00000  Uiso   1.00
O79    O     0.18305   0.16666   0.31612   0.00000  Uiso   1.00
O80    O     0.15028   0.16667   0.18388   0.00000  Uiso   1.00
Zn81   Zn    0.11562   0.16667   0.25000   0.00000  Uiso   1.00
Zn82   Zn    0.21771   0.16666   0.25000   0.00000  Uiso   1.00
C83    C     0.49983   0.24655   0.25014   0.00000  Uiso   1.00
C84    C     0.45548   0.31314   0.26920   0.00000  Uiso   1.00
C85    C     0.50002   0.04263   0.25118   0.00000  Uiso   1.00
C86    C     0.49973   0.29078   0.25051   0.00000  Uiso   1.00
C87    C     0.65517   0.13858   0.22174   0.00000  Uiso   1.00
C88    C     0.34568   0.19575   0.27758   0.00000  Uiso   1.00
C89    C     0.36852   0.13683   0.22455   0.00000  Uiso   1.00
C90    C     0.63161   0.19700   0.27565   0.00000  Uiso   1.00
C91    C     0.46926   0.16611   0.33789   0.00000  Uiso   1.00
C92    C     0.53055   0.16728   0.16203   0.00000  Uiso   1.00
C93    C     0.44986   0.16870   0.38884   0.00000  Uiso   1.00
C94    C     0.50005   0.08681   0.25027   0.00000  Uiso   1.00
C95    C     0.54901   0.16890   0.11107   0.00000  Uiso   1.00
C96    C     0.39127   0.19684   0.46288   0.00000  Uiso   1.00
C97    C     0.61142   0.15540   0.03389   0.00000  Uiso   1.00
C98    C     0.40367   0.18580   0.41579   0.00000  Uiso   1.00
C99    C     0.59728   0.15907   0.08210   0.00000  Uiso   1.00
C100   C     0.48177   0.15951   0.40988   0.00000  Uiso   1.00
C101   C     0.51572   0.17800   0.09128   0.00000  Uiso   1.00
C102   C     0.47214   0.17374   0.45569   0.00000  Uiso   1.00
C103   C     0.52897   0.17524   0.04295   0.00000  Uiso   1.00
C104   C     0.42536   0.19138   0.48290   0.00000  Uiso   1.00
C105   C     0.44721   0.19925   0.04924   0.00000  Uiso   1.00
C106   C     0.57750   0.16268   0.01416   0.00000  Uiso   1.00
C107   C     0.50799   0.17143   0.47471   0.00000  Uiso   1.00
C108   C     0.49451   0.18206   0.02289   0.00000  Uiso   1.00
C109   C     0.34534   0.12333   0.13875   0.00000  Uiso   1.00
C110   C     0.65685   0.23677   0.35344   0.00000  Uiso   1.00
C111   C     0.38716   0.06118   0.20640   0.00000  Uiso   1.00
C112   C     0.56162   0.23591   0.33693   0.00000  Uiso   1.00
C113   C     0.55722   0.16029   0.44678   0.00000  Uiso   1.00
C114   C     0.41350   0.20402   0.02937   0.00000  Uiso   1.00
C115   C     0.59137   0.15659   0.46622   0.00000  Uiso   1.00
C116   C     0.54414   0.31081   0.23274   0.00000  Uiso   1.00
C117   C     0.45566   0.02265   0.26983   0.00000  Uiso   1.00
C118   C     0.54428   0.02027   0.23303   0.00000  Uiso   1.00
H119   H     0.37794   0.21776   0.05054   0.00000  Uiso   1.00
H120   H     0.57105   0.15520   0.40939   0.00000  Uiso   1.00
H121   H     0.57852   0.29344   0.21810   0.00000  Uiso   1.00
H122   H     0.42134   0.04008   0.28481   0.00000  Uiso   1.00
H123   H     0.57871   0.03575   0.21847   0.00000  Uiso   1.00
H124   H     0.42109   0.29764   0.28369   0.00000  Uiso   1.00
H125   H     0.61268   0.11073   0.19028   0.00000  Uiso   1.00
H126   H     0.33541   0.10367   0.11384   0.00000  Uiso   1.00
H127   H     0.38409   0.11621   0.13041   0.00000  Uiso   1.00
H128   H     0.34121   0.15699   0.13347   0.00000  Uiso   1.00
H129   H     0.39074   0.21971   0.30741   0.00000  Uiso   1.00
H130   H     0.62861   0.14781   0.44367   0.00000  Uiso   1.00
H131   H     0.34292   0.24320   0.37676   0.00000  Uiso   1.00
H132   H     0.63157   0.21113   0.36821   0.00000  Uiso   1.00
H133   H     0.63821   0.26677   0.35378   0.00000  Uiso   1.00
H134   H     0.43127   0.11050   0.17057   0.00000  Uiso   1.00
H135   H     0.41858   0.04014   0.20149   0.00000  Uiso   1.00
H136   H     0.37335   0.05181   0.17933   0.00000  Uiso   1.00
H137   H     0.35858   0.05720   0.24179   0.00000  Uiso   1.00
H138   H     0.62042   0.26174   0.28346   0.00000  Uiso   1.00
H139   H     0.52689   0.24086   0.33292   0.00000  Uiso   1.00
H140   H     0.56403   0.26327   0.35878   0.00000  Uiso   1.00
H141   H     0.47866   0.18494   0.11455   0.00000  Uiso   1.00
H142   H     0.56049   0.20722   0.35589   0.00000  Uiso   1.00
H143   H     0.51486   0.14231   0.38896   0.00000  Uiso   1.00
H144   H     0.62343   0.15269   0.09663   0.00000  Uiso   1.00
H145   H     0.37802   0.19175   0.40021   0.00000  Uiso   1.00
H146   H     0.35578   0.21108   0.48315   0.00000  Uiso   1.00
H147   H     0.64843   0.14540   0.01219   0.00000  Uiso   1.00
H148   H     0.43546   0.21096   0.08500   0.00000  Uiso   1.00
N149   N     0.38093   0.16668   0.25001   0.00000  Uiso   1.00
N150   N     0.61907   0.16666   0.24999   0.00000  Uiso   1.00
N151   N     0.64802   0.11360   0.18621   0.00000  Uiso   1.00
N152   N     0.35788   0.22577   0.30638   0.00000  Uiso   1.00
N153   N     0.40300   0.10392   0.20131   0.00000  Uiso   1.00
N154   N     0.60188   0.23427   0.29147   0.00000  Uiso   1.00
O155   O     0.46179   0.22775   0.25000   0.00000  Uiso   1.00
O156   O     0.53821   0.10558   0.24999   0.00000  Uiso   1.00
O157   O     0.53823   0.22774   0.25000   0.00000  Uiso   1.00
O158   O     0.46177   0.10559   0.25000   0.00000  Uiso   1.00
O159   O     0.43994   0.16667   0.31612   0.00000  Uiso   1.00
O160   O     0.56006   0.16666   0.18387   0.00000  Uiso   1.00
O161   O     0.51639   0.16666   0.31612   0.00000  Uiso   1.00
O162   O     0.48361   0.16667   0.18388   0.00000  Uiso   1.00
Zn163  Zn    0.44896   0.16667   0.25000   0.00000  Uiso   1.00
Zn164  Zn    0.55104   0.16666   0.25000   0.00000  Uiso   1.00
C165   C     0.83317   0.24655   0.25014   0.00000  Uiso   1.00
C166   C     0.78882   0.31314   0.26920   0.00000  Uiso   1.00
C167   C     0.83335   0.04263   0.25118   0.00000  Uiso   1.00
C168   C     0.83306   0.29078   0.25051   0.00000  Uiso   1.00
C169   C     0.98850   0.13858   0.22174   0.00000  Uiso   1.00
C170   C     0.67901   0.19575   0.27758   0.00000  Uiso   1.00
C171   C     0.70185   0.13683   0.22455   0.00000  Uiso   1.00
C172   C     0.96494   0.19700   0.27565   0.00000  Uiso   1.00
C173   C     0.80260   0.16611   0.33789   0.00000  Uiso   1.00
C174   C     0.86388   0.16728   0.16203   0.00000  Uiso   1.00
C175   C     0.78320   0.16870   0.38884   0.00000  Uiso   1.00
C176   C     0.83338   0.08681   0.25027   0.00000  Uiso   1.00
C177   C     0.88234   0.16890   0.11107   0.00000  Uiso   1.00
C178   C     0.72460   0.19684   0.46288   0.00000  Uiso   1.00
C179   C     0.94476   0.15540   0.03389   0.00000  Uiso   1.00
C180   C     0.73701   0.18580   0.41579   0.00000  Uiso   1.00
C181   C     0.93061   0.15907   0.08210   0.00000  Uiso   1.00
C182   C     0.81510   0.15951   0.40988   0.00000  Uiso   1.00
C183   C     0.84905   0.17800   0.09128   0.00000  Uiso   1.00
C184   C     0.80547   0.17374   0.45569   0.00000  Uiso   1.00
C185   C     0.86230   0.17524   0.04295   0.00000  Uiso   1.00
C186   C     0.75869   0.19138   0.48290   0.00000  Uiso   1.00
C187   C     0.78055   0.19925   0.04924   0.00000  Uiso   1.00
C188   C     0.91084   0.16268   0.01416   0.00000  Uiso   1.00
C189   C     0.84132   0.17143   0.47471   0.00000  Uiso   1.00
C190   C     0.82785   0.18206   0.02289   0.00000  Uiso   1.00
C191   C     0.67867   0.12333   0.13875   0.00000  Uiso   1.00
C192   C     0.99018   0.23677   0.35344   0.00000  Uiso   1.00
C193   C     0.72049   0.06118   0.20640   0.00000  Uiso   1.00
C194   C     0.89495   0.23591   0.33693   0.00000  Uiso   1.00
C195   C     0.89056   0.16029   0.44678   0.00000  Uiso   1.00
C196   C     0.74684   0.20402   0.02937   0.00000  Uiso   1.00
C197   C     0.92471   0.15659   0.46622   0.00000  Uiso   1.00
C198   C     0.87747   0.31081   0.23274   0.00000  Uiso   1.00
C199   C     0.78899   0.02265   0.26983   0.00000  Uiso   1.00
C200   C     0.87762   0.02027   0.23303   0.00000  Uiso   1.00
H201   H     0.71127   0.21776   0.05054   0.00000  Uiso   1.00
H202   H     0.90438   0.15520   0.40939   0.00000  Uiso   1.00
H203   H     0.91185   0.29344   0.21810   0.00000  Uiso   1.00
H204   H     0.75468   0.04008   0.28481   0.00000  Uiso   1.00
H205   H     0.91204   0.03575   0.21847   0.00000  Uiso   1.00
H206   H     0.75442   0.29764   0.28369   0.00000  Uiso   1.00
H207   H     0.94601   0.11073   0.19028   0.00000  Uiso   1.00
H208   H     0.66874   0.10367   0.11384   0.00000  Uiso   1.00
H209   H     0.71742   0.11621   0.13041   0.00000  Uiso   1.00
H210   H     0.67454   0.15699   0.13347   0.00000  Uiso   1.00
H211   H     0.72407   0.21971   0.30741   0.00000  Uiso   1.00
H212   H     0.96195   0.14781   0.44367   0.00000  Uiso   1.00
H213   H     0.67625   0.24320   0.37676   0.00000  Uiso   1.00
H214   H     0.96490   0.21113   0.36821   0.00000  Uiso   1.00
H215   H     0.97155   0.26677   0.35378   0.00000  Uiso   1.00
H216   H     0.76460   0.11050   0.17057   0.00000  Uiso   1.00
H217   H     0.75191   0.04014   0.20149   0.00000  Uiso   1.00
H218   H     0.70668   0.05181   0.17933   0.00000  Uiso   1.00
H219   H     0.69191   0.05720   0.24179   0.00000  Uiso   1.00
H220   H     0.95375   0.26174   0.28346   0.00000  Uiso   1.00
H221   H     0.86022   0.24086   0.33292   0.00000  Uiso   1.00
H222   H     0.89737   0.26327   0.35878   0.00000  Uiso   1.00
H223   H     0.81199   0.18494   0.11455   0.00000  Uiso   1.00
H224   H     0.89383   0.20722   0.35589   0.00000  Uiso   1.00
H225   H     0.84820   0.14231   0.38896   0.00000  Uiso   1.00
H226   H     0.95676   0.15269   0.09663   0.00000  Uiso   1.00
H227   H     0.71135   0.19175   0.40021   0.00000  Uiso   1.00
H228   H     0.68911   0.21108   0.48315   0.00000  Uiso   1.00
H229   H     0.98176   0.14540   0.01219   0.00000  Uiso   1.00
H230   H     0.76880   0.21096   0.08500   0.00000  Uiso   1.00
N231   N     0.71426   0.16668   0.25001   0.00000  Uiso   1.00
N232   N     0.95241   0.16666   0.24999   0.00000  Uiso   1.00
N233   N     0.98135   0.11360   0.18621   0.00000  Uiso   1.00
N234   N     0.69121   0.22577   0.30638   0.00000  Uiso   1.00
N235   N     0.73633   0.10392   0.20131   0.00000  Uiso   1.00
N236   N     0.93521   0.23427   0.29147   0.00000  Uiso   1.00
O237   O     0.79512   0.22775   0.25000   0.00000  Uiso   1.00
O238   O     0.87154   0.10558   0.24999   0.00000  Uiso   1.00
O239   O     0.87157   0.22774   0.25000   0.00000  Uiso   1.00
O240   O     0.79510   0.10559   0.25000   0.00000  Uiso   1.00
O241   O     0.77328   0.16667   0.31612   0.00000  Uiso   1.00
O242   O     0.89339   0.16666   0.18387   0.00000  Uiso   1.00
O243   O     0.84972   0.16666   0.31612   0.00000  Uiso   1.00
O244   O     0.81695   0.16667   0.18388   0.00000  Uiso   1.00
Zn245  Zn    0.78229   0.16667   0.25000   0.00000  Uiso   1.00
Zn246  Zn    0.88438   0.16666   0.25000   0.00000  Uiso   1.00
C247   C     0.16650   0.57988   0.25014   0.00000  Uiso   1.00
C248   C     0.12215   0.64647   0.26920   0.00000  Uiso   1.00
C249   C     0.16668   0.37597   0.25118   0.00000  Uiso   1.00
C250   C     0.16640   0.62411   0.25051   0.00000  Uiso   1.00
C251   C     0.32183   0.47192   0.22174   0.00000  Uiso   1.00
C252   C     0.01234   0.52908   0.27758   0.00000  Uiso   1.00
C253   C     0.03518   0.47016   0.22455   0.00000  Uiso   1.00
C254   C     0.29828   0.53033   0.27565   0.00000  Uiso   1.00
C255   C     0.13593   0.49944   0.33789   0.00000  Uiso   1.00
C256   C     0.19722   0.50062   0.16203   0.00000  Uiso   1.00
C257   C     0.11653   0.50203   0.38884   0.00000  Uiso   1.00
C258   C     0.16671   0.42014   0.25027   0.00000  Uiso   1.00
C259   C     0.21567   0.50224   0.11107   0.00000  Uiso   1.00
C260   C     0.05794   0.53017   0.46288   0.00000  Uiso   1.00
C261   C     0.27809   0.48873   0.03389   0.00000  Uiso   1.00
C262   C     0.07034   0.51914   0.41579   0.00000  Uiso   1.00
C263   C     0.26394   0.49241   0.08210   0.00000  Uiso   1.00
C264   C     0.14843   0.49284   0.40988   0.00000  Uiso   1.00
C265   C     0.18238   0.51133   0.09128   0.00000  Uiso   1.00
C266   C     0.13880   0.50707   0.45569   0.00000  Uiso   1.00
C267   C     0.19564   0.50858   0.04295   0.00000  Uiso   1.00
C268   C     0.09203   0.52471   0.48290   0.00000  Uiso   1.00
C269   C     0.11388   0.53259   0.04924   0.00000  Uiso   1.00
C270   C     0.24417   0.49601   0.01416   0.00000  Uiso   1.00
C271   C     0.17465   0.50477   0.47471   0.00000  Uiso   1.00
C272   C     0.16118   0.51539   0.02289   0.00000  Uiso   1.00
C273   C     0.01201   0.45666   0.13875   0.00000  Uiso   1.00
C274   C     0.32352   0.57010   0.35344   0.00000  Uiso   1.00
C275   C     0.05382   0.39452   0.20640   0.00000  Uiso   1.00
C276   C     0.22828   0.56924   0.33693   0.00000  Uiso   1.00
C277   C     0.22389   0.49362   0.44678   0.00000  Uiso   1.00
C278   C     0.08017   0.53735   0.02937   0.00000  Uiso   1.00
C279   C     0.25804   0.48992   0.46622   0.00000  Uiso   1.00
C280   C     0.21081   0.64414   0.23274   0.00000  Uiso   1.00
C281   C     0.12232   0.35598   0.26983   0.00000  Uiso   1.00
C282   C     0.21095   0.35361   0.23303   0.00000  Uiso   1.00
H283   H     0.04460   0.55109   0.05054   0.00000  Uiso   1.00
H284   H     0.23772   0.48853   0.40939   0.00000  Uiso   1.00
H285   H     0.24519   0.62678   0.21810   0.00000  Uiso   1.00
H286   H     0.08801   0.37341   0.28481   0.00000  Uiso   1.00
H287   H     0.24538   0.36908   0.21847   0.00000  Uiso   1.00
H288   H     0.08775   0.63097   0.28369   0.00000  Uiso   1.00
H289   H     0.27935   0.44406   0.19028   0.00000  Uiso   1.00
H290   H     0.00207   0.43701   0.11384   0.00000  Uiso   1.00
H291   H     0.05075   0.44955   0.13041   0.00000  Uiso   1.00
H292   H     0.00787   0.49033   0.13347   0.00000  Uiso   1.00
H293   H     0.05740   0.55305   0.30741   0.00000  Uiso   1.00
H294   H     0.29528   0.48115   0.44367   0.00000  Uiso   1.00
H295   H     0.00959   0.57653   0.37676   0.00000  Uiso   1.00
H296   H     0.29823   0.54446   0.36821   0.00000  Uiso   1.00
H297   H     0.30488   0.60010   0.35378   0.00000  Uiso   1.00
H298   H     0.09793   0.44383   0.17057   0.00000  Uiso   1.00
H299   H     0.08525   0.37347   0.20149   0.00000  Uiso   1.00
H300   H     0.04001   0.38514   0.17933   0.00000  Uiso   1.00
H301   H     0.02524   0.39053   0.24179   0.00000  Uiso   1.00
H302   H     0.28709   0.59507   0.28346   0.00000  Uiso   1.00
H303   H     0.19356   0.57419   0.33292   0.00000  Uiso   1.00
H304   H     0.23070   0.59661   0.35878   0.00000  Uiso   1.00
H305   H     0.14532   0.51828   0.11455   0.00000  Uiso   1.00
H306   H     0.22716   0.54055   0.35589   0.00000  Uiso   1.00
H307   H     0.18153   0.47564   0.38896   0.00000  Uiso   1.00
H308   H     0.29010   0.48602   0.09663   0.00000  Uiso   1.00
H309   H     0.04469   0.52508   0.40021   0.00000  Uiso   1.00
H310   H     0.02245   0.54441   0.48315   0.00000  Uiso   1.00
H311   H     0.31509   0.47873   0.01219   0.00000  Uiso   1.00
H312   H     0.10213   0.54429   0.08500   0.00000  Uiso   1.00
N313   N     0.04759   0.50001   0.25001   0.00000  Uiso   1.00
N314   N     0.28574   0.49999   0.24999   0.00000  Uiso   1.00
N315   N     0.31468   0.44694   0.18621   0.00000  Uiso   1.00
N316   N     0.02454   0.55911   0.30638   0.00000  Uiso   1.00
N317   N     0.06967   0.43726   0.20131   0.00000  Uiso   1.00
N318   N     0.26854   0.56760   0.29147   0.00000  Uiso   1.00
O319   O     0.12846   0.56108   0.25000   0.00000  Uiso   1.00
O320   O     0.20488   0.43892   0.24999   0.00000  Uiso   1.00
O321   O     0.20490   0.56107   0.25000   0.00000  Uiso   1.00
O322   O     0.12843   0.43893   0.25000   0.00000  Uiso   1.00
O323   O     0.10661   0.50001   0.31612   0.00000  Uiso   1.00
O324   O     0.22672   0.49999   0.18387   0.00000  Uiso   1.00
O325   O     0.18305   0.50000   0.31612   0.00000  Uiso   1.00
O326   O     0.15028   0.50000   0.18388   0.00000  Uiso   1.00
Zn327  Zn    0.11562   0.50001   0.25000   0.00000  Uiso   1.00
Zn328  Zn    0.21771   0.49999   0.25000   0.00000  Uiso   1.00
C329   C     0.49983   0.57988   0.25014   0.00000  Uiso   1.00
C330   C     0.45548   0.64647   0.26920   0.00000  Uiso   1.00
C331   C     0.50002   0.37597   0.25118   0.00000  Uiso   1.00
C332   C     0.49973   0.62411   0.25051   0.00000  Uiso   1.00
C333   C     0.65517   0.47192   0.22174   0.00000  Uiso   1.00
C334   C     0.34568   0.52908   0.27758   0.00000  Uiso   1.00
C335   C     0.36852   0.47016   0.22455   0.00000  Uiso   1.00
C336   C     0.63161   0.53033   0.27565   0.00000  Uiso   1.00
C337   C     0.46926   0.49944   0.33789   0.00000  Uiso   1.00
C338   C     0.53055   0.50062   0.16203   0.00000  Uiso   1.00
C339   C     0.44986   0.50203   0.38884   0.00000  Uiso   1.00
C340   C     0.50005   0.42014   0.25027   0.00000  Uiso   1.00
C341   C     0.54901   0.50224   0.11107   0.00000  Uiso   1.00
C342   C     0.39127   0.53017   0.46288   0.00000  Uiso   1.00
C343   C     0.61142   0.48873   0.03389   0.00000  Uiso   1.00
C344   C     0.40367   0.51914   0.41579   0.00000  Uiso   1.00
C345   C     0.59728   0.49241   0.08210   0.00000  Uiso   1.00
C346   C     0.48177   0.49284   0.40988   0.00000  Uiso   1.00
C347   C     0.51572   0.51133   0.09128   0.00000  Uiso   1.00
C348   C     0.47214   0.50707   0.45569   0.00000  Uiso   1.00
C349   C     0.52897   0.50858   0.04295   0.00000  Uiso   1.00
C350   C     0.42536   0.52471   0.48290   0.00000  Uiso   1.00
C351   C     0.44721   0.53259   0.04924   0.00000  Uiso   1.00
C352   C     0.57750   0.49601   0.01416   0.00000  Uiso   1.00
C353   C     0.50799   0.50477   0.47471   0.00000  Uiso   1.00
C354   C     0.49451   0.51539   0.02289   0.00000  Uiso   1.00
C355   C     0.34534   0.45666   0.13875   0.00000  Uiso   1.00
C356   C     0.65685   0.57010   0.35344   0.00000  Uiso   1.00
C357   C     0.38716   0.39452   0.20640   0.00000  Uiso   1.00
C358   C     0.56162   0.56924   0.33693   0.00000  Uiso   1.00
C359   C     0.55722   0.49362   0.44678   0.00000  Uiso   1.00
C360   C     0.41350   0.53735   0.02937   0.00000  Uiso   1.00
C361   C     0.59137   0.48992   0.46622   0.00000  Uiso   1.00
C362   C     0.54414   0.64414   0.23274   0.00000  Uiso   1.00
C363   C     0.45566   0.35598   0.26983   0.00000  Uiso   1.00
C364   C     0.54428   0.35361   0.23303   0.00000  Uiso   1.00
H365   H     0.37794   0.55109   0.05054   0.00000  Uiso   1.00
H366   H     0.57105   0.48853   0.40939   0.00000  Uiso   1.00
H367   H     0.57852   0.62678   0.21810   0.00000  Uiso   1.00
H368   H     0.42134   0.37341   0.28481   0.00000  Uiso   1.00
H369   H     0.57871   0.36908   0.21847   0.00000  Uiso   1.00
H370   H     0.42109   0.63097   0.28369   0.00000  Uiso   1.00
H371   H     0.61268   0.44406   0.19028   0.00000  Uiso   1.00
H372   H     0.33541   0.43701   0.11384   0.00000  Uiso   1.00
H373   H     0.38409   0.44955   0.13041   0.00000  Uiso   1.00
H374   H     0.34121   0.49033   0.13347   0.00000  Uiso   1.00
H375   H     0.39074   0.55305   0.30741   0.00000  Uiso   1.00
H376   H     0.62861   0.48115   0.44367   0.00000  Uiso   1.00
H377   H     0.34292   0.57653   0.37676   0.00000  Uiso   1.00
H378   H     0.63157   0.54446   0.36821   0.00000  Uiso   1.00
H379   H     0.63821   0.60010   0.35378   0.00000  Uiso   1.00
H380   H     0.43127   0.44383   0.17057   0.00000  Uiso   1.00
H381   H     0.41858   0.37347   0.20149   0.00000  Uiso   1.00
H382   H     0.37335   0.38514   0.17933   0.00000  Uiso   1.00
H383   H     0.35858   0.39053   0.24179   0.00000  Uiso   1.00
H384   H     0.62042   0.59507   0.28346   0.00000  Uiso   1.00
H385   H     0.52689   0.57419   0.33292   0.00000  Uiso   1.00
H386   H     0.56403   0.59661   0.35878   0.00000  Uiso   1.00
H387   H     0.47866   0.51828   0.11455   0.00000  Uiso   1.00
H388   H     0.56049   0.54055   0.35589   0.00000  Uiso   1.00
H389   H     0.51486   0.47564   0.38896   0.00000  Uiso   1.00
H390   H     0.62343   0.48602   0.09663   0.00000  Uiso   1.00
H391   H     0.37802   0.52508   0.40021   0.00000  Uiso   1.00
H392   H     0.35578   0.54441   0.48315   0.00000  Uiso   1.00
H393   H     0.64843   0.47873   0.01219   0.00000  Uiso   1.00
H394   H     0.43546   0.54429   0.08500   0.00000  Uiso   1.00
N395   N     0.38093   0.50001   0.25001   0.00000  Uiso   1.00
N396   N     0.61907   0.49999   0.24999   0.00000  Uiso   1.00
N397   N     0.64802   0.44694   0.18621   0.00000  Uiso   1.00
N398   N     0.35788   0.55911   0.30638   0.00000  Uiso   1.00
N399   N     0.40300   0.43726   0.20131   0.00000  Uiso   1.00
N400   N     0.60188   0.56760   0.29147   0.00000  Uiso   1.00
O401   O     0.46179   0.56108   0.25000   0.00000  Uiso   1.00
O402   O     0.53821   0.43892   0.24999   0.00000  Uiso   1.00
O403   O     0.53823   0.56107   0.25000   0.00000  Uiso   1.00
O404   O     0.46177   0.43893   0.25000   0.00000  Uiso   1.00
O405   O     0.43994   0.50001   0.31612   0.00000  Uiso   1.00
O406   O     0.56006   0.49999   0.18387   0.00000  Uiso   1.00
O407   O     0.51639   0.50000   0.31612   0.00000  Uiso   1.00
O408   O     0.48361   0.50000   0.18388   0.00000  Uiso   1.00
Zn409  Zn    0.44896   0.50001   0.25000   0.00000  Uiso   1.00
Zn410  Zn    0.55104   0.49999   0.25000   0.00000  Uiso   1.00
C411   C     0.83317   0.57988   0.25014   0.00000  Uiso   1.00
C412   C     0.78882   0.64647   0.26920   0.00000  Uiso   1.00
C413   C     0.83335   0.37597   0.25118   0.00000  Uiso   1.00
C414   C     0.83306   0.62411   0.25051   0.00000  Uiso   1.00
C415   C     0.98850   0.47192   0.22174   0.00000  Uiso   1.00
C416   C     0.67901   0.52908   0.27758   0.00000  Uiso   1.00
C417   C     0.70185   0.47016   0.22455   0.00000  Uiso   1.00
C418   C     0.96494   0.53033   0.27565   0.00000  Uiso   1.00
C419   C     0.80260   0.49944   0.33789   0.00000  Uiso   1.00
C420   C     0.86388   0.50062   0.16203   0.00000  Uiso   1.00
C421   C     0.78320   0.50203   0.38884   0.00000  Uiso   1.00
C422   C     0.83338   0.42014   0.25027   0.00000  Uiso   1.00
C423   C     0.88234   0.50224   0.11107   0.00000  Uiso   1.00
C424   C     0.72460   0.53017   0.46288   0.00000  Uiso   1.00
C425   C     0.94476   0.48873   0.03389   0.00000  Uiso   1.00
C426   C     0.73701   0.51914   0.41579   0.00000  Uiso   1.00
C427   C     0.93061   0.49241   0.08210   0.00000  Uiso   1.00
C428   C     0.81510   0.49284   0.40988   0.00000  Uiso   1.00
C429   C     0.84905   0.51133   0.09128   0.00000  Uiso   1.00
C430   C     0.80547   0.50707   0.45569   0.00000  Uiso   1.00
C431   C     0.86230   0.50858   0.04295   0.00000  Uiso   1.00
C432   C     0.75869   0.52471   0.48290   0.00000  Uiso   1.00
C433   C     0.78055   0.53259   0.04924   0.00000  Uiso   1.00
C434   C     0.91084   0.49601   0.01416   0.00000  Uiso   1.00
C435   C     0.84132   0.50477   0.47471   0.00000  Uiso   1.00
C436   C     0.82785   0.51539   0.02289   0.00000  Uiso   1.00
C437   C     0.67867   0.45666   0.13875   0.00000  Uiso   1.00
C438   C     0.99018   0.57010   0.35344   0.00000  Uiso   1.00
C439   C     0.72049   0.39452   0.20640   0.00000  Uiso   1.00
C440   C     0.89495   0.56924   0.33693   0.00000  Uiso   1.00
C441   C     0.89056   0.49362   0.44678   0.00000  Uiso   1.00
C442   C     0.74684   0.53735   0.02937   0.00000  Uiso   1.00
C443   C     0.92471   0.48992   0.46622   0.00000  Uiso   1.00
C444   C     0.87747   0.64414   0.23274   0.00000  Uiso   1.00
C445   C     0.78899   0.35598   0.26983   0.00000  Uiso   1.00
C446   C     0.87762   0.35361   0.23303   0.00000  Uiso   1.00
H447   H     0.71127   0.55109   0.05054   0.00000  Uiso   1.00
H448   H     0.90438   0.48853   0.40939   0.00000  Uiso   1.00
H449   H     0.91185   0.62678   0.21810   0.00000  Uiso   1.00
H450   H     0.75468   0.37341   0.28481   0.00000  Uiso   1.00
H451   H     0.91204   0.36908   0.21847   0.00000  Uiso   1.00
H452   H     0.75442   0.63097   0.28369   0.00000  Uiso   1.00
H453   H     0.94601   0.44406   0.19028   0.00000  Uiso   1.00
H454   H     0.66874   0.43701   0.11384   0.00000  Uiso   1.00
H455   H     0.71742   0.44955   0.13041   0.00000  Uiso   1.00
H456   H     0.67454   0.49033   0.13347   0.00000  Uiso   1.00
H457   H     0.72407   0.55305   0.30741   0.00000  Uiso   1.00
H458   H     0.96195   0.48115   0.44367   0.00000  Uiso   1.00
H459   H     0.67625   0.57653   0.37676   0.00000  Uiso   1.00
H460   H     0.96490   0.54446   0.36821   0.00000  Uiso   1.00
H461   H     0.97155   0.60010   0.35378   0.00000  Uiso   1.00
H462   H     0.76460   0.44383   0.17057   0.00000  Uiso   1.00
H463   H     0.75191   0.37347   0.20149   0.00000  Uiso   1.00
H464   H     0.70668   0.38514   0.17933   0.00000  Uiso   1.00
H465   H     0.69191   0.39053   0.24179   0.00000  Uiso   1.00
H466   H     0.95375   0.59507   0.28346   0.00000  Uiso   1.00
H467   H     0.86022   0.57419   0.33292   0.00000  Uiso   1.00
H468   H     0.89737   0.59661   0.35878   0.00000  Uiso   1.00
H469   H     0.81199   0.51828   0.11455   0.00000  Uiso   1.00
H470   H     0.89383   0.54055   0.35589   0.00000  Uiso   1.00
H471   H     0.84820   0.47564   0.38896   0.00000  Uiso   1.00
H472   H     0.95676   0.48602   0.09663   0.00000  Uiso   1.00
H473   H     0.71135   0.52508   0.40021   0.00000  Uiso   1.00
H474   H     0.68911   0.54441   0.48315   0.00000  Uiso   1.00
H475   H     0.98176   0.47873   0.01219   0.00000  Uiso   1.00
H476   H     0.76880   0.54429   0.08500   0.00000  Uiso   1.00
N477   N     0.71426   0.50001   0.25001   0.00000  Uiso   1.00
N478   N     0.95241   0.49999   0.24999   0.00000  Uiso   1.00
N479   N     0.98135   0.44694   0.18621   0.00000  Uiso   1.00
N480   N     0.69121   0.55911   0.30638   0.00000  Uiso   1.00
N481   N     0.73633   0.43726   0.20131   0.00000  Uiso   1.00
N482   N     0.93521   0.56760   0.29147   0.00000  Uiso   1.00
O483   O     0.79512   0.56108   0.25000   0.00000  Uiso   1.00
O484   O     0.87154   0.43892   0.24999   0.00000  Uiso   1.00
O485   O     0.87157   0.56107   0.25000   0.00000  Uiso   1.00
O486   O     0.79510   0.43893   0.25000   0.00000  Uiso   1.00
O487   O     0.77328   0.50001   0.31612   0.00000  Uiso   1.00
O488   O     0.89339   0.49999   0.18387   0.00000  Uiso   1.00
O489   O     0.84972   0.50000   0.31612   0.00000  Uiso   1.00
O490   O     0.81695   0.50000   0.18388   0.00000  Uiso   1.00
Zn491  Zn    0.78229   0.50001   0.25000   0.00000  Uiso   1.00
Zn492  Zn    0.88438   0.49999   0.25000   0.00000  Uiso   1.00
C493   C     0.16650   0.91321   0.25014   0.00000  Uiso   1.00
C494   C     0.12215   0.97981   0.26920   0.00000  Uiso   1.00
C495   C     0.16668   0.70930   0.25118   0.00000  Uiso   1.00
C496   C     0.16640   0.95744   0.25051   0.00000  Uiso   1.00
C497   C     0.32183   0.80525   0.22174   0.00000  Uiso   1.00
C498   C     0.01234   0.86242   0.27758   0.00000  Uiso   1.00
C499   C     0.03518   0.80350   0.22455   0.00000  Uiso   1.00
C500   C     0.29828   0.86367   0.27565   0.00000  Uiso   1.00
C501   C     0.13593   0.83277   0.33789   0.00000  Uiso   1.00
C502   C     0.19722   0.83395   0.16203   0.00000  Uiso   1.00
C503   C     0.11653   0.83536   0.38884   0.00000  Uiso   1.00
C504   C     0.16671   0.75347   0.25027   0.00000  Uiso   1.00
C505   C     0.21567   0.83557   0.11107   0.00000  Uiso   1.00
C506   C     0.05794   0.86350   0.46288   0.00000  Uiso   1.00
C507   C     0.27809   0.82206   0.03389   0.00000  Uiso   1.00
C508   C     0.07034   0.85247   0.41579   0.00000  Uiso   1.00
C509   C     0.26394   0.82574   0.08210   0.00000  Uiso   1.00
C510   C     0.14843   0.82617   0.40988   0.00000  Uiso   1.00
C511   C     0.18238   0.84466   0.09128   0.00000  Uiso   1.00
C512   C     0.13880   0.84041   0.45569   0.00000  Uiso   1.00
C513   C     0.19564   0.84191   0.04295   0.00000  Uiso   1.00
C514   C     0.09203   0.85805   0.48290   0.00000  Uiso   1.00
C515   C     0.11388   0.86592   0.04924   0.00000  Uiso   1.00
C516   C     0.24417   0.82934   0.01416   0.00000  Uiso   1.00
C517   C     0.17465   0.83810   0.47471   0.00000  Uiso   1.00
C518   C     0.16118   0.84873   0.02289   0.00000  Uiso   1.00
C519   C     0.01201   0.78999   0.13875   0.00000  Uiso   1.00
C520   C     0.32352   0.90344   0.35344   0.00000  Uiso   1.00
C521   C     0.05382   0.72785   0.20640   0.00000  Uiso   1.00
C522   C     0.22828   0.90257   0.33693   0.00000  Uiso   1.00
C523   C     0.22389   0.82695   0.44678   0.00000  Uiso   1.00
C524   C     0.08017   0.87068   0.02937   0.00000  Uiso   1.00
C525   C     0.25804   0.82325   0.46622   0.00000  Uiso   1.00
C526   C     0.21081   0.97747   0.23274   0.00000  Uiso   1.00
C527   C     0.12232   0.68931   0.26983   0.00000  Uiso   1.00
C528   C     0.21095   0.68694   0.23303   0.00000  Uiso   1.00
H529   H     0.04460   0.88442   0.05054   0.00000  Uiso   1.00
H530   H     0.23772   0.82186   0.40939   0.00000  Uiso   1.00
H531   H     0.24519   0.96011   0.21810   0.00000  Uiso   1.00
H532   H     0.08801   0.70675   0.28481   0.00000  Uiso   1.00
H533   H     0.24538   0.70242   0.21847   0.00000  Uiso   1.00
H534   H     0.08775   0.96430   0.28369   0.00000  Uiso   1.00
H535   H     0.27935   0.77739   0.19028   0.00000  Uiso   1.00
H536   H     0.00207   0.77034   0.11384   0.00000  Uiso   1.00
H537   H     0.05075   0.78288   0.13041   0.00000  Uiso   1.00
H538   H     0.00787   0.82366   0.13347   0.00000  Uiso   1.00
H539   H     0.05740   0.88638   0.30741   0.00000  Uiso   1.00
H540   H     0.29528   0.81448   0.44367   0.00000  Uiso   1.00
H541   H     0.00959   0.90986   0.37676   0.00000  Uiso   1.00
H542   H     0.29823   0.87779   0.36821   0.00000  Uiso   1.00
H543   H     0.30488   0.93344   0.35378   0.00000  Uiso   1.00
H544   H     0.09793   0.77716   0.17057   0.00000  Uiso   1.00
H545   H     0.08525   0.70680   0.20149   0.00000  Uiso   1.00
H546   H     0.04001   0.71847   0.17933   0.00000  Uiso   1.00
H547   H     0.02524   0.72386   0.24179   0.00000  Uiso   1.00
H548   H     0.28709   0.92841   0.28346   0.00000  Uiso   1.00
H549   H     0.19356   0.90753   0.33292   0.00000  Uiso   1.00
H550   H     0.23070   0.92994   0.35878   0.00000  Uiso   1.00
H551   H     0.14532   0.85161   0.11455   0.00000  Uiso   1.00
H552   H     0.22716   0.87389   0.35589   0.00000  Uiso   1.00
H553   H     0.18153   0.80898   0.38896   0.00000  Uiso   1.00
H554   H     0.29010   0.81936   0.09663   0.00000  Uiso   1.00
H555   H     0.04469   0.85842   0.40021   0.00000  Uiso   1.00
H556   H     0.02245   0.87774   0.48315   0.00000  Uiso   1.00
H557   H     0.31509   0.81207   0.01219   0.00000  Uiso   1.00
H558   H     0.10213   0.87762   0.08500   0.00000  Uiso   1.00
N559   N     0.04759   0.83334   0.25001   0.00000  Uiso   1.00
N560   N     0.28574   0.83332   0.24999   0.00000  Uiso   1.00
N561   N     0.31468   0.78027   0.18621   0.00000  Uiso   1.00
N562   N     0.02454   0.89244   0.30638   0.00000  Uiso   1.00
N563   N     0.06967   0.77059   0.20131   0.00000  Uiso   1.00
N564   N     0.26854   0.90093   0.29147   0.00000  Uiso   1.00
O565   O     0.12846   0.89442   0.25000   0.00000  Uiso   1.00
O566   O     0.20488   0.77225   0.24999   0.00000  Uiso   1.00
O567   O     0.20490   0.89441   0.25000   0.00000  Uiso   1.00
O568   O     0.12843   0.77226   0.25000   0.00000  Uiso   1.00
O569   O     0.10661   0.83334   0.31612   0.00000  Uiso   1.00
O570   O     0.22672   0.83333   0.18387   0.00000  Uiso   1.00
O571   O     0.18305   0.83333   0.31612   0.00000  Uiso   1.00
O572   O     0.15028   0.83334   0.18388   0.00000  Uiso   1.00
Zn573  Zn    0.11562   0.83334   0.25000   0.00000  Uiso   1.00
Zn574  Zn    0.21771   0.83333   0.25000   0.00000  Uiso   1.00
C575   C     0.49983   0.91321   0.25014   0.00000  Uiso   1.00
C576   C     0.45548   0.97981   0.26920   0.00000  Uiso   1.00
C577   C     0.50002   0.70930   0.25118   0.00000  Uiso   1.00
C578   C     0.49973   0.95744   0.25051   0.00000  Uiso   1.00
C579   C     0.65517   0.80525   0.22174   0.00000  Uiso   1.00
C580   C     0.34568   0.86242   0.27758   0.00000  Uiso   1.00
C581   C     0.36852   0.80350   0.22455   0.00000  Uiso   1.00
C582   C     0.63161   0.86367   0.27565   0.00000  Uiso   1.00
C583   C     0.46926   0.83277   0.33789   0.00000  Uiso   1.00
C584   C     0.53055   0.83395   0.16203   0.00000  Uiso   1.00
C585   C     0.44986   0.83536   0.38884   0.00000  Uiso   1.00
C586   C     0.50005   0.75347   0.25027   0.00000  Uiso   1.00
C587   C     0.54901   0.83557   0.11107   0.00000  Uiso   1.00
C588   C     0.39127   0.86350   0.46288   0.00000  Uiso   1.00
C589   C     0.61142   0.82206   0.03389   0.00000  Uiso   1.00
C590   C     0.40367   0.85247   0.41579   0.00000  Uiso   1.00
C591   C     0.59728   0.82574   0.08210   0.00000  Uiso   1.00
C592   C     0.48177   0.82617   0.40988   0.00000  Uiso   1.00
C593   C     0.51572   0.84466   0.09128   0.00000  Uiso   1.00
C594   C     0.47214   0.84041   0.45569   0.00000  Uiso   1.00
C595   C     0.52897   0.84191   0.04295   0.00000  Uiso   1.00
C596   C     0.42536   0.85805   0.48290   0.00000  Uiso   1.00
C597   C     0.44721   0.86592   0.04924   0.00000  Uiso   1.00
C598   C     0.57750   0.82934   0.01416   0.00000  Uiso   1.00
C599   C     0.50799   0.83810   0.47471   0.00000  Uiso   1.00
C600   C     0.49451   0.84873   0.02289   0.00000  Uiso   1.00
C601   C     0.34534   0.78999   0.13875   0.00000  Uiso   1.00
C602   C     0.65685   0.90344   0.35344   0.00000  Uiso   1.00
C603   C     0.38716   0.72785   0.20640   0.00000  Uiso   1.00
C604   C     0.56162   0.90257   0.33693   0.00000  Uiso   1.00
C605   C     0.55722   0.82695   0.44678   0.00000  Uiso   1.00
C606   C     0.41350   0.87068   0.02937   0.00000  Uiso   1.00
C607   C     0.59137   0.82325   0.46622   0.00000  Uiso   1.00
C608   C     0.54414   0.97747   0.23274   0.00000  Uiso   1.00
C609   C     0.45566   0.68931   0.26983   0.00000  Uiso   1.00
C610   C     0.54428   0.68694   0.23303   0.00000  Uiso   1.00
H611   H     0.37794   0.88442   0.05054   0.00000  Uiso   1.00
H612   H     0.57105   0.82186   0.40939   0.00000  Uiso   1.00
H613   H     0.57852   0.96011   0.21810   0.00000  Uiso   1.00
H614   H     0.42134   0.70675   0.28481   0.00000  Uiso   1.00
H615   H     0.57871   0.70242   0.21847   0.00000  Uiso   1.00
H616   H     0.42109   0.96430   0.28369   0.00000  Uiso   1.00
H617   H     0.61268   0.77739   0.19028   0.00000  Uiso   1.00
H618   H     0.33541   0.77034   0.11384   0.00000  Uiso   1.00
H619   H     0.38409   0.78288   0.13041   0.00000  Uiso   1.00
H620   H     0.34121   0.82366   0.13347   0.00000  Uiso   1.00
H621   H     0.39074   0.88638   0.30741   0.00000  Uiso   1.00
H622   H     0.62861   0.81448   0.44367   0.00000  Uiso   1.00
H623   H     0.34292   0.90986   0.37676   0.00000  Uiso   1.00
H624   H     0.63157   0.87779   0.36821   0.00000  Uiso   1.00
H625   H     0.63821   0.93344   0.35378   0.00000  Uiso   1.00
H626   H     0.43127   0.77716   0.17057   0.00000  Uiso   1.00
H627   H     0.41858   0.70680   0.20149   0.00000  Uiso   1.00
H628   H     0.37335   0.71847   0.17933   0.00000  Uiso   1.00
H629   H     0.35858   0.72386   0.24179   0.00000  Uiso   1.00
H630   H     0.62042   0.92841   0.28346   0.00000  Uiso   1.00
H631   H     0.52689   0.90753   0.33292   0.00000  Uiso   1.00
H632   H     0.56403   0.92994   0.35878   0.00000  Uiso   1.00
H633   H     0.47866   0.85161   0.11455   0.00000  Uiso   1.00
H634   H     0.56049   0.87389   0.35589   0.00000  Uiso   1.00
H635   H     0.51486   0.80898   0.38896   0.00000  Uiso   1.00
H636   H     0.62343   0.81936   0.09663   0.00000  Uiso   1.00
H637   H     0.37802   0.85842   0.40021   0.00000  Uiso   1.00
H638   H     0.35578   0.87774   0.48315   0.00000  Uiso   1.00
H639   H     0.64843   0.81207   0.01219   0.00000  Uiso   1.00
H640   H     0.43546   0.87762   0.08500   0.00000  Uiso   1.00
N641   N     0.38093   0.83334   0.25001   0.00000  Uiso   1.00
N642   N     0.61907   0.83332   0.24999   0.00000  Uiso   1.00
N643   N     0.64802   0.78027   0.18621   0.00000  Uiso   1.00
N644   N     0.35788   0.89244   0.30638   0.00000  Uiso   1.00
N645   N     0.40300   0.77059   0.20131   0.00000  Uiso   1.00
N646   N     0.60188   0.90093   0.29147   0.00000  Uiso   1.00
O647   O     0.46179   0.89442   0.25000   0.00000  Uiso   1.00
O648   O     0.53821   0.77225   0.24999   0.00000  Uiso   1.00
O649   O     0.53823   0.89441   0.25000   0.00000  Uiso   1.00
O650   O     0.46177   0.77226   0.25000   0.00000  Uiso   1.00
O651   O     0.43994   0.83334   0.31612   0.00000  Uiso   1.00
O652   O     0.56006   0.83333   0.18387   0.00000  Uiso   1.00
O653   O     0.51639   0.83333   0.31612   0.00000  Uiso   1.00
O654   O     0.48361   0.83334   0.18388   0.00000  Uiso   1.00
Zn655  Zn    0.44896   0.83334   0.25000   0.00000  Uiso   1.00
Zn656  Zn    0.55104   0.83333   0.25000   0.00000  Uiso   1.00
C657   C     0.83317   0.91321   0.25014   0.00000  Uiso   1.00
C658   C     0.78882   0.97981   0.26920   0.00000  Uiso   1.00
C659   C     0.83335   0.70930   0.25118   0.00000  Uiso   1.00
C660   C     0.83306   0.95744   0.25051   0.00000  Uiso   1.00
C661   C     0.98850   0.80525   0.22174   0.00000  Uiso   1.00
C662   C     0.67901   0.86242   0.27758   0.00000  Uiso   1.00
C663   C     0.70185   0.80350   0.22455   0.00000  Uiso   1.00
C664   C     0.96494   0.86367   0.27565   0.00000  Uiso   1.00
C665   C     0.80260   0.83277   0.33789   0.00000  Uiso   1.00
C666   C     0.86388   0.83395   0.16203   0.00000  Uiso   1.00
C667   C     0.78320   0.83536   0.38884   0.00000  Uiso   1.00
C668   C     0.83338   0.75347   0.25027   0.00000  Uiso   1.00
C669   C     0.88234   0.83557   0.11107   0.00000  Uiso   1.00
C670   C     0.72460   0.86350   0.46288   0.00000  Uiso   1.00
C671   C     0.94476   0.82206   0.03389   0.00000  Uiso   1.00
C672   C     0.73701   0.85247   0.41579   0.00000  Uiso   1.00
C673   C     0.93061   0.82574   0.08210   0.00000  Uiso   1.00
C674   C     0.81510   0.82617   0.40988   0.00000  Uiso   1.00
C675   C     0.84905   0.84466   0.09128   0.00000  Uiso   1.00
C676   C     0.80547   0.84041   0.45569   0.00000  Uiso   1.00
C677   C     0.86230   0.84191   0.04295   0.00000  Uiso   1.00
C678   C     0.75869   0.85805   0.48290   0.00000  Uiso   1.00
C679   C     0.78055   0.86592   0.04924   0.00000  Uiso   1.00
C680   C     0.91084   0.82934   0.01416   0.00000  Uiso   1.00
C681   C     0.84132   0.83810   0.47471   0.00000  Uiso   1.00
C682   C     0.82785   0.84873   0.02289   0.00000  Uiso   1.00
C683   C     0.67867   0.78999   0.13875   0.00000  Uiso   1.00
C684   C     0.99018   0.90344   0.35344   0.00000  Uiso   1.00
C685   C     0.72049   0.72785   0.20640   0.00000  Uiso   1.00
C686   C     0.89495   0.90257   0.33693   0.00000  Uiso   1.00
C687   C     0.89056   0.82695   0.44678   0.00000  Uiso   1.00
C688   C     0.74684   0.87068   0.02937   0.00000  Uiso   1.00
C689   C     0.92471   0.82325   0.46622   0.00000  Uiso   1.00
C690   C     0.87747   0.97747   0.23274   0.00000  Uiso   1.00
C691   C     0.78899   0.68931   0.26983   0.00000  Uiso   1.00
C692   C     0.87762   0.68694   0.23303   0.00000  Uiso   1.00
H693   H     0.71127   0.88442   0.05054   0.00000  Uiso   1.00
H694   H     0.90438   0.82186   0.40939   0.00000  Uiso   1.00
H695   H     0.91185   0.96011   0.21810   0.00000  Uiso   1.00
H696   H     0.75468   0.70675   0.28481   0.00000  Uiso   1.00
H697   H     0.91204   0.70242   0.21847   0.00000  Uiso   1.00
H698   H     0.75442   0.96430   0.28369   0.00000  Uiso   1.00
H699   H     0.94601   0.77739   0.19028   0.00000  Uiso   1.00
H700   H     0.66874   0.77034   0.11384   0.00000  Uiso   1.00
H701   H     0.71742   0.78288   0.13041   0.00000  Uiso   1.00
H702   H     0.67454   0.82366   0.13347   0.00000  Uiso   1.00
H703   H     0.72407   0.88638   0.30741   0.00000  Uiso   1.00
H704   H     0.96195   0.81448   0.44367   0.00000  Uiso   1.00
H705   H     0.67625   0.90986   0.37676   0.00000  Uiso   1.00
H706   H     0.96490   0.87779   0.36821   0.00000  Uiso   1.00
H707   H     0.97155   0.93344   0.35378   0.00000  Uiso   1.00
H708   H     0.76460   0.77716   0.17057   0.00000  Uiso   1.00
H709   H     0.75191   0.70680   0.20149   0.00000  Uiso   1.00
H710   H     0.70668   0.71847   0.17933   0.00000  Uiso   1.00
H711   H     0.69191   0.72386   0.24179   0.00000  Uiso   1.00
H712   H     0.95375   0.92841   0.28346   0.00000  Uiso   1.00
H713   H     0.86022   0.90753   0.33292   0.00000  Uiso   1.00
H714   H     0.89737   0.92994   0.35878   0.00000  Uiso   1.00
H715   H     0.81199   0.85161   0.11455   0.00000  Uiso   1.00
H716   H     0.89383   0.87389   0.35589   0.00000  Uiso   1.00
H717   H     0.84820   0.80898   0.38896   0.00000  Uiso   1.00
H718   H     0.95676   0.81936   0.09663   0.00000  Uiso   1.00
H719   H     0.71135   0.85842   0.40021   0.00000  Uiso   1.00
H720   H     0.68911   0.87774   0.48315   0.00000  Uiso   1.00
H721   H     0.98176   0.81207   0.01219   0.00000  Uiso   1.00
H722   H     0.76880   0.87762   0.08500   0.00000  Uiso   1.00
N723   N     0.71426   0.83334   0.25001   0.00000  Uiso   1.00
N724   N     0.95241   0.83332   0.24999   0.00000  Uiso   1.00
N725   N     0.98135   0.78027   0.18621   0.00000  Uiso   1.00
N726   N     0.69121   0.89244   0.30638   0.00000  Uiso   1.00
N727   N     0.73633   0.77059   0.20131   0.00000  Uiso   1.00
N728   N     0.93521   0.90093   0.29147   0.00000  Uiso   1.00
O729   O     0.79512   0.89442   0.25000   0.00000  Uiso   1.00
O730   O     0.87154   0.77225   0.24999   0.00000  Uiso   1.00
O731   O     0.87157   0.89441   0.25000   0.00000  Uiso   1.00
O732   O     0.79510   0.77226   0.25000   0.00000  Uiso   1.00
O733   O     0.77328   0.83334   0.31612   0.00000  Uiso   1.00
O734   O     0.89339   0.83333   0.18387   0.00000  Uiso   1.00
O735   O     0.84972   0.83333   0.31612   0.00000  Uiso   1.00
O736   O     0.81695   0.83334   0.18388   0.00000  Uiso   1.00
Zn737  Zn    0.78229   0.83334   0.25000   0.00000  Uiso   1.00
Zn738  Zn    0.88438   0.83333   0.25000   0.00000  Uiso   1.00
C739   C     0.16650   0.24655   0.75014   0.00000  Uiso   1.00
C740   C     0.12215   0.31314   0.76920   0.00000  Uiso   1.00
C741   C     0.16668   0.04263   0.75118   0.00000  Uiso   1.00
C742   C     0.16640   0.29078   0.75051   0.00000  Uiso   1.00
C743   C     0.32183   0.13858   0.72174   0.00000  Uiso   1.00
C744   C     0.01234   0.19575   0.77758   0.00000  Uiso   1.00
C745   C     0.03518   0.13683   0.72455   0.00000  Uiso   1.00
C746   C     0.29828   0.19700   0.77565   0.00000  Uiso   1.00
C747   C     0.13593   0.16611   0.83789   0.00000  Uiso   1.00
C748   C     0.19722   0.16728   0.66203   0.00000  Uiso   1.00
C749   C     0.11653   0.16870   0.88884   0.00000  Uiso   1.00
C750   C     0.16671   0.08681   0.75027   0.00000  Uiso   1.00
C751   C     0.21567   0.16890   0.61107   0.00000  Uiso   1.00
C752   C     0.05794   0.19684   0.96288   0.00000  Uiso   1.00
C753   C     0.27809   0.15540   0.53389   0.00000  Uiso   1.00
C754   C     0.07034   0.18580   0.91579   0.00000  Uiso   1.00
C755   C     0.26394   0.15907   0.58210   0.00000  Uiso   1.00
C756   C     0.14843   0.15951   0.90988   0.00000  Uiso   1.00
C757   C     0.18238   0.17800   0.59128   0.00000  Uiso   1.00
C758   C     0.13880   0.17374   0.95569   0.00000  Uiso   1.00
C759   C     0.19564   0.17524   0.54295   0.00000  Uiso   1.00
C760   C     0.09203   0.19138   0.98290   0.00000  Uiso   1.00
C761   C     0.11388   0.19925   0.54924   0.00000  Uiso   1.00
C762   C     0.24417   0.16268   0.51416   0.00000  Uiso   1.00
C763   C     0.17465   0.17143   0.97471   0.00000  Uiso   1.00
C764   C     0.16118   0.18206   0.52289   0.00000  Uiso   1.00
C765   C     0.01201   0.12333   0.63875   0.00000  Uiso   1.00
C766   C     0.32352   0.23677   0.85344   0.00000  Uiso   1.00
C767   C     0.05382   0.06118   0.70640   0.00000  Uiso   1.00
C768   C     0.22828   0.23591   0.83693   0.00000  Uiso   1.00
C769   C     0.22389   0.16029   0.94678   0.00000  Uiso   1.00
C770   C     0.08017   0.20402   0.52937   0.00000  Uiso   1.00
C771   C     0.25804   0.15659   0.96622   0.00000  Uiso   1.00
C772   C     0.21081   0.31081   0.73274   0.00000  Uiso   1.00
C773   C     0.12232   0.02265   0.76983   0.00000  Uiso   1.00
C774   C     0.21095   0.02027   0.73303   0.00000  Uiso   1.00
H775   H     0.04460   0.21776   0.55054   0.00000  Uiso   1.00
H776   H     0.23772   0.15520   0.90939   0.00000  Uiso   1.00
H777   H     0.24519   0.29344   0.71810   0.00000  Uiso   1.00
H778   H     0.08801   0.04008   0.78481   0.00000  Uiso   1.00
H779   H     0.24538   0.03575   0.71847   0.00000  Uiso   1.00
H780   H     0.08775   0.29764   0.78369   0.00000  Uiso   1.00
H781   H     0.27935   0.11073   0.69028   0.00000  Uiso   1.00
H782   H     0.00207   0.10367   0.61384   0.00000  Uiso   1.00
H783   H     0.05075   0.11621   0.63041   0.00000  Uiso   1.00
H784   H     0.00787   0.15699   0.63347   0.00000  Uiso   1.00
H785   H     0.05740   0.21971   0.80741   0.00000  Uiso   1.00
H786   H     0.29528   0.14781   0.94367   0.00000  Uiso   1.00
H787   H     0.00959   0.24320   0.87676   0.00000  Uiso   1.00
H788   H     0.29823   0.21113   0.86821   0.00000  Uiso   1.00
H789   H     0.30488   0.26677   0.85378   0.00000  Uiso   1.00
H790   H     0.09793   0.11050   0.67057   0.00000  Uiso   1.00
H791   H     0.08525   0.04014   0.70149   0.00000  Uiso   1.00
H792   H     0.04001   0.05181   0.67933   0.00000  Uiso   1.00
H793   H     0.02524   0.05720   0.74179   0.00000  Uiso   1.00
H794   H     0.28709   0.26174   0.78346   0.00000  Uiso   1.00
H795   H     0.19356   0.24086   0.83292   0.00000  Uiso   1.00
H796   H     0.23070   0.26327   0.85878   0.00000  Uiso   1.00
H797   H     0.14532   0.18494   0.61455   0.00000  Uiso   1.00
H798   H     0.22716   0.20722   0.85589   0.00000  Uiso   1.00
H799   H     0.18153   0.14231   0.88896   0.00000  Uiso   1.00
H800   H     0.29010   0.15269   0.59663   0.00000  Uiso   1.00
H801   H     0.04469   0.19175   0.90021   0.00000  Uiso   1.00
H802   H     0.02245   0.21108   0.98315   0.00000  Uiso   1.00
H803   H     0.31509   0.14540   0.51219   0.00000  Uiso   1.00
H804   H     0.10213   0.21096   0.58500   0.00000  Uiso   1.00
N805   N     0.04759   0.16668   0.75001   0.00000  Uiso   1.00
N806   N     0.28574   0.16666   0.74999   0.00000  Uiso   1.00
N807   N     0.31468   0.11360   0.68621   0.00000  Uiso   1.00
N808   N     0.02454   0.22577   0.80638   0.00000  Uiso   1.00
N809   N     0.06967   0.10392   0.70131   0.00000  Uiso   1.00
N810   N     0.26854   0.23427   0.79147   0.00000  Uiso   1.00
O811   O     0.12846   0.22775   0.75000   0.00000  Uiso   1.00
O812   O     0.20488   0.10558   0.74999   0.00000  Uiso   1.00
O813   O     0.20490   0.22774   0.75000   0.00000  Uiso   1.00
O814   O     0.12843   0.10559   0.75000   0.00000  Uiso   1.00
O815   O     0.10661   0.16667   0.81612   0.00000  Uiso   1.00
O816   O     0.22672   0.16666   0.68387   0.00000  Uiso   1.00
O817   O     0.18305   0.16666   0.81612   0.00000  Uiso   1.00
O818   O     0.15028   0.16667   0.68388   0.00000  Uiso   1.00
Zn819  Zn    0.11562   0.16667   0.75000   0.00000  Uiso   1.00
Zn820  Zn    0.21771   0.16666   0.75000   0.00000  Uiso   1.00
C821   C     0.49983   0.24655   0.75014   0.00000  Uiso   1.00
C822   C     0.45548   0.31314   0.76920   0.00000  Uiso   1.00
C823   C     0.50002   0.04263   0.75118   0.00000  Uiso   1.00
C824   C     0.49973   0.29078   0.75051   0.00000  Uiso   1.00
C825   C     0.65517   0.13858   0.72174   0.00000  Uiso   1.00
C826   C     0.34568   0.19575   0.77758   0.00000  Uiso   1.00
C827   C     0.36852   0.13683   0.72455   0.00000  Uiso   1.00
C828   C     0.63161   0.19700   0.77565   0.00000  Uiso   1.00
C829   C     0.46926   0.16611   0.83789   0.00000  Uiso   1.00
C830   C     0.53055   0.16728   0.66203   0.00000  Uiso   1.00
C831   C     0.44986   0.16870   0.88884   0.00000  Uiso   1.00
C832   C     0.50005   0.08681   0.75027   0.00000  Uiso   1.00
C833   C     0.54901   0.16890   0.61107   0.00000  Uiso   1.00
C834   C     0.39127   0.19684   0.96288   0.00000  Uiso   1.00
C835   C     0.61142   0.15540   0.53389   0.00000  Uiso   1.00
C836   C     0.40367   0.18580   0.91579   0.00000  Uiso   1.00
C837   C     0.59728   0.15907   0.58210   0.00000  Uiso   1.00
C838   C     0.48177   0.15951   0.90988   0.00000  Uiso   1.00
C839   C     0.51572   0.17800   0.59128   0.00000  Uiso   1.00
C840   C     0.47214   0.17374   0.95569   0.00000  Uiso   1.00
C841   C     0.52897   0.17524   0.54295   0.00000  Uiso   1.00
C842   C     0.42536   0.19138   0.98290   0.00000  Uiso   1.00
C843   C     0.44721   0.19925   0.54924   0.00000  Uiso   1.00
C844   C     0.57750   0.16268   0.51416   0.00000  Uiso   1.00
C845   C     0.50799   0.17143   0.97471   0.00000  Uiso   1.00
C846   C     0.49451   0.18206   0.52289   0.00000  Uiso   1.00
C847   C     0.34534   0.12333   0.63875   0.00000  Uiso   1.00
C848   C     0.65685   0.23677   0.85344   0.00000  Uiso   1.00
C849   C     0.38716   0.06118   0.70640   0.00000  Uiso   1.00
C850   C     0.56162   0.23591   0.83693   0.00000  Uiso   1.00
C851   C     0.55722   0.16029   0.94678   0.00000  Uiso   1.00
C852   C     0.41350   0.20402   0.52937   0.00000  Uiso   1.00
C853   C     0.59137   0.15659   0.96622   0.00000  Uiso   1.00
C854   C     0.54414   0.31081   0.73274   0.00000  Uiso   1.00
C855   C     0.45566   0.02265   0.76983   0.00000  Uiso   1.00
C856   C     0.54428   0.02027   0.73303   0.00000  Uiso   1.00
H857   H     0.37794   0.21776   0.55054   0.00000  Uiso   1.00
H858   H     0.57105   0.15520   0.90939   0.00000  Uiso   1.00
H859   H     0.57852   0.29344   0.71810   0.00000  Uiso   1.00
H860   H     0.42134   0.04008   0.78481   0.00000  Uiso   1.00
H861   H     0.57871   0.03575   0.71847   0.00000  Uiso   1.00
H862   H     0.42109   0.29764   0.78369   0.00000  Uiso   1.00
H863   H     0.61268   0.11073   0.69028   0.00000  Uiso   1.00
H864   H     0.33541   0.10367   0.61384   0.00000  Uiso   1.00
H865   H     0.38409   0.11621   0.63041   0.00000  Uiso   1.00
H866   H     0.34121   0.15699   0.63347   0.00000  Uiso   1.00
H867   H     0.39074   0.21971   0.80741   0.00000  Uiso   1.00
H868   H     0.62861   0.14781   0.94367   0.00000  Uiso   1.00
H869   H     0.34292   0.24320   0.87676   0.00000  Uiso   1.00
H870   H     0.63157   0.21113   0.86821   0.00000  Uiso   1.00
H871   H     0.63821   0.26677   0.85378   0.00000  Uiso   1.00
H872   H     0.43127   0.11050   0.67057   0.00000  Uiso   1.00
H873   H     0.41858   0.04014   0.70149   0.00000  Uiso   1.00
H874   H     0.37335   0.05181   0.67933   0.00000  Uiso   1.00
H875   H     0.35858   0.05720   0.74179   0.00000  Uiso   1.00
H876   H     0.62042   0.26174   0.78346   0.00000  Uiso   1.00
H877   H     0.52689   0.24086   0.83292   0.00000  Uiso   1.00
H878   H     0.56403   0.26327   0.85878   0.00000  Uiso   1.00
H879   H     0.47866   0.18494   0.61455   0.00000  Uiso   1.00
H880   H     0.56049   0.20722   0.85589   0.00000  Uiso   1.00
H881   H     0.51486   0.14231   0.88896   0.00000  Uiso   1.00
H882   H     0.62343   0.15269   0.59663   0.00000  Uiso   1.00
H883   H     0.37802   0.19175   0.90021   0.00000  Uiso   1.00
H884   H     0.35578   0.21108   0.98315   0.00000  Uiso   1.00
H885   H     0.64843   0.14540   0.51219   0.00000  Uiso   1.00
H886   H     0.43546   0.21096   0.58500   0.00000  Uiso   1.00
N887   N     0.38093   0.16668   0.75001   0.00000  Uiso   1.00
N888   N     0.61907   0.16666   0.74999   0.00000  Uiso   1.00
N889   N     0.64802   0.11360   0.68621   0.00000  Uiso   1.00
N890   N     0.35788   0.22577   0.80638   0.00000  Uiso   1.00
N891   N     0.40300   0.10392   0.70131   0.00000  Uiso   1.00
N892   N     0.60188   0.23427   0.79147   0.00000  Uiso   1.00
O893   O     0.46179   0.22775   0.75000   0.00000  Uiso   1.00
O894   O     0.53821   0.10558   0.74999   0.00000  Uiso   1.00
O895   O     0.53823   0.22774   0.75000   0.00000  Uiso   1.00
O896   O     0.46177   0.10559   0.75000   0.00000  Uiso   1.00
O897   O     0.43994   0.16667   0.81612   0.00000  Uiso   1.00
O898   O     0.56006   0.16666   0.68387   0.00000  Uiso   1.00
O899   O     0.51639   0.16666   0.81612   0.00000  Uiso   1.00
O900   O     0.48361   0.16667   0.68388   0.00000  Uiso   1.00
Zn901  Zn    0.44896   0.16667   0.75000   0.00000  Uiso   1.00
Zn902  Zn    0.55104   0.16666   0.75000   0.00000  Uiso   1.00
C903   C     0.83317   0.24655   0.75014   0.00000  Uiso   1.00
C904   C     0.78882   0.31314   0.76920   0.00000  Uiso   1.00
C905   C     0.83335   0.04263   0.75118   0.00000  Uiso   1.00
C906   C     0.83306   0.29078   0.75051   0.00000  Uiso   1.00
C907   C     0.98850   0.13858   0.72174   0.00000  Uiso   1.00
C908   C     0.67901   0.19575   0.77758   0.00000  Uiso   1.00
C909   C     0.70185   0.13683   0.72455   0.00000  Uiso   1.00
C910   C     0.96494   0.19700   0.77565   0.00000  Uiso   1.00
C911   C     0.80260   0.16611   0.83789   0.00000  Uiso   1.00
C912   C     0.86388   0.16728   0.66203   0.00000  Uiso   1.00
C913   C     0.78320   0.16870   0.88884   0.00000  Uiso   1.00
C914   C     0.83338   0.08681   0.75027   0.00000  Uiso   1.00
C915   C     0.88234   0.16890   0.61107   0.00000  Uiso   1.00
C916   C     0.72460   0.19684   0.96288   0.00000  Uiso   1.00
C917   C     0.94476   0.15540   0.53389   0.00000  Uiso   1.00
C918   C     0.73701   0.18580   0.91579   0.00000  Uiso   1.00
C919   C     0.93061   0.15907   0.58210   0.00000  Uiso   1.00
C920   C     0.81510   0.15951   0.90988   0.00000  Uiso   1.00
C921   C     0.84905   0.17800   0.59128   0.00000  Uiso   1.00
C922   C     0.80547   0.17374   0.95569   0.00000  Uiso   1.00
C923   C     0.86230   0.17524   0.54295   0.00000  Uiso   1.00
C924   C     0.75869   0.19138   0.98290   0.00000  Uiso   1.00
C925   C     0.78055   0.19925   0.54924   0.00000  Uiso   1.00
C926   C     0.91084   0.16268   0.51416   0.00000  Uiso   1.00
C927   C     0.84132   0.17143   0.97471   0.00000  Uiso   1.00
C928   C     0.82785   0.18206   0.52289   0.00000  Uiso   1.00
C929   C     0.67867   0.12333   0.63875   0.00000  Uiso   1.00
C930   C     0.99018   0.23677   0.85344   0.00000  Uiso   1.00
C931   C     0.72049   0.06118   0.70640   0.00000  Uiso   1.00
C932   C     0.89495   0.23591   0.83693   0.00000  Uiso   1.00
C933   C     0.89056   0.16029   0.94678   0.00000  Uiso   1.00
C934   C     0.74684   0.20402   0.52937   0.00000  Uiso   1.00
C935   C     0.92471   0.15659   0.96622   0.00000  Uiso   1.00
C936   C     0.87747   0.31081   0.73274   0.00000  Uiso   1.00
C937   C     0.78899   0.02265   0.76983   0.00000  Uiso   1.00
C938   C     0.87762   0.02027   0.73303   0.00000  Uiso   1.00
H939   H     0.71127   0.21776   0.55054   0.00000  Uiso   1.00
H940   H     0.90438   0.15520   0.90939   0.00000  Uiso   1.00
H941   H     0.91185   0.29344   0.71810   0.00000  Uiso   1.00
H942   H     0.75468   0.04008   0.78481   0.00000  Uiso   1.00
H943   H     0.91204   0.03575   0.71847   0.00000  Uiso   1.00
H944   H     0.75442   0.29764   0.78369   0.00000  Uiso   1.00
H945   H     0.94601   0.11073   0.69028   0.00000  Uiso   1.00
H946   H     0.66874   0.10367   0.61384   0.00000  Uiso   1.00
H947   H     0.71742   0.11621   0.63041   0.00000  Uiso   1.00
H948   H     0.67454   0.15699   0.63347   0.00000  Uiso   1.00
H949   H     0.72407   0.21971   0.80741   0.00000  Uiso   1.00
H950   H     0.96195   0.14781   0.94367   0.00000  Uiso   1.00
H951   H     0.67625   0.24320   0.87676   0.00000  Uiso   1.00
H952   H     0.96490   0.21113   0.86821   0.00000  Uiso   1.00
H953   H     0.97155   0.26677   0.85378   0.00000  Uiso   1.00
H954   H     0.76460   0.11050   0.67057   0.00000  Uiso   1.00
H955   H     0.75191   0.04014   0.70149   0.00000  Uiso   1.00
H956   H     0.70668   0.05181   0.67933   0.00000  Uiso   1.00
H957   H     0.69191   0.05720   0.74179   0.00000  Uiso   1.00
H958   H     0.95375   0.26174   0.78346   0.00000  Uiso   1.00
H959   H     0.86022   0.24086   0.83292   0.00000  Uiso   1.00
H960   H     0.89737   0.26327   0.85878   0.00000  Uiso   1.00
H961   H     0.81199   0.18494   0.61455   0.00000  Uiso   1.00
H962   H     0.89383   0.20722   0.85589   0.00000  Uiso   1.00
H963   H     0.84820   0.14231   0.88896   0.00000  Uiso   1.00
H964   H     0.95676   0.15269   0.59663   0.00000  Uiso   1.00
H965   H     0.71135   0.19175   0.90021   0.00000  Uiso   1.00
H966   H     0.68911   0.21108   0.98315   0.00000  Uiso   1.00
H967   H     0.98176   0.14540   0.51219   0.00000  Uiso   1.00
H968   H     0.76880   0.21096   0.58500   0.00000  Uiso   1.00
N969   N     0.71426   0.16668   0.75001   0.00000  Uiso   1.00
N970   N     0.95241   0.16666   0.74999   0.00000  Uiso   1.00
N971   N     0.98135   0.11360   0.68621   0.00000  Uiso   1.00
N972   N     0.69121   0.22577   0.80638   0.00000  Uiso   1.00
N973   N     0.73633   0.10392   0.70131   0.00000  Uiso   1.00
N974   N     0.93521   0.23427   0.79147   0.00000  Uiso   1.00
O975   O     0.79512   0.22775   0.75000   0.00000  Uiso   1.00
O976   O     0.87154   0.10558   0.74999   0.00000  Uiso   1.00
O977   O     0.87157   0.22774   0.75000   0.00000  Uiso   1.00
O978   O     0.79510   0.10559   0.75000   0.00000  Uiso   1.00
O979   O     0.77328   0.16667   0.81612   0.00000  Uiso   1.00
O980   O     0.89339   0.16666   0.68387   0.00000  Uiso   1.00
O981   O     0.84972   0.16666   0.81612   0.00000  Uiso   1.00
O982   O     0.81695   0.16667   0.68388   0.00000  Uiso   1.00
Zn983  Zn    0.78229   0.16667   0.75000   0.00000  Uiso   1.00
Zn984  Zn    0.88438   0.16666   0.75000   0.00000  Uiso   1.00
C985   C     0.16650   0.57988   0.75014   0.00000  Uiso   1.00
C986   C     0.12215   0.64647   0.76920   0.00000  Uiso   1.00
C987   C     0.16668   0.37597   0.75118   0.00000  Uiso   1.00
C988   C     0.16640   0.62411   0.75051   0.00000  Uiso   1.00
C989   C     0.32183   0.47192   0.72174   0.00000  Uiso   1.00
C990   C     0.01234   0.52908   0.77758   0.00000  Uiso   1.00
C991   C     0.03518   0.47016   0.72455   0.00000  Uiso   1.00
C992   C     0.29828   0.53033   0.77565   0.00000  Uiso   1.00
C993   C     0.13593   0.49944   0.83789   0.00000  Uiso   1.00
C994   C     0.19722   0.50062   0.66203   0.00000  Uiso   1.00
C995   C     0.11653   0.50203   0.88884   0.00000  Uiso   1.00
C996   C     0.16671   0.42014   0.75027   0.00000  Uiso   1.00
C997   C     0.21567   0.50224   0.61107   0.00000  Uiso   1.00
C998   C     0.05794   0.53017   0.96288   0.00000  Uiso   1.00
C999   C     0.27809   0.48873   0.53389   0.00000  Uiso   1.00
C1000  C     0.07034   0.51914   0.91579   0.00000  Uiso   1.00
C1001  C     0.26394   0.49241   0.58210   0.00000  Uiso   1.00
C1002  C     0.14843   0.49284   0.90988   0.00000  Uiso   1.00
C1003  C     0.18238   0.51133   0.59128   0.00000  Uiso   1.00
C1004  C     0.13880   0.50707   0.95569   0.00000  Uiso   1.00
C1005  C     0.19564   0.50858   0.54295   0.00000  Uiso   1.00
C1006  C     0.09203   0.52471   0.98290   0.00000  Uiso   1.00
C1007  C     0.11388   0.53259   0.54924   0.00000  Uiso   1.00
C1008  C     0.24417   0.49601   0.51416   0.00000  Uiso   1.00
C1009  C     0.17465   0.50477   0.97471   0.00000  Uiso   1.00
C1010  C     0.16118   0.51539   0.52289   0.00000  Uiso   1.00
C1011  C     0.01201   0.45666   0.63875   0.00000  Uiso   1.00
C1012  C     0.32352   0.57010   0.85344   0.00000  Uiso   1.00
C1013  C     0.05382   0.39452   0.70640   0.00000  Uiso   1.00
C1014  C     0.22828   0.56924   0.83693   0.00000  Uiso   1.00
C1015  C     0.22389   0.49362   0.94678   0.00000  Uiso   1.00
C1016  C     0.08017   0.53735   0.52937   0.00000  Uiso   1.00
C1017  C     0.25804   0.48992   0.96622   0.00000  Uiso   1.00
C1018  C     0.21081   0.64414   0.73274   0.00000  Uiso   1.00
C1019  C     0.12232   0.35598   0.76983   0.00000  Uiso   1.00
C1020  C     0.21095   0.35361   0.73303   0.00000  Uiso   1.00
H1021  H     0.04460   0.55109   0.55054   0.00000  Uiso   1.00
H1022  H     0.23772   0.48853   0.90939   0.00000  Uiso   1.00
H1023  H     0.24519   0.62678   0.71810   0.00000  Uiso   1.00
H1024  H     0.08801   0.37341   0.78481   0.00000  Uiso   1.00
H1025  H     0.24538   0.36908   0.71847   0.00000  Uiso   1.00
H1026  H     0.08775   0.63097   0.78369   0.00000  Uiso   1.00
H1027  H     0.27935   0.44406   0.69028   0.00000  Uiso   1.00
H1028  H     0.00207   0.43701   0.61384   0.00000  Uiso   1.00
H1029  H     0.05075   0.44955   0.63041   0.00000  Uiso   1.00
H1030  H     0.00787   0.49033   0.63347   0.00000  Uiso   1.00
H1031  H     0.05740   0.55305   0.80741   0.00000  Uiso   1.00
H1032  H     0.29528   0.48115   0.94367   0.00000  Uiso   1.00
H1033  H     0.00959   0.57653   0.87676   0.00000  Uiso   1.00
H1034  H     0.29823   0.54446   0.86821   0.00000  Uiso   1.00
H1035  H     0.30488   0.60010   0.85378   0.00000  Uiso   1.00
H1036  H     0.09793   0.44383   0.67057   0.00000  Uiso   1.00
H1037  H     0.08525   0.37347   0.70149   0.00000  Uiso   1.00
H1038  H     0.04001   0.38514   0.67933   0.00000  Uiso   1.00
H1039  H     0.02524   0.39053   0.74179   0.00000  Uiso   1.00
H1040  H     0.28709   0.59507   0.78346   0.00000  Uiso   1.00
H1041  H     0.19356   0.57419   0.83292   0.00000  Uiso   1.00
H1042  H     0.23070   0.59661   0.85878   0.00000  Uiso   1.00
H1043  H     0.14532   0.51828   0.61455   0.00000  Uiso   1.00
H1044  H     0.22716   0.54055   0.85589   0.00000  Uiso   1.00
H1045  H     0.18153   0.47564   0.88896   0.00000  Uiso   1.00
H1046  H     0.29010   0.48602   0.59663   0.00000  Uiso   1.00
H1047  H     0.04469   0.52508   0.90021   0.00000  Uiso   1.00
H1048  H     0.02245   0.54441   0.98315   0.00000  Uiso   1.00
H1049  H     0.31509   0.47873   0.51219   0.00000  Uiso   1.00
H1050  H     0.10213   0.54429   0.58500   0.00000  Uiso   1.00
N1051  N     0.04759   0.50001   0.75001   0.00000  Uiso   1.00
N1052  N     0.28574   0.49999   0.74999   0.00000  Uiso   1.00
N1053  N     0.31468   0.44694   0.68621   0.00000  Uiso   1.00
N1054  N     0.02454   0.55911   0.80638   0.00000  Uiso   1.00
N1055  N     0.06967   0.43726   0.70131   0.00000  Uiso   1.00
N1056  N     0.26854   0.56760   0.79147   0.00000  Uiso   1.00
O1057  O     0.12846   0.56108   0.75000   0.00000  Uiso   1.00
O1058  O     0.20488   0.43892   0.74999   0.00000  Uiso   1.00
O1059  O     0.20490   0.56107   0.75000   0.00000  Uiso   1.00
O1060  O     0.12843   0.43893   0.75000   0.00000  Uiso   1.00
O1061  O     0.10661   0.50001   0.81612   0.00000  Uiso   1.00
O1062  O     0.22672   0.49999   0.68387   0.00000  Uiso   1.00
O1063  O     0.18305   0.50000   0.81612   0.00000  Uiso   1.00
O1064  O     0.15028   0.50000   0.68388   0.00000  Uiso   1.00
Zn1065 Zn    0.11562   0.50001   0.75000   0.00000  Uiso   1.00
Zn1066 Zn    0.21771   0.49999   0.75000   0.00000  Uiso   1.00
C1067  C     0.49983   0.57988   0.75014   0.00000  Uiso   1.00
C1068  C     0.45548   0.64647   0.76920   0.00000  Uiso   1.00
C1069  C     0.50002   0.37597   0.75118   0.00000  Uiso   1.00
C1070  C     0.49973   0.62411   0.75051   0.00000  Uiso   1.00
C1071  C     0.65517   0.47192   0.72174   0.00000  Uiso   1.00
C1072  C     0.34568   0.52908   0.77758   0.00000  Uiso   1.00
C1073  C     0.36852   0.47016   0.72455   0.00000  Uiso   1.00
C1074  C     0.63161   0.53033   0.77565   0.00000  Uiso   1.00
C1075  C     0.46926   0.49944   0.83789   0.00000  Uiso   1.00
C1076  C     0.53055   0.50062   0.66203   0.00000  Uiso   1.00
C1077  C     0.44986   0.50203   0.88884   0.00000  Uiso   1.00
C1078  C     0.50005   0.42014   0.75027   0.00000  Uiso   1.00
C1079  C     0.54901   0.50224   0.61107   0.00000  Uiso   1.00
C1080  C     0.39127   0.53017   0.96288   0.00000  Uiso   1.00
C1081  C     0.61142   0.48873   0.53389   0.00000  Uiso   1.00
C1082  C     0.40367   0.51914   0.91579   0.00000  Uiso   1.00
C1083  C     0.59728   0.49241   0.58210   0.00000  Uiso   1.00
C1084  C     0.48177   0.49284   0.90988   0.00000  Uiso   1.00
C1085  C     0.51572   0.51133   0.59128   0.00000  Uiso   1.00
C1086  C     0.47214   0.50707   0.95569   0.00000  Uiso   1.00
C1087  C     0.52897   0.50858   0.54295   0.00000  Uiso   1.00
C1088  C     0.42536   0.52471   0.98290   0.00000  Uiso   1.00
C1089  C     0.44721   0.53259   0.54924   0.00000  Uiso   1.00
C1090  C     0.57750   0.49601   0.51416   0.00000  Uiso   1.00
C1091  C     0.50799   0.50477   0.97471   0.00000  Uiso   1.00
C1092  C     0.49451   0.51539   0.52289   0.00000  Uiso   1.00
C1093  C     0.34534   0.45666   0.63875   0.00000  Uiso   1.00
C1094  C     0.65685   0.57010   0.85344   0.00000  Uiso   1.00
C1095  C     0.38716   0.39452   0.70640   0.00000  Uiso   1.00
C1096  C     0.56162   0.56924   0.83693   0.00000  Uiso   1.00
C1097  C     0.55722   0.49362   0.94678   0.00000  Uiso   1.00
C1098  C     0.41350   0.53735   0.52937   0.00000  Uiso   1.00
C1099  C     0.59137   0.48992   0.96622   0.00000  Uiso   1.00
C1100  C     0.54414   0.64414   0.73274   0.00000  Uiso   1.00
C1101  C     0.45566   0.35598   0.76983   0.00000  Uiso   1.00
C1102  C     0.54428   0.35361   0.73303   0.00000  Uiso   1.00
H1103  H     0.37794   0.55109   0.55054   0.00000  Uiso   1.00
H1104  H     0.57105   0.48853   0.90939   0.00000  Uiso   1.00
H1105  H     0.57852   0.62678   0.71810   0.00000  Uiso   1.00
H1106  H     0.42134   0.37341   0.78481   0.00000  Uiso   1.00
H1107  H     0.57871   0.36908   0.71847   0.00000  Uiso   1.00
H1108  H     0.42109   0.63097   0.78369   0.00000  Uiso   1.00
H1109  H     0.61268   0.44406   0.69028   0.00000  Uiso   1.00
H1110  H     0.33541   0.43701   0.61384   0.00000  Uiso   1.00
H1111  H     0.38409   0.44955   0.63041   0.00000  Uiso   1.00
H1112  H     0.34121   0.49033   0.63347   0.00000  Uiso   1.00
H1113  H     0.39074   0.55305   0.80741   0.00000  Uiso   1.00
H1114  H     0.62861   0.48115   0.94367   0.00000  Uiso   1.00
H1115  H     0.34292   0.57653   0.87676   0.00000  Uiso   1.00
H1116  H     0.63157   0.54446   0.86821   0.00000  Uiso   1.00
H1117  H     0.63821   0.60010   0.85378   0.00000  Uiso   1.00
H1118  H     0.43127   0.44383   0.67057   0.00000  Uiso   1.00
H1119  H     0.41858   0.37347   0.70149   0.00000  Uiso   1.00
H1120  H     0.37335   0.38514   0.67933   0.00000  Uiso   1.00
H1121  H     0.35858   0.39053   0.74179   0.00000  Uiso   1.00
H1122  H     0.62042   0.59507   0.78346   0.00000  Uiso   1.00
H1123  H     0.52689   0.57419   0.83292   0.00000  Uiso   1.00
H1124  H     0.56403   0.59661   0.85878   0.00000  Uiso   1.00
H1125  H     0.47866   0.51828   0.61455   0.00000  Uiso   1.00
H1126  H     0.56049   0.54055   0.85589   0.00000  Uiso   1.00
H1127  H     0.51486   0.47564   0.88896   0.00000  Uiso   1.00
H1128  H     0.62343   0.48602   0.59663   0.00000  Uiso   1.00
H1129  H     0.37802   0.52508   0.90021   0.00000  Uiso   1.00
H1130  H     0.35578   0.54441   0.98315   0.00000  Uiso   1.00
H1131  H     0.64843   0.47873   0.51219   0.00000  Uiso   1.00
H1132  H     0.43546   0.54429   0.58500   0.00000  Uiso   1.00
N1133  N     0.38093   0.50001   0.75001   0.00000  Uiso   1.00
N1134  N     0.61907   0.49999   0.74999   0.00000  Uiso   1.00
N1135  N     0.64802   0.44694   0.68621   0.00000  Uiso   1.00
N1136  N     0.35788   0.55911   0.80638   0.00000  Uiso   1.00
N1137  N     0.40300   0.43726   0.70131   0.00000  Uiso   1.00
N1138  N     0.60188   0.56760   0.79147   0.00000  Uiso   1.00
O1139  O     0.46179   0.56108   0.75000   0.00000  Uiso   1.00
O1140  O     0.53821   0.43892   0.74999   0.00000  Uiso   1.00
O1141  O     0.53823   0.56107   0.75000   0.00000  Uiso   1.00
O1142  O     0.46177   0.43893   0.75000   0.00000  Uiso   1.00
O1143  O     0.43994   0.50001   0.81612   0.00000  Uiso   1.00
O1144  O     0.56006   0.49999   0.68387   0.00000  Uiso   1.00
O1145  O     0.51639   0.50000   0.81612   0.00000  Uiso   1.00
O1146  O     0.48361   0.50000   0.68388   0.00000  Uiso   1.00
Zn1147 Zn    0.44896   0.50001   0.75000   0.00000  Uiso   1.00
Zn1148 Zn    0.55104   0.49999   0.75000   0.00000  Uiso   1.00
C1149  C     0.83317   0.57988   0.75014   0.00000  Uiso   1.00
C1150  C     0.78882   0.64647   0.76920   0.00000  Uiso   1.00
C1151  C     0.83335   0.37597   0.75118   0.00000  Uiso   1.00
C1152  C     0.83306   0.62411   0.75051   0.00000  Uiso   1.00
C1153  C     0.98850   0.47192   0.72174   0.00000  Uiso   1.00
C1154  C     0.67901   0.52908   0.77758   0.00000  Uiso   1.00
C1155  C     0.70185   0.47016   0.72455   0.00000  Uiso   1.00
C1156  C     0.96494   0.53033   0.77565   0.00000  Uiso   1.00
C1157  C     0.80260   0.49944   0.83789   0.00000  Uiso   1.00
C1158  C     0.86388   0.50062   0.66203   0.00000  Uiso   1.00
C1159  C     0.78320   0.50203   0.88884   0.00000  Uiso   1.00
C1160  C     0.83338   0.42014   0.75027   0.00000  Uiso   1.00
C1161  C     0.88234   0.50224   0.61107   0.00000  Uiso   1.00
C1162  C     0.72460   0.53017   0.96288   0.00000  Uiso   1.00
C1163  C     0.94476   0.48873   0.53389   0.00000  Uiso   1.00
C1164  C     0.73701   0.51914   0.91579   0.00000  Uiso   1.00
C1165  C     0.93061   0.49241   0.58210   0.00000  Uiso   1.00
C1166  C     0.81510   0.49284   0.90988   0.00000  Uiso   1.00
C1167  C     0.84905   0.51133   0.59128   0.00000  Uiso   1.00
C1168  C     0.80547   0.50707   0.95569   0.00000  Uiso   1.00
C1169  C     0.86230   0.50858   0.54295   0.00000  Uiso   1.00
C1170  C     0.75869   0.52471   0.98290   0.00000  Uiso   1.00
C1171  C     0.78055   0.53259   0.54924   0.00000  Uiso   1.00
C1172  C     0.91084   0.49601   0.51416   0.00000  Uiso   1.00
C1173  C     0.84132   0.50477   0.97471   0.00000  Uiso   1.00
C1174  C     0.82785   0.51539   0.52289   0.00000  Uiso   1.00
C1175  C     0.67867   0.45666   0.63875   0.00000  Uiso   1.00
C1176  C     0.99018   0.57010   0.85344   0.00000  Uiso   1.00
C1177  C     0.72049   0.39452   0.70640   0.00000  Uiso   1.00
C1178  C     0.89495   0.56924   0.83693   0.00000  Uiso   1.00
C1179  C     0.89056   0.49362   0.94678   0.00000  Uiso   1.00
C1180  C     0.74684   0.53735   0.52937   0.00000  Uiso   1.00
C1181  C     0.92471   0.48992   0.96622   0.00000  Uiso   1.00
C1182  C     0.87747   0.64414   0.73274   0.00000  Uiso   1.00
C1183  C     0.78899   0.35598   0.76983   0.00000  Uiso   1.00
C1184  C     0.87762   0.35361   0.73303   0.00000  Uiso   1.00
H1185  H     0.71127   0.55109   0.55054   0.00000  Uiso   1.00
H1186  H     0.90438   0.48853   0.90939   0.00000  Uiso   1.00
H1187  H     0.91185   0.62678   0.71810   0.00000  Uiso   1.00
H1188  H     0.75468   0.37341   0.78481   0.00000  Uiso   1.00
H1189  H     0.91204   0.36908   0.71847   0.00000  Uiso   1.00
H1190  H     0.75442   0.63097   0.78369   0.00000  Uiso   1.00
H1191  H     0.94601   0.44406   0.69028   0.00000  Uiso   1.00
H1192  H     0.66874   0.43701   0.61384   0.00000  Uiso   1.00
H1193  H     0.71742   0.44955   0.63041   0.00000  Uiso   1.00
H1194  H     0.67454   0.49033   0.63347   0.00000  Uiso   1.00
H1195  H     0.72407   0.55305   0.80741   0.00000  Uiso   1.00
H1196  H     0.96195   0.48115   0.94367   0.00000  Uiso   1.00
H1197  H     0.67625   0.57653   0.87676   0.00000  Uiso   1.00
H1198  H     0.96490   0.54446   0.86821   0.00000  Uiso   1.00
H1199  H     0.97155   0.60010   0.85378   0.00000  Uiso   1.00
H1200  H     0.76460   0.44383   0.67057   0.00000  Uiso   1.00
H1201  H     0.75191   0.37347   0.70149   0.00000  Uiso   1.00
H1202  H     0.70668   0.38514   0.67933   0.00000  Uiso   1.00
H1203  H     0.69191   0.39053   0.74179   0.00000  Uiso   1.00
H1204  H     0.95375   0.59507   0.78346   0.00000  Uiso   1.00
H1205  H     0.86022   0.57419   0.83292   0.00000  Uiso   1.00
H1206  H     0.89737   0.59661   0.85878   0.00000  Uiso   1.00
H1207  H     0.81199   0.51828   0.61455   0.00000  Uiso   1.00
H1208  H     0.89383   0.54055   0.85589   0.00000  Uiso   1.00
H1209  H     0.84820   0.47564   0.88896   0.00000  Uiso   1.00
H1210  H     0.95676   0.48602   0.59663   0.00000  Uiso   1.00
H1211  H     0.71135   0.52508   0.90021   0.00000  Uiso   1.00
H1212  H     0.68911   0.54441   0.98315   0.00000  Uiso   1.00
H1213  H     0.98176   0.47873   0.51219   0.00000  Uiso   1.00
H1214  H     0.76880   0.54429   0.58500   0.00000  Uiso   1.00
N1215  N     0.71426   0.50001   0.75001   0.00000  Uiso   1.00
N1216  N     0.95241   0.49999   0.74999   0.00000  Uiso   1.00
N1217  N     0.98135   0.44694   0.68621   0.00000  Uiso   1.00
N1218  N     0.69121   0.55911   0.80638   0.00000  Uiso   1.00
N1219  N     0.73633   0.43726   0.70131   0.00000  Uiso   1.00
N1220  N     0.93521   0.56760   0.79147   0.00000  Uiso   1.00
O1221  O     0.79512   0.56108   0.75000   0.00000  Uiso   1.00
O1222  O     0.87154   0.43892   0.74999   0.00000  Uiso   1.00
O1223  O     0.87157   0.56107   0.75000   0.00000  Uiso   1.00
O1224  O     0.79510   0.43893   0.75000   0.00000  Uiso   1.00
O1225  O     0.77328   0.50001   0.81612   0.00000  Uiso   1.00
O1226  O     0.89339   0.49999   0.68387   0.00000  Uiso   1.00
O1227  O     0.84972   0.50000   0.81612   0.00000  Uiso   1.00
O1228  O     0.81695   0.50000   0.68388   0.00000  Uiso   1.00
Zn1229 Zn    0.78229   0.50001   0.75000   0.00000  Uiso   1.00
Zn1230 Zn    0.88438   0.49999   0.75000   0.00000  Uiso   1.00
C1231  C     0.16650   0.91321   0.75014   0.00000  Uiso   1.00
C1232  C     0.12215   0.97981   0.76920   0.00000  Uiso   1.00
C1233  C     0.16668   0.70930   0.75118   0.00000  Uiso   1.00
C1234  C     0.16640   0.95744   0.75051   0.00000  Uiso   1.00
C1235  C     0.32183   0.80525   0.72174   0.00000  Uiso   1.00
C1236  C     0.01234   0.86242   0.77758   0.00000  Uiso   1.00
C1237  C     0.03518   0.80350   0.72455   0.00000  Uiso   1.00
C1238  C     0.29828   0.86367   0.77565   0.00000  Uiso   1.00
C1239  C     0.13593   0.83277   0.83789   0.00000  Uiso   1.00
C1240  C     0.19722   0.83395   0.66203   0.00000  Uiso   1.00
C1241  C     0.11653   0.83536   0.88884   0.00000  Uiso   1.00
C1242  C     0.16671   0.75347   0.75027   0.00000  Uiso   1.00
C1243  C     0.21567   0.83557   0.61107   0.00000  Uiso   1.00
C1244  C     0.05794   0.86350   0.96288   0.00000  Uiso   1.00
C1245  C     0.27809   0.82206   0.53389   0.00000  Uiso   1.00
C1246  C     0.07034   0.85247   0.91579   0.00000  Uiso   1.00
C1247  C     0.26394   0.82574   0.58210   0.00000  Uiso   1.00
C1248  C     0.14843   0.82617   0.90988   0.00000  Uiso   1.00
C1249  C     0.18238   0.84466   0.59128   0.00000  Uiso   1.00
C1250  C     0.13880   0.84041   0.95569   0.00000  Uiso   1.00
C1251  C     0.19564   0.84191   0.54295   0.00000  Uiso   1.00
C1252  C     0.09203   0.85805   0.98290   0.00000  Uiso   1.00
C1253  C     0.11388   0.86592   0.54924   0.00000  Uiso   1.00
C1254  C     0.24417   0.82934   0.51416   0.00000  Uiso   1.00
C1255  C     0.17465   0.83810   0.97471   0.00000  Uiso   1.00
C1256  C     0.16118   0.84873   0.52289   0.00000  Uiso   1.00
C1257  C     0.01201   0.78999   0.63875   0.00000  Uiso   1.00
C1258  C     0.32352   0.90344   0.85344   0.00000  Uiso   1.00
C1259  C     0.05382   0.72785   0.70640   0.00000  Uiso   1.00
C1260  C     0.22828   0.90257   0.83693   0.00000  Uiso   1.00
C1261  C     0.22389   0.82695   0.94678   0.00000  Uiso   1.00
C1262  C     0.08017   0.87068   0.52937   0.00000  Uiso   1.00
C1263  C     0.25804   0.82325   0.96622   0.00000  Uiso   1.00
C1264  C     0.21081   0.97747   0.73274   0.00000  Uiso   1.00
C1265  C     0.12232   0.68931   0.76983   0.00000  Uiso   1.00
C1266  C     0.21095   0.68694   0.73303   0.00000  Uiso   1.00
H1267  H     0.04460   0.88442   0.55054   0.00000  Uiso   1.00
H1268  H     0.23772   0.82186   0.90939   0.00000  Uiso   1.00
H1269  H     0.24519   0.96011   0.71810   0.00000  Uiso   1.00
H1270  H     0.08801   0.70675   0.78481   0.00000  Uiso   1.00
H1271  H     0.24538   0.70242   0.71847   0.00000  Uiso   1.00
H1272  H     0.08775   0.96430   0.78369   0.00000  Uiso   1.00
H1273  H     0.27935   0.77739   0.69028   0.00000  Uiso   1.00
H1274  H     0.00207   0.77034   0.61384   0.00000  Uiso   1.00
H1275  H     0.05075   0.78288   0.63041   0.00000  Uiso   1.00
H1276  H     0.00787   0.82366   0.63347   0.00000  Uiso   1.00
H1277  H     0.05740   0.88638   0.80741   0.00000  Uiso   1.00
H1278  H     0.29528   0.81448   0.94367   0.00000  Uiso   1.00
H1279  H     0.00959   0.90986   0.87676   0.00000  Uiso   1.00
H1280  H     0.29823   0.87779   0.86821   0.00000  Uiso   1.00
H1281  H     0.30488   0.93344   0.85378   0.00000  Uiso   1.00
H1282  H     0.09793   0.77716   0.67057   0.00000  Uiso   1.00
H1283  H     0.08525   0.70680   0.70149   0.00000  Uiso   1.00
H1284  H     0.04001   0.71847   0.67933   0.00000  Uiso   1.00
H1285  H     0.02524   0.72386   0.74179   0.00000  Uiso   1.00
H1286  H     0.28709   0.92841   0.78346   0.00000  Uiso   1.00
H1287  H     0.19356   0.90753   0.83292   0.00000  Uiso   1.00
H1288  H     0.23070   0.92994   0.85878   0.00000  Uiso   1.00
H1289  H     0.14532   0.85161   0.61455   0.00000  Uiso   1.00
H1290  H     0.22716   0.87389   0.85589   0.00000  Uiso   1.00
H1291  H     0.18153   0.80898   0.88896   0.00000  Uiso   1.00
H1292  H     0.29010   0.81936   0.59663   0.00000  Uiso   1.00
H1293  H     0.04469   0.85842   0.90021   0.00000  Uiso   1.00
H1294  H     0.02245   0.87774   0.98315   0.00000  Uiso   1.00
H1295  H     0.31509   0.81207   0.51219   0.00000  Uiso   1.00
H1296  H     0.10213   0.87762   0.58500   0.00000  Uiso   1.00
N1297  N     0.04759   0.83334   0.75001   0.00000  Uiso   1.00
N1298  N     0.28574   0.83332   0.74999   0.00000  Uiso   1.00
N1299  N     0.31468   0.78027   0.68621   0.00000  Uiso   1.00
N1300  N     0.02454   0.89244   0.80638   0.00000  Uiso   1.00
N1301  N     0.06967   0.77059   0.70131   0.00000  Uiso   1.00
N1302  N     0.26854   0.90093   0.79147   0.00000  Uiso   1.00
O1303  O     0.12846   0.89442   0.75000   0.00000  Uiso   1.00
O1304  O     0.20488   0.77225   0.74999   0.00000  Uiso   1.00
O1305  O     0.20490   0.89441   0.75000   0.00000  Uiso   1.00
O1306  O     0.12843   0.77226   0.75000   0.00000  Uiso   1.00
O1307  O     0.10661   0.83334   0.81612   0.00000  Uiso   1.00
O1308  O     0.22672   0.83333   0.68387   0.00000  Uiso   1.00
O1309  O     0.18305   0.83333   0.81612   0.00000  Uiso   1.00
O1310  O     0.15028   0.83334   0.68388   0.00000  Uiso   1.00
Zn1311 Zn    0.11562   0.83334   0.75000   0.00000  Uiso   1.00
Zn1312 Zn    0.21771   0.83333   0.75000   0.00000  Uiso   1.00
C1313  C     0.49983   0.91321   0.75014   0.00000  Uiso   1.00
C1314  C     0.45548   0.97981   0.76920   0.00000  Uiso   1.00
C1315  C     0.50002   0.70930   0.75118   0.00000  Uiso   1.00
C1316  C     0.49973   0.95744   0.75051   0.00000  Uiso   1.00
C1317  C     0.65517   0.80525   0.72174   0.00000  Uiso   1.00
C1318  C     0.34568   0.86242   0.77758   0.00000  Uiso   1.00
C1319  C     0.36852   0.80350   0.72455   0.00000  Uiso   1.00
C1320  C     0.63161   0.86367   0.77565   0.00000  Uiso   1.00
C1321  C     0.46926   0.83277   0.83789   0.00000  Uiso   1.00
C1322  C     0.53055   0.83395   0.66203   0.00000  Uiso   1.00
C1323  C     0.44986   0.83536   0.88884   0.00000  Uiso   1.00
C1324  C     0.50005   0.75347   0.75027   0.00000  Uiso   1.00
C1325  C     0.54901   0.83557   0.61107   0.00000  Uiso   1.00
C1326  C     0.39127   0.86350   0.96288   0.00000  Uiso   1.00
C1327  C     0.61142   0.82206   0.53389   0.00000  Uiso   1.00
C1328  C     0.40367   0.85247   0.91579   0.00000  Uiso   1.00
C1329  C     0.59728   0.82574   0.58210   0.00000  Uiso   1.00
C1330  C     0.48177   0.82617   0.90988   0.00000  Uiso   1.00
C1331  C     0.51572   0.84466   0.59128   0.00000  Uiso   1.00
C1332  C     0.47214   0.84041   0.95569   0.00000  Uiso   1.00
C1333  C     0.52897   0.84191   0.54295   0.00000  Uiso   1.00
C1334  C     0.42536   0.85805   0.98290   0.00000  Uiso   1.00
C1335  C     0.44721   0.86592   0.54924   0.00000  Uiso   1.00
C1336  C     0.57750   0.82934   0.51416   0.00000  Uiso   1.00
C1337  C     0.50799   0.83810   0.97471   0.00000  Uiso   1.00
C1338  C     0.49451   0.84873   0.52289   0.00000  Uiso   1.00
C1339  C     0.34534   0.78999   0.63875   0.00000  Uiso   1.00
C1340  C     0.65685   0.90344   0.85344   0.00000  Uiso   1.00
C1341  C     0.38716   0.72785   0.70640   0.00000  Uiso   1.00
C1342  C     0.56162   0.90257   0.83693   0.00000  Uiso   1.00
C1343  C     0.55722   0.82695   0.94678   0.00000  Uiso   1.00
C1344  C     0.41350   0.87068   0.52937   0.00000  Uiso   1.00
C1345  C     0.59137   0.82325   0.96622   0.00000  Uiso   1.00
C1346  C     0.54414   0.97747   0.73274   0.00000  Uiso   1.00
C1347  C     0.45566   0.68931   0.76983   0.00000  Uiso   1.00
C1348  C     0.54428   0.68694   0.73303   0.00000  Uiso   1.00
H1349  H     0.37794   0.88442   0.55054   0.00000  Uiso   1.00
H1350  H     0.57105   0.82186   0.90939   0.00000  Uiso   1.00
H1351  H     0.57852   0.96011   0.71810   0.00000  Uiso   1.00
H1352  H     0.42134   0.70675   0.78481   0.00000  Uiso   1.00
H1353  H     0.57871   0.70242   0.71847   0.00000  Uiso   1.00
H1354  H     0.42109   0.96430   0.78369   0.00000  Uiso   1.00
H1355  H     0.61268   0.77739   0.69028   0.00000  Uiso   1.00
H1356  H     0.33541   0.77034   0.61384   0.00000  Uiso   1.00
H1357  H     0.38409   0.78288   0.63041   0.00000  Uiso   1.00
H1358  H     0.34121   0.82366   0.63347   0.00000  Uiso   1.00
H1359  H     0.39074   0.88638   0.80741   0.00000  Uiso   1.00
H1360  H     0.62861   0.81448   0.94367   0.00000  Uiso   1.00
H1361  H     0.34292   0.90986   0.87676   0.00000  Uiso   1.00
H1362  H     0.63157   0.87779   0.86821   0.00000  Uiso   1.00
H1363  H     0.63821   0.93344   0.85378   0.00000  Uiso   1.00
H1364  H     0.43127   0.77716   0.67057   0.00000  Uiso   1.00
H1365  H     0.41858   0.70680   0.70149   0.00000  Uiso   1.00
H1366  H     0.37335   0.71847   0.67933   0.00000  Uiso   1.00
H1367  H     0.35858   0.72386   0.74179   0.00000  Uiso   1.00
H1368  H     0.62042   0.92841   0.78346   0.00000  Uiso   1.00
H1369  H     0.52689   0.90753   0.83292   0.00000  Uiso   1.00
H1370  H     0.56403   0.92994   0.85878   0.00000  Uiso   1.00
H1371  H     0.47866   0.85161   0.61455   0.00000  Uiso   1.00
H1372  H     0.56049   0.87389   0.85589   0.00000  Uiso   1.00
H1373  H     0.51486   0.80898   0.88896   0.00000  Uiso   1.00
H1374  H     0.62343   0.81936   0.59663   0.00000  Uiso   1.00
H1375  H     0.37802   0.85842   0.90021   0.00000  Uiso   1.00
H1376  H     0.35578   0.87774   0.98315   0.00000  Uiso   1.00
H1377  H     0.64843   0.81207   0.51219   0.00000  Uiso   1.00
H1378  H     0.43546   0.87762   0.58500   0.00000  Uiso   1.00
N1379  N     0.38093   0.83334   0.75001   0.00000  Uiso   1.00
N1380  N     0.61907   0.83332   0.74999   0.00000  Uiso   1.00
N1381  N     0.64802   0.78027   0.68621   0.00000  Uiso   1.00
N1382  N     0.35788   0.89244   0.80638   0.00000  Uiso   1.00
N1383  N     0.40300   0.77059   0.70131   0.00000  Uiso   1.00
N1384  N     0.60188   0.90093   0.79147   0.00000  Uiso   1.00
O1385  O     0.46179   0.89442   0.75000   0.00000  Uiso   1.00
O1386  O     0.53821   0.77225   0.74999   0.00000  Uiso   1.00
O1387  O     0.53823   0.89441   0.75000   0.00000  Uiso   1.00
O1388  O     0.46177   0.77226   0.75000   0.00000  Uiso   1.00
O1389  O     0.43994   0.83334   0.81612   0.00000  Uiso   1.00
O1390  O     0.56006   0.83333   0.68387   0.00000  Uiso   1.00
O1391  O     0.51639   0.83333   0.81612   0.00000  Uiso   1.00
O1392  O     0.48361   0.83334   0.68388   0.00000  Uiso   1.00
Zn1393 Zn    0.44896   0.83334   0.75000   0.00000  Uiso   1.00
Zn1394 Zn    0.55104   0.83333   0.75000   0.00000  Uiso   1.00
C1395  C     0.83317   0.91321   0.75014   0.00000  Uiso   1.00
C1396  C     0.78882   0.97981   0.76920   0.00000  Uiso   1.00
C1397  C     0.83335   0.70930   0.75118   0.00000  Uiso   1.00
C1398  C     0.83306   0.95744   0.75051   0.00000  Uiso   1.00
C1399  C     0.98850   0.80525   0.72174   0.00000  Uiso   1.00
C1400  C     0.67901   0.86242   0.77758   0.00000  Uiso   1.00
C1401  C     0.70185   0.80350   0.72455   0.00000  Uiso   1.00
C1402  C     0.96494   0.86367   0.77565   0.00000  Uiso   1.00
C1403  C     0.80260   0.83277   0.83789   0.00000  Uiso   1.00
C1404  C     0.86388   0.83395   0.66203   0.00000  Uiso   1.00
C1405  C     0.78320   0.83536   0.88884   0.00000  Uiso   1.00
C1406  C     0.83338   0.75347   0.75027   0.00000  Uiso   1.00
C1407  C     0.88234   0.83557   0.61107   0.00000  Uiso   1.00
C1408  C     0.72460   0.86350   0.96288   0.00000  Uiso   1.00
C1409  C     0.94476   0.82206   0.53389   0.00000  Uiso   1.00
C1410  C     0.73701   0.85247   0.91579   0.00000  Uiso   1.00
C1411  C     0.93061   0.82574   0.58210   0.00000  Uiso   1.00
C1412  C     0.81510   0.82617   0.90988   0.00000  Uiso   1.00
C1413  C     0.84905   0.84466   0.59128   0.00000  Uiso   1.00
C1414  C     0.80547   0.84041   0.95569   0.00000  Uiso   1.00
C1415  C     0.86230   0.84191   0.54295   0.00000  Uiso   1.00
C1416  C     0.75869   0.85805   0.98290   0.00000  Uiso   1.00
C1417  C     0.78055   0.86592   0.54924   0.00000  Uiso   1.00
C1418  C     0.91084   0.82934   0.51416   0.00000  Uiso   1.00
C1419  C     0.84132   0.83810   0.97471   0.00000  Uiso   1.00
C1420  C     0.82785   0.84873   0.52289   0.00000  Uiso   1.00
C1421  C     0.67867   0.78999   0.63875   0.00000  Uiso   1.00
C1422  C     0.99018   0.90344   0.85344   0.00000  Uiso   1.00
C1423  C     0.72049   0.72785   0.70640   0.00000  Uiso   1.00
C1424  C     0.89495   0.90257   0.83693   0.00000  Uiso   1.00
C1425  C     0.89056   0.82695   0.94678   0.00000  Uiso   1.00
C1426  C     0.74684   0.87068   0.52937   0.00000  Uiso   1.00
C1427  C     0.92471   0.82325   0.96622   0.00000  Uiso   1.00
C1428  C     0.87747   0.97747   0.73274   0.00000  Uiso   1.00
C1429  C     0.78899   0.68931   0.76983   0.00000  Uiso   1.00
C1430  C     0.87762   0.68694   0.73303   0.00000  Uiso   1.00
H1431  H     0.71127   0.88442   0.55054   0.00000  Uiso   1.00
H1432  H     0.90438   0.82186   0.90939   0.00000  Uiso   1.00
H1433  H     0.91185   0.96011   0.71810   0.00000  Uiso   1.00
H1434  H     0.75468   0.70675   0.78481   0.00000  Uiso   1.00
H1435  H     0.91204   0.70242   0.71847   0.00000  Uiso   1.00
H1436  H     0.75442   0.96430   0.78369   0.00000  Uiso   1.00
H1437  H     0.94601   0.77739   0.69028   0.00000  Uiso   1.00
H1438  H     0.66874   0.77034   0.61384   0.00000  Uiso   1.00
H1439  H     0.71742   0.78288   0.63041   0.00000  Uiso   1.00
H1440  H     0.67454   0.82366   0.63347   0.00000  Uiso   1.00
H1441  H     0.72407   0.88638   0.80741   0.00000  Uiso   1.00
H1442  H     0.96195   0.81448   0.94367   0.00000  Uiso   1.00
H1443  H     0.67625   0.90986   0.87676   0.00000  Uiso   1.00
H1444  H     0.96490   0.87779   0.86821   0.00000  Uiso   1.00
H1445  H     0.97155   0.93344   0.85378   0.00000  Uiso   1.00
H1446  H     0.76460   0.77716   0.67057   0.00000  Uiso   1.00
H1447  H     0.75191   0.70680   0.70149   0.00000  Uiso   1.00
H1448  H     0.70668   0.71847   0.67933   0.00000  Uiso   1.00
H1449  H     0.69191   0.72386   0.74179   0.00000  Uiso   1.00
H1450  H     0.95375   0.92841   0.78346   0.00000  Uiso   1.00
H1451  H     0.86022   0.90753   0.83292   0.00000  Uiso   1.00
H1452  H     0.89737   0.92994   0.85878   0.00000  Uiso   1.00
H1453  H     0.81199   0.85161   0.61455   0.00000  Uiso   1.00
H1454  H     0.89383   0.87389   0.85589   0.00000  Uiso   1.00
H1455  H     0.84820   0.80898   0.88896   0.00000  Uiso   1.00
H1456  H     0.95676   0.81936   0.59663   0.00000  Uiso   1.00
H1457  H     0.71135   0.85842   0.90021   0.00000  Uiso   1.00
H1458  H     0.68911   0.87774   0.98315   0.00000  Uiso   1.00
H1459  H     0.98176   0.81207   0.51219   0.00000  Uiso   1.00
H1460  H     0.76880   0.87762   0.58500   0.00000  Uiso   1.00
N1461  N     0.71426   0.83334   0.75001   0.00000  Uiso   1.00
N1462  N     0.95241   0.83332   0.74999   0.00000  Uiso   1.00
N1463  N     0.98135   0.78027   0.68621   0.00000  Uiso   1.00
N1464  N     0.69121   0.89244   0.80638   0.00000  Uiso   1.00
N1465  N     0.73633   0.77059   0.70131   0.00000  Uiso   1.00
N1466  N     0.93521   0.90093   0.79147   0.00000  Uiso   1.00
O1467  O     0.79512   0.89442   0.75000   0.00000  Uiso   1.00
O1468  O     0.87154   0.77225   0.74999   0.00000  Uiso   1.00
O1469  O     0.87157   0.89441   0.75000   0.00000  Uiso   1.00
O1470  O     0.79510   0.77226   0.75000   0.00000  Uiso   1.00
O1471  O     0.77328   0.83334   0.81612   0.00000  Uiso   1.00
O1472  O     0.89339   0.83333   0.68387   0.00000  Uiso   1.00
O1473  O     0.84972   0.83333   0.81612   0.00000  Uiso   1.00
O1474  O     0.81695   0.83334   0.68388   0.00000  Uiso   1.00
Zn1475 Zn    0.78229   0.83334   0.75000   0.00000  Uiso   1.00
Zn1476 Zn    0.88438   0.83333   0.75000   0.00000  Uiso   1.00
loop_
_geom_bond_atom_site_label_1
_geom_bond_atom_site_label_2
_geom_bond_distance
_geom_bond_site_symmetry_2
_ccdc_geom_bond_type
C1     O75     1.292   .     A
C1     C4      1.416   .     S
C1     O73     1.295   .     A
C2     C4      1.395   .     A
C2     H42     1.083   .     S
C2     C281    1.372   .     S
C3     C12     1.417   .     S
C3     C35     1.397   .     A
C3     C36     1.395   .     A
C4     C34     1.398   .     A
C5     N69     1.424   .     S
C5     N68     1.384   .     A
C5     C89     1.436   .     S
C6     N70     1.434   .     S
C6     N67     1.385   .     A
C6     C172    1.445   1_455 S
C7     N71     1.424   .     S
C7     N67     1.363   .     A
C7     C169    1.436   1_455 S
C8     N72     1.430   .     S
C8     N68     1.380   .     A
C8     C88     1.445   .     S
C9     O79     1.303   .     A
C9     O77     1.305   .     A
C9     C11     1.459   .     S
C10    O78     1.312   .     A
C10    O80     1.299   .     A
C10    C13     1.466   .     S
C11    C18     1.391   .     A
C11    C16     1.396   .     A
C12    O74     1.294   .     A
C12    O76     1.293   .     A
C13    C19     1.398   .     A
C13    C17     1.394   .     A
C14    H64     1.083   .     S
C14    C16     1.393   .     A
C14    C22     1.404   .     A
C15    H65     1.083   .     S
C15    C17     1.391   .     A
C15    C24     1.402   .     A
C16    H63     1.078   .     S
C17    H62     1.071   .     S
C18    C20     1.396   .     A
C18    H61     1.077   .     S
C19    C21     1.397   .     A
C19    H59     1.074   .     S
C20    C22     1.417   .     A
C20    C25     1.420   .     A
C21    C26     1.422   .     A
C21    C24     1.418   .     A
C22    C770    1.390   .     S
C23    H66     1.077   .     S
C23    C26     1.419   .     A
C23    C32     1.388   .     A
C24    C771    1.389   1_554 S
C25    C31     1.418   .     A
C25    C764    1.418   .     S
C26    C763    1.418   1_554 S
C27    H44     1.110   .     S
C27    H45     1.104   .     S
C27    H46     1.111   .     S
C27    N233    1.450   1_455 S
C28    H51     1.105   .     S
C28    H50     1.109   .     S
C28    H131    1.110   .     S
C28    N152    1.447   .     S
C29    H54     1.109   .     S
C29    H55     1.112   .     S
C29    H53     1.109   .     S
C29    N71     1.448   .     S
C30    H57     1.106   .     S
C30    H60     1.108   .     S
C30    N72     1.452   .     S
C30    H58     1.108   .     S
C31    C33     1.386   .     A
C31    H38     1.077   .     S
C32    H37     1.084   .     S
C32    C760    1.390   1_554 S
C33    H48     1.084   .     S
C33    C762    1.389   .     S
C34    H39     1.084   .     S
C34    C282    1.371   .     S
C35    H40     1.084   .     S
C35    C494    1.372   1_545 S
C36    H41     1.084   .     S
C36    C526    1.371   1_545 S
H43    N69     1.021   .     S
H47    N70     1.015   .     S
H49    C192    1.110   1_455 S
H52    N71     1.030   .     S
H56    N72     1.031   .     S
N67    Zn81    2.038   .     S
N68    Zn82    2.038   .     S
N69    C109    1.450   .     S
N70    C192    1.447   1_455 S
O73    Zn81    1.998   .     S
O74    Zn82    1.998   .     S
O75    Zn82    1.990   .     S
O76    Zn81    1.990   .     S
O77    Zn81    1.971   .     S
O78    Zn82    1.971   .     S
O79    Zn82    1.908   .     S
O80    Zn81    1.908   .     S
C83    O157    1.292   .     A
C83    C86     1.416   .     S
C83    O155    1.295   .     A
C84    C86     1.395   .     A
C84    H124    1.083   .     S
C84    C363    1.372   .     S
C85    C94     1.417   .     S
C85    C117    1.397   .     A
C85    C118    1.395   .     A
C86    C116    1.398   .     A
C87    N151    1.424   .     S
C87    N150    1.384   .     A
C87    C171    1.436   .     S
C88    N152    1.434   .     S
C88    N149    1.385   .     A
C89    N153    1.424   .     S
C89    N149    1.363   .     A
C90    N154    1.430   .     S
C90    N150    1.380   .     A
C90    C170    1.445   .     S
C91    O161    1.303   .     A
C91    O159    1.305   .     A
C91    C93     1.459   .     S
C92    O160    1.312   .     A
C92    O162    1.299   .     A
C92    C95     1.466   .     S
C93    C100    1.391   .     A
C93    C98     1.396   .     A
C94    O156    1.294   .     A
C94    O158    1.293   .     A
C95    C101    1.398   .     A
C95    C99     1.394   .     A
C96    H146    1.083   .     S
C96    C98     1.393   .     A
C96    C104    1.404   .     A
C97    H147    1.083   .     S
C97    C99     1.391   .     A
C97    C106    1.402   .     A
C98    H145    1.078   .     S
C99    H144    1.071   .     S
C100   C102    1.396   .     A
C100   H143    1.077   .     S
C101   C103    1.397   .     A
C101   H141    1.074   .     S
C102   C104    1.417   .     A
C102   C107    1.420   .     A
C103   C108    1.422   .     A
C103   C106    1.418   .     A
C104   C852    1.390   .     S
C105   H148    1.077   .     S
C105   C108    1.419   .     A
C105   C114    1.388   .     A
C106   C853    1.389   1_554 S
C107   C113    1.418   .     A
C107   C846    1.418   .     S
C108   C845    1.418   1_554 S
C109   H126    1.110   .     S
C109   H127    1.104   .     S
C109   H128    1.111   .     S
C110   H133    1.105   .     S
C110   H132    1.109   .     S
C110   H213    1.110   .     S
C110   N234    1.447   .     S
C111   H136    1.109   .     S
C111   H137    1.112   .     S
C111   H135    1.109   .     S
C111   N153    1.448   .     S
C112   H139    1.106   .     S
C112   H142    1.108   .     S
C112   N154    1.452   .     S
C112   H140    1.108   .     S
C113   C115    1.386   .     A
C113   H120    1.077   .     S
C114   H119    1.084   .     S
C114   C842    1.390   1_554 S
C115   H130    1.084   .     S
C115   C844    1.389   .     S
C116   H121    1.084   .     S
C116   C364    1.371   .     S
C117   H122    1.084   .     S
C117   C576    1.372   1_545 S
C118   H123    1.084   .     S
C118   C608    1.371   1_545 S
H125   N151    1.021   .     S
H129   N152    1.015   .     S
H134   N153    1.030   .     S
H138   N154    1.031   .     S
N149   Zn163   2.038   .     S
N150   Zn164   2.038   .     S
N151   C191    1.450   .     S
O155   Zn163   1.998   .     S
O156   Zn164   1.998   .     S
O157   Zn164   1.990   .     S
O158   Zn163   1.990   .     S
O159   Zn163   1.971   .     S
O160   Zn164   1.971   .     S
O161   Zn164   1.908   .     S
O162   Zn163   1.908   .     S
C165   O239    1.292   .     A
C165   C168    1.416   .     S
C165   O237    1.295   .     A
C166   C168    1.395   .     A
C166   H206    1.083   .     S
C166   C445    1.372   .     S
C167   C176    1.417   .     S
C167   C199    1.397   .     A
C167   C200    1.395   .     A
C168   C198    1.398   .     A
C169   N233    1.424   .     S
C169   N232    1.384   .     A
C169   C7      1.436   1_655 S
C170   N234    1.434   .     S
C170   N231    1.385   .     A
C171   N235    1.424   .     S
C171   N231    1.363   .     A
C172   N236    1.430   .     S
C172   N232    1.380   .     A
C172   C6      1.445   1_655 S
C173   O243    1.303   .     A
C173   O241    1.305   .     A
C173   C175    1.459   .     S
C174   O242    1.312   .     A
C174   O244    1.299   .     A
C174   C177    1.466   .     S
C175   C182    1.391   .     A
C175   C180    1.396   .     A
C176   O238    1.294   .     A
C176   O240    1.293   .     A
C177   C183    1.398   .     A
C177   C181    1.394   .     A
C178   H228    1.083   .     S
C178   C180    1.393   .     A
C178   C186    1.404   .     A
C179   H229    1.083   .     S
C179   C181    1.391   .     A
C179   C188    1.402   .     A
C180   H227    1.078   .     S
C181   H226    1.071   .     S
C182   C184    1.396   .     A
C182   H225    1.077   .     S
C183   C185    1.397   .     A
C183   H223    1.074   .     S
C184   C186    1.417   .     A
C184   C189    1.420   .     A
C185   C190    1.422   .     A
C185   C188    1.418   .     A
C186   C934    1.390   .     S
C187   H230    1.077   .     S
C187   C190    1.419   .     A
C187   C196    1.388   .     A
C188   C935    1.389   1_554 S
C189   C195    1.418   .     A
C189   C928    1.418   .     S
C190   C927    1.418   1_554 S
C191   H208    1.110   .     S
C191   H209    1.104   .     S
C191   H210    1.111   .     S
C192   H215    1.105   .     S
C192   H214    1.109   .     S
C192   H49     1.110   1_655 S
C192   N70     1.447   1_655 S
C193   H218    1.109   .     S
C193   H219    1.112   .     S
C193   H217    1.109   .     S
C193   N235    1.448   .     S
C194   H221    1.106   .     S
C194   H224    1.108   .     S
C194   N236    1.452   .     S
C194   H222    1.108   .     S
C195   C197    1.386   .     A
C195   H202    1.077   .     S
C196   H201    1.084   .     S
C196   C924    1.390   1_554 S
C197   H212    1.084   .     S
C197   C926    1.389   .     S
C198   H203    1.084   .     S
C198   C446    1.371   .     S
C199   H204    1.084   .     S
C199   C658    1.372   1_545 S
C200   H205    1.084   .     S
C200   C690    1.371   1_545 S
H207   N233    1.021   .     S
H211   N234    1.015   .     S
H216   N235    1.030   .     S
H220   N236    1.031   .     S
N231   Zn245   2.038   .     S
N232   Zn246   2.038   .     S
N233   C27     1.450   1_655 S
O237   Zn245   1.998   .     S
O238   Zn246   1.998   .     S
O239   Zn246   1.990   .     S
O240   Zn245   1.990   .     S
O241   Zn245   1.971   .     S
O242   Zn246   1.971   .     S
O243   Zn246   1.908   .     S
O244   Zn245   1.908   .     S
C247   O321    1.292   .     A
C247   C250    1.416   .     S
C247   O319    1.295   .     A
C248   C250    1.395   .     A
C248   H288    1.083   .     S
C248   C527    1.372   .     S
C249   C258    1.417   .     S
C249   C281    1.397   .     A
C249   C282    1.395   .     A
C250   C280    1.398   .     A
C251   N315    1.424   .     S
C251   N314    1.384   .     A
C251   C335    1.436   .     S
C252   N316    1.434   .     S
C252   N313    1.385   .     A
C252   C418    1.445   1_455 S
C253   N317    1.424   .     S
C253   N313    1.363   .     A
C253   C415    1.436   1_455 S
C254   N318    1.430   .     S
C254   N314    1.380   .     A
C254   C334    1.445   .     S
C255   O325    1.303   .     A
C255   O323    1.305   .     A
C255   C257    1.459   .     S
C256   O324    1.312   .     A
C256   O326    1.299   .     A
C256   C259    1.466   .     S
C257   C264    1.391   .     A
C257   C262    1.396   .     A
C258   O320    1.294   .     A
C258   O322    1.293   .     A
C259   C265    1.398   .     A
C259   C263    1.394   .     A
C260   H310    1.083   .     S
C260   C262    1.393   .     A
C260   C268    1.404   .     A
C261   H311    1.083   .     S
C261   C263    1.391   .     A
C261   C270    1.402   .     A
C262   H309    1.078   .     S
C263   H308    1.071   .     S
C264   C266    1.396   .     A
C264   H307    1.077   .     S
C265   C267    1.397   .     A
C265   H305    1.074   .     S
C266   C268    1.417   .     A
C266   C271    1.420   .     A
C267   C272    1.422   .     A
C267   C270    1.418   .     A
C268   C1016   1.390   .     S
C269   H312    1.077   .     S
C269   C272    1.419   .     A
C269   C278    1.388   .     A
C270   C1017   1.389   1_554 S
C271   C277    1.418   .     A
C271   C1010   1.418   .     S
C272   C1009   1.418   1_554 S
C273   H290    1.110   .     S
C273   H291    1.104   .     S
C273   H292    1.111   .     S
C273   N479    1.450   1_455 S
C274   H297    1.105   .     S
C274   H296    1.109   .     S
C274   H377    1.110   .     S
C274   N398    1.447   .     S
C275   H300    1.109   .     S
C275   H301    1.112   .     S
C275   H299    1.109   .     S
C275   N317    1.448   .     S
C276   H303    1.106   .     S
C276   H306    1.108   .     S
C276   N318    1.452   .     S
C276   H304    1.108   .     S
C277   C279    1.386   .     A
C277   H284    1.077   .     S
C278   H283    1.084   .     S
C278   C1006   1.390   1_554 S
C279   H294    1.084   .     S
C279   C1008   1.389   .     S
C280   H285    1.084   .     S
C280   C528    1.371   .     S
C281   H286    1.084   .     S
C282   H287    1.084   .     S
H289   N315    1.021   .     S
H293   N316    1.015   .     S
H295   C438    1.110   1_455 S
H298   N317    1.030   .     S
H302   N318    1.031   .     S
N313   Zn327   2.038   .     S
N314   Zn328   2.038   .     S
N315   C355    1.450   .     S
N316   C438    1.447   1_455 S
O319   Zn327   1.998   .     S
O320   Zn328   1.998   .     S
O321   Zn328   1.990   .     S
O322   Zn327   1.990   .     S
O323   Zn327   1.971   .     S
O324   Zn328   1.971   .     S
O325   Zn328   1.908   .     S
O326   Zn327   1.908   .     S
C329   O403    1.292   .     A
C329   C332    1.416   .     S
C329   O401    1.295   .     A
C330   C332    1.395   .     A
C330   H370    1.083   .     S
C330   C609    1.372   .     S
C331   C340    1.417   .     S
C331   C363    1.397   .     A
C331   C364    1.395   .     A
C332   C362    1.398   .     A
C333   N397    1.424   .     S
C333   N396    1.384   .     A
C333   C417    1.436   .     S
C334   N398    1.434   .     S
C334   N395    1.385   .     A
C335   N399    1.424   .     S
C335   N395    1.363   .     A
C336   N400    1.430   .     S
C336   N396    1.380   .     A
C336   C416    1.445   .     S
C337   O407    1.303   .     A
C337   O405    1.305   .     A
C337   C339    1.459   .     S
C338   O406    1.312   .     A
C338   O408    1.299   .     A
C338   C341    1.466   .     S
C339   C346    1.391   .     A
C339   C344    1.396   .     A
C340   O402    1.294   .     A
C340   O404    1.293   .     A
C341   C347    1.398   .     A
C341   C345    1.394   .     A
C342   H392    1.083   .     S
C342   C344    1.393   .     A
C342   C350    1.404   .     A
C343   H393    1.083   .     S
C343   C345    1.391   .     A
C343   C352    1.402   .     A
C344   H391    1.078   .     S
C345   H390    1.071   .     S
C346   C348    1.396   .     A
C346   H389    1.077   .     S
C347   C349    1.397   .     A
C347   H387    1.074   .     S
C348   C350    1.417   .     A
C348   C353    1.420   .     A
C349   C354    1.422   .     A
C349   C352    1.418   .     A
C350   C1098   1.390   .     S
C351   H394    1.077   .     S
C351   C354    1.419   .     A
C351   C360    1.388   .     A
C352   C1099   1.389   1_554 S
C353   C359    1.418   .     A
C353   C1092   1.418   .     S
C354   C1091   1.418   1_554 S
C355   H372    1.110   .     S
C355   H373    1.104   .     S
C355   H374    1.111   .     S
C356   H379    1.105   .     S
C356   H378    1.109   .     S
C356   H459    1.110   .     S
C356   N480    1.447   .     S
C357   H382    1.109   .     S
C357   H383    1.112   .     S
C357   H381    1.109   .     S
C357   N399    1.448   .     S
C358   H385    1.106   .     S
C358   H388    1.108   .     S
C358   N400    1.452   .     S
C358   H386    1.108   .     S
C359   C361    1.386   .     A
C359   H366    1.077   .     S
C360   H365    1.084   .     S
C360   C1088   1.390   1_554 S
C361   H376    1.084   .     S
C361   C1090   1.389   .     S
C362   H367    1.084   .     S
C362   C610    1.371   .     S
C363   H368    1.084   .     S
C364   H369    1.084   .     S
H371   N397    1.021   .     S
H375   N398    1.015   .     S
H380   N399    1.030   .     S
H384   N400    1.031   .     S
N395   Zn409   2.038   .     S
N396   Zn410   2.038   .     S
N397   C437    1.450   .     S
O401   Zn409   1.998   .     S
O402   Zn410   1.998   .     S
O403   Zn410   1.990   .     S
O404   Zn409   1.990   .     S
O405   Zn409   1.971   .     S
O406   Zn410   1.971   .     S
O407   Zn410   1.908   .     S
O408   Zn409   1.908   .     S
C411   O485    1.292   .     A
C411   C414    1.416   .     S
C411   O483    1.295   .     A
C412   C414    1.395   .     A
C412   H452    1.083   .     S
C412   C691    1.372   .     S
C413   C422    1.417   .     S
C413   C445    1.397   .     A
C413   C446    1.395   .     A
C414   C444    1.398   .     A
C415   N479    1.424   .     S
C415   N478    1.384   .     A
C415   C253    1.436   1_655 S
C416   N480    1.434   .     S
C416   N477    1.385   .     A
C417   N481    1.424   .     S
C417   N477    1.363   .     A
C418   N482    1.430   .     S
C418   N478    1.380   .     A
C418   C252    1.445   1_655 S
C419   O489    1.303   .     A
C419   O487    1.305   .     A
C419   C421    1.459   .     S
C420   O488    1.312   .     A
C420   O490    1.299   .     A
C420   C423    1.466   .     S
C421   C428    1.391   .     A
C421   C426    1.396   .     A
C422   O484    1.294   .     A
C422   O486    1.293   .     A
C423   C429    1.398   .     A
C423   C427    1.394   .     A
C424   H474    1.083   .     S
C424   C426    1.393   .     A
C424   C432    1.404   .     A
C425   H475    1.083   .     S
C425   C427    1.391   .     A
C425   C434    1.402   .     A
C426   H473    1.078   .     S
C427   H472    1.071   .     S
C428   C430    1.396   .     A
C428   H471    1.077   .     S
C429   C431    1.397   .     A
C429   H469    1.074   .     S
C430   C432    1.417   .     A
C430   C435    1.420   .     A
C431   C436    1.422   .     A
C431   C434    1.418   .     A
C432   C1180   1.390   .     S
C433   H476    1.077   .     S
C433   C436    1.419   .     A
C433   C442    1.388   .     A
C434   C1181   1.389   1_554 S
C435   C441    1.418   .     A
C435   C1174   1.418   .     S
C436   C1173   1.418   1_554 S
C437   H454    1.110   .     S
C437   H455    1.104   .     S
C437   H456    1.111   .     S
C438   H461    1.105   .     S
C438   H460    1.109   .     S
C438   H295    1.110   1_655 S
C438   N316    1.447   1_655 S
C439   H464    1.109   .     S
C439   H465    1.112   .     S
C439   H463    1.109   .     S
C439   N481    1.448   .     S
C440   H467    1.106   .     S
C440   H470    1.108   .     S
C440   N482    1.452   .     S
C440   H468    1.108   .     S
C441   C443    1.386   .     A
C441   H448    1.077   .     S
C442   H447    1.084   .     S
C442   C1170   1.390   1_554 S
C443   H458    1.084   .     S
C443   C1172   1.389   .     S
C444   H449    1.084   .     S
C444   C692    1.371   .     S
C445   H450    1.084   .     S
C446   H451    1.084   .     S
H453   N479    1.021   .     S
H457   N480    1.015   .     S
H462   N481    1.030   .     S
H466   N482    1.031   .     S
N477   Zn491   2.038   .     S
N478   Zn492   2.038   .     S
N479   C273    1.450   1_655 S
O483   Zn491   1.998   .     S
O484   Zn492   1.998   .     S
O485   Zn492   1.990   .     S
O486   Zn491   1.990   .     S
O487   Zn491   1.971   .     S
O488   Zn492   1.971   .     S
O489   Zn492   1.908   .     S
O490   Zn491   1.908   .     S
C493   O567    1.292   .     A
C493   C496    1.416   .     S
C493   O565    1.295   .     A
C494   C496    1.395   .     A
C494   H534    1.083   .     S
C494   C35     1.372   1_565 S
C495   C504    1.417   .     S
C495   C527    1.397   .     A
C495   C528    1.395   .     A
C496   C526    1.398   .     A
C497   N561    1.424   .     S
C497   N560    1.384   .     A
C497   C581    1.436   .     S
C498   N562    1.434   .     S
C498   N559    1.385   .     A
C498   C664    1.445   1_455 S
C499   N563    1.424   .     S
C499   N559    1.363   .     A
C499   C661    1.436   1_455 S
C500   N564    1.430   .     S
C500   N560    1.380   .     A
C500   C580    1.445   .     S
C501   O571    1.303   .     A
C501   O569    1.305   .     A
C501   C503    1.459   .     S
C502   O570    1.312   .     A
C502   O572    1.299   .     A
C502   C505    1.466   .     S
C503   C510    1.391   .     A
C503   C508    1.396   .     A
C504   O566    1.294   .     A
C504   O568    1.293   .     A
C505   C511    1.398   .     A
C505   C509    1.394   .     A
C506   H556    1.083   .     S
C506   C508    1.393   .     A
C506   C514    1.404   .     A
C507   H557    1.083   .     S
C507   C509    1.391   .     A
C507   C516    1.402   .     A
C508   H555    1.078   .     S
C509   H554    1.071   .     S
C510   C512    1.396   .     A
C510   H553    1.077   .     S
C511   C513    1.397   .     A
C511   H551    1.074   .     S
C512   C514    1.417   .     A
C512   C517    1.420   .     A
C513   C518    1.422   .     A
C513   C516    1.418   .     A
C514   C1262   1.390   .     S
C515   H558    1.077   .     S
C515   C518    1.419   .     A
C515   C524    1.388   .     A
C516   C1263   1.389   1_554 S
C517   C523    1.418   .     A
C517   C1256   1.418   .     S
C518   C1255   1.418   1_554 S
C519   H536    1.110   .     S
C519   H537    1.104   .     S
C519   H538    1.111   .     S
C519   N725    1.450   1_455 S
C520   H543    1.105   .     S
C520   H542    1.109   .     S
C520   H623    1.110   .     S
C520   N644    1.447   .     S
C521   H546    1.109   .     S
C521   H547    1.112   .     S
C521   H545    1.109   .     S
C521   N563    1.448   .     S
C522   H549    1.106   .     S
C522   H552    1.108   .     S
C522   N564    1.452   .     S
C522   H550    1.108   .     S
C523   C525    1.386   .     A
C523   H530    1.077   .     S
C524   H529    1.084   .     S
C524   C1252   1.390   1_554 S
C525   H540    1.084   .     S
C525   C1254   1.389   .     S
C526   H531    1.084   .     S
C526   C36     1.371   1_565 S
C527   H532    1.084   .     S
C528   H533    1.084   .     S
H535   N561    1.021   .     S
H539   N562    1.015   .     S
H541   C684    1.110   1_455 S
H544   N563    1.030   .     S
H548   N564    1.031   .     S
N559   Zn573   2.038   .     S
N560   Zn574   2.038   .     S
N561   C601    1.450   .     S
N562   C684    1.447   1_455 S
O565   Zn573   1.998   .     S
O566   Zn574   1.998   .     S
O567   Zn574   1.990   .     S
O568   Zn573   1.990   .     S
O569   Zn573   1.971   .     S
O570   Zn574   1.971   .     S
O571   Zn574   1.908   .     S
O572   Zn573   1.908   .     S
C575   O649    1.292   .     A
C575   C578    1.416   .     S
C575   O647    1.295   .     A
C576   C578    1.395   .     A
C576   H616    1.083   .     S
C576   C117    1.372   1_565 S
C577   C586    1.417   .     S
C577   C609    1.397   .     A
C577   C610    1.395   .     A
C578   C608    1.398   .     A
C579   N643    1.424   .     S
C579   N642    1.384   .     A
C579   C663    1.436   .     S
C580   N644    1.434   .     S
C580   N641    1.385   .     A
C581   N645    1.424   .     S
C581   N641    1.363   .     A
C582   N646    1.430   .     S
C582   N642    1.380   .     A
C582   C662    1.445   .     S
C583   O653    1.303   .     A
C583   O651    1.305   .     A
C583   C585    1.459   .     S
C584   O652    1.312   .     A
C584   O654    1.299   .     A
C584   C587    1.466   .     S
C585   C592    1.391   .     A
C585   C590    1.396   .     A
C586   O648    1.294   .     A
C586   O650    1.293   .     A
C587   C593    1.398   .     A
C587   C591    1.394   .     A
C588   H638    1.083   .     S
C588   C590    1.393   .     A
C588   C596    1.404   .     A
C589   H639    1.083   .     S
C589   C591    1.391   .     A
C589   C598    1.402   .     A
C590   H637    1.078   .     S
C591   H636    1.071   .     S
C592   C594    1.396   .     A
C592   H635    1.077   .     S
C593   C595    1.397   .     A
C593   H633    1.074   .     S
C594   C596    1.417   .     A
C594   C599    1.420   .     A
C595   C600    1.422   .     A
C595   C598    1.418   .     A
C596   C1344   1.390   .     S
C597   H640    1.077   .     S
C597   C600    1.419   .     A
C597   C606    1.388   .     A
C598   C1345   1.389   1_554 S
C599   C605    1.418   .     A
C599   C1338   1.418   .     S
C600   C1337   1.418   1_554 S
C601   H618    1.110   .     S
C601   H619    1.104   .     S
C601   H620    1.111   .     S
C602   H625    1.105   .     S
C602   H624    1.109   .     S
C602   H705    1.110   .     S
C602   N726    1.447   .     S
C603   H628    1.109   .     S
C603   H629    1.112   .     S
C603   H627    1.109   .     S
C603   N645    1.448   .     S
C604   H631    1.106   .     S
C604   H634    1.108   .     S
C604   N646    1.452   .     S
C604   H632    1.108   .     S
C605   C607    1.386   .     A
C605   H612    1.077   .     S
C606   H611    1.084   .     S
C606   C1334   1.390   1_554 S
C607   H622    1.084   .     S
C607   C1336   1.389   .     S
C608   H613    1.084   .     S
C608   C118    1.371   1_565 S
C609   H614    1.084   .     S
C610   H615    1.084   .     S
H617   N643    1.021   .     S
H621   N644    1.015   .     S
H626   N645    1.030   .     S
H630   N646    1.031   .     S
N641   Zn655   2.038   .     S
N642   Zn656   2.038   .     S
N643   C683    1.450   .     S
O647   Zn655   1.998   .     S
O648   Zn656   1.998   .     S
O649   Zn656   1.990   .     S
O650   Zn655   1.990   .     S
O651   Zn655   1.971   .     S
O652   Zn656   1.971   .     S
O653   Zn656   1.908   .     S
O654   Zn655   1.908   .     S
C657   O731    1.292   .     A
C657   C660    1.416   .     S
C657   O729    1.295   .     A
C658   C660    1.395   .     A
C658   H698    1.083   .     S
C658   C199    1.372   1_565 S
C659   C668    1.417   .     S
C659   C691    1.397   .     A
C659   C692    1.395   .     A
C660   C690    1.398   .     A
C661   N725    1.424   .     S
C661   N724    1.384   .     A
C661   C499    1.436   1_655 S
C662   N726    1.434   .     S
C662   N723    1.385   .     A
C663   N727    1.424   .     S
C663   N723    1.363   .     A
C664   N728    1.430   .     S
C664   N724    1.380   .     A
C664   C498    1.445   1_655 S
C665   O735    1.303   .     A
C665   O733    1.305   .     A
C665   C667    1.459   .     S
C666   O734    1.312   .     A
C666   O736    1.299   .     A
C666   C669    1.466   .     S
C667   C674    1.391   .     A
C667   C672    1.396   .     A
C668   O730    1.294   .     A
C668   O732    1.293   .     A
C669   C675    1.398   .     A
C669   C673    1.394   .     A
C670   H720    1.083   .     S
C670   C672    1.393   .     A
C670   C678    1.404   .     A
C671   H721    1.083   .     S
C671   C673    1.391   .     A
C671   C680    1.402   .     A
C672   H719    1.078   .     S
C673   H718    1.071   .     S
C674   C676    1.396   .     A
C674   H717    1.077   .     S
C675   C677    1.397   .     A
C675   H715    1.074   .     S
C676   C678    1.417   .     A
C676   C681    1.420   .     A
C677   C682    1.422   .     A
C677   C680    1.418   .     A
C678   C1426   1.390   .     S
C679   H722    1.077   .     S
C679   C682    1.419   .     A
C679   C688    1.388   .     A
C680   C1427   1.389   1_554 S
C681   C687    1.418   .     A
C681   C1420   1.418   .     S
C682   C1419   1.418   1_554 S
C683   H700    1.110   .     S
C683   H701    1.104   .     S
C683   H702    1.111   .     S
C684   H707    1.105   .     S
C684   H706    1.109   .     S
C684   H541    1.110   1_655 S
C684   N562    1.447   1_655 S
C685   H710    1.109   .     S
C685   H711    1.112   .     S
C685   H709    1.109   .     S
C685   N727    1.448   .     S
C686   H713    1.106   .     S
C686   H716    1.108   .     S
C686   N728    1.452   .     S
C686   H714    1.108   .     S
C687   C689    1.386   .     A
C687   H694    1.077   .     S
C688   H693    1.084   .     S
C688   C1416   1.390   1_554 S
C689   H704    1.084   .     S
C689   C1418   1.389   .     S
C690   H695    1.084   .     S
C690   C200    1.371   1_565 S
C691   H696    1.084   .     S
C692   H697    1.084   .     S
H699   N725    1.021   .     S
H703   N726    1.015   .     S
H708   N727    1.030   .     S
H712   N728    1.031   .     S
N723   Zn737   2.038   .     S
N724   Zn738   2.038   .     S
N725   C519    1.450   1_655 S
O729   Zn737   1.998   .     S
O730   Zn738   1.998   .     S
O731   Zn738   1.990   .     S
O732   Zn737   1.990   .     S
O733   Zn737   1.971   .     S
O734   Zn738   1.971   .     S
O735   Zn738   1.908   .     S
O736   Zn737   1.908   .     S
C739   O813    1.292   .     A
C739   C742    1.416   .     S
C739   O811    1.295   .     A
C740   C742    1.395   .     A
C740   H780    1.083   .     S
C740   C1019   1.372   .     S
C741   C750    1.417   .     S
C741   C773    1.397   .     A
C741   C774    1.395   .     A
C742   C772    1.398   .     A
C743   N807    1.424   .     S
C743   N806    1.384   .     A
C743   C827    1.436   .     S
C744   N808    1.434   .     S
C744   N805    1.385   .     A
C744   C910    1.445   1_455 S
C745   N809    1.424   .     S
C745   N805    1.363   .     A
C745   C907    1.436   1_455 S
C746   N810    1.430   .     S
C746   N806    1.380   .     A
C746   C826    1.445   .     S
C747   O817    1.303   .     A
C747   O815    1.305   .     A
C747   C749    1.459   .     S
C748   O816    1.312   .     A
C748   O818    1.299   .     A
C748   C751    1.466   .     S
C749   C756    1.391   .     A
C749   C754    1.396   .     A
C750   O812    1.294   .     A
C750   O814    1.293   .     A
C751   C757    1.398   .     A
C751   C755    1.394   .     A
C752   H802    1.083   .     S
C752   C754    1.393   .     A
C752   C760    1.404   .     A
C753   H803    1.083   .     S
C753   C755    1.391   .     A
C753   C762    1.402   .     A
C754   H801    1.078   .     S
C755   H800    1.071   .     S
C756   C758    1.396   .     A
C756   H799    1.077   .     S
C757   C759    1.397   .     A
C757   H797    1.074   .     S
C758   C760    1.417   .     A
C758   C763    1.420   .     A
C759   C764    1.422   .     A
C759   C762    1.418   .     A
C760   C32     1.390   1_556 S
C761   H804    1.077   .     S
C761   C764    1.419   .     A
C761   C770    1.388   .     A
C763   C769    1.418   .     A
C763   C26     1.418   1_556 S
C765   H782    1.110   .     S
C765   H783    1.104   .     S
C765   H784    1.111   .     S
C765   N971    1.450   1_455 S
C766   H789    1.105   .     S
C766   H788    1.109   .     S
C766   H869    1.110   .     S
C766   N890    1.447   .     S
C767   H792    1.109   .     S
C767   H793    1.112   .     S
C767   H791    1.109   .     S
C767   N809    1.448   .     S
C768   H795    1.106   .     S
C768   H798    1.108   .     S
C768   N810    1.452   .     S
C768   H796    1.108   .     S
C769   C771    1.386   .     A
C769   H776    1.077   .     S
C770   H775    1.084   .     S
C771   H786    1.084   .     S
C771   C24     1.389   1_556 S
C772   H777    1.084   .     S
C772   C1020   1.371   .     S
C773   H778    1.084   .     S
C773   C1232   1.372   1_545 S
C774   H779    1.084   .     S
C774   C1264   1.371   1_545 S
H781   N807    1.021   .     S
H785   N808    1.015   .     S
H787   C930    1.110   1_455 S
H790   N809    1.030   .     S
H794   N810    1.031   .     S
N805   Zn819   2.038   .     S
N806   Zn820   2.038   .     S
N807   C847    1.450   .     S
N808   C930    1.447   1_455 S
O811   Zn819   1.998   .     S
O812   Zn820   1.998   .     S
O813   Zn820   1.990   .     S
O814   Zn819   1.990   .     S
O815   Zn819   1.971   .     S
O816   Zn820   1.971   .     S
O817   Zn820   1.908   .     S
O818   Zn819   1.908   .     S
C821   O895    1.292   .     A
C821   C824    1.416   .     S
C821   O893    1.295   .     A
C822   C824    1.395   .     A
C822   H862    1.083   .     S
C822   C1101   1.372   .     S
C823   C832    1.417   .     S
C823   C855    1.397   .     A
C823   C856    1.395   .     A
C824   C854    1.398   .     A
C825   N889    1.424   .     S
C825   N888    1.384   .     A
C825   C909    1.436   .     S
C826   N890    1.434   .     S
C826   N887    1.385   .     A
C827   N891    1.424   .     S
C827   N887    1.363   .     A
C828   N892    1.430   .     S
C828   N888    1.380   .     A
C828   C908    1.445   .     S
C829   O899    1.303   .     A
C829   O897    1.305   .     A
C829   C831    1.459   .     S
C830   O898    1.312   .     A
C830   O900    1.299   .     A
C830   C833    1.466   .     S
C831   C838    1.391   .     A
C831   C836    1.396   .     A
C832   O894    1.294   .     A
C832   O896    1.293   .     A
C833   C839    1.398   .     A
C833   C837    1.394   .     A
C834   H884    1.083   .     S
C834   C836    1.393   .     A
C834   C842    1.404   .     A
C835   H885    1.083   .     S
C835   C837    1.391   .     A
C835   C844    1.402   .     A
C836   H883    1.078   .     S
C837   H882    1.071   .     S
C838   C840    1.396   .     A
C838   H881    1.077   .     S
C839   C841    1.397   .     A
C839   H879    1.074   .     S
C840   C842    1.417   .     A
C840   C845    1.420   .     A
C841   C846    1.422   .     A
C841   C844    1.418   .     A
C842   C114    1.390   1_556 S
C843   H886    1.077   .     S
C843   C846    1.419   .     A
C843   C852    1.388   .     A
C845   C851    1.418   .     A
C845   C108    1.418   1_556 S
C847   H864    1.110   .     S
C847   H865    1.104   .     S
C847   H866    1.111   .     S
C848   H871    1.105   .     S
C848   H870    1.109   .     S
C848   H951    1.110   .     S
C848   N972    1.447   .     S
C849   H874    1.109   .     S
C849   H875    1.112   .     S
C849   H873    1.109   .     S
C849   N891    1.448   .     S
C850   H877    1.106   .     S
C850   H880    1.108   .     S
C850   N892    1.452   .     S
C850   H878    1.108   .     S
C851   C853    1.386   .     A
C851   H858    1.077   .     S
C852   H857    1.084   .     S
C853   H868    1.084   .     S
C853   C106    1.389   1_556 S
C854   H859    1.084   .     S
C854   C1102   1.371   .     S
C855   H860    1.084   .     S
C855   C1314   1.372   1_545 S
C856   H861    1.084   .     S
C856   C1346   1.371   1_545 S
H863   N889    1.021   .     S
H867   N890    1.015   .     S
H872   N891    1.030   .     S
H876   N892    1.031   .     S
N887   Zn901   2.038   .     S
N888   Zn902   2.038   .     S
N889   C929    1.450   .     S
O893   Zn901   1.998   .     S
O894   Zn902   1.998   .     S
O895   Zn902   1.990   .     S
O896   Zn901   1.990   .     S
O897   Zn901   1.971   .     S
O898   Zn902   1.971   .     S
O899   Zn902   1.908   .     S
O900   Zn901   1.908   .     S
C903   O977    1.292   .     A
C903   C906    1.416   .     S
C903   O975    1.295   .     A
C904   C906    1.395   .     A
C904   H944    1.083   .     S
C904   C1183   1.372   .     S
C905   C914    1.417   .     S
C905   C937    1.397   .     A
C905   C938    1.395   .     A
C906   C936    1.398   .     A
C907   N971    1.424   .     S
C907   N970    1.384   .     A
C907   C745    1.436   1_655 S
C908   N972    1.434   .     S
C908   N969    1.385   .     A
C909   N973    1.424   .     S
C909   N969    1.363   .     A
C910   N974    1.430   .     S
C910   N970    1.380   .     A
C910   C744    1.445   1_655 S
C911   O981    1.303   .     A
C911   O979    1.305   .     A
C911   C913    1.459   .     S
C912   O980    1.312   .     A
C912   O982    1.299   .     A
C912   C915    1.466   .     S
C913   C920    1.391   .     A
C913   C918    1.396   .     A
C914   O976    1.294   .     A
C914   O978    1.293   .     A
C915   C921    1.398   .     A
C915   C919    1.394   .     A
C916   H966    1.083   .     S
C916   C918    1.393   .     A
C916   C924    1.404   .     A
C917   H967    1.083   .     S
C917   C919    1.391   .     A
C917   C926    1.402   .     A
C918   H965    1.078   .     S
C919   H964    1.071   .     S
C920   C922    1.396   .     A
C920   H963    1.077   .     S
C921   C923    1.397   .     A
C921   H961    1.074   .     S
C922   C924    1.417   .     A
C922   C927    1.420   .     A
C923   C928    1.422   .     A
C923   C926    1.418   .     A
C924   C196    1.390   1_556 S
C925   H968    1.077   .     S
C925   C928    1.419   .     A
C925   C934    1.388   .     A
C927   C933    1.418   .     A
C927   C190    1.418   1_556 S
C929   H946    1.110   .     S
C929   H947    1.104   .     S
C929   H948    1.111   .     S
C930   H953    1.105   .     S
C930   H952    1.109   .     S
C930   H787    1.110   1_655 S
C930   N808    1.447   1_655 S
C931   H956    1.109   .     S
C931   H957    1.112   .     S
C931   H955    1.109   .     S
C931   N973    1.448   .     S
C932   H959    1.106   .     S
C932   H962    1.108   .     S
C932   N974    1.452   .     S
C932   H960    1.108   .     S
C933   C935    1.386   .     A
C933   H940    1.077   .     S
C934   H939    1.084   .     S
C935   H950    1.084   .     S
C935   C188    1.389   1_556 S
C936   H941    1.084   .     S
C936   C1184   1.371   .     S
C937   H942    1.084   .     S
C937   C1396   1.372   1_545 S
C938   H943    1.084   .     S
C938   C1428   1.371   1_545 S
H945   N971    1.021   .     S
H949   N972    1.015   .     S
H954   N973    1.030   .     S
H958   N974    1.031   .     S
N969   Zn983   2.038   .     S
N970   Zn984   2.038   .     S
N971   C765    1.450   1_655 S
O975   Zn983   1.998   .     S
O976   Zn984   1.998   .     S
O977   Zn984   1.990   .     S
O978   Zn983   1.990   .     S
O979   Zn983   1.971   .     S
O980   Zn984   1.971   .     S
O981   Zn984   1.908   .     S
O982   Zn983   1.908   .     S
C985   O1059   1.292   .     A
C985   C988    1.416   .     S
C985   O1057   1.295   .     A
C986   C988    1.395   .     A
C986   H1026   1.083   .     S
C986   C1265   1.372   .     S
C987   C996    1.417   .     S
C987   C1019   1.397   .     A
C987   C1020   1.395   .     A
C988   C1018   1.398   .     A
C989   N1053   1.424   .     S
C989   N1052   1.384   .     A
C989   C1073   1.436   .     S
C990   N1054   1.434   .     S
C990   N1051   1.385   .     A
C990   C1156   1.445   1_455 S
C991   N1055   1.424   .     S
C991   N1051   1.363   .     A
C991   C1153   1.436   1_455 S
C992   N1056   1.430   .     S
C992   N1052   1.380   .     A
C992   C1072   1.445   .     S
C993   O1063   1.303   .     A
C993   O1061   1.305   .     A
C993   C995    1.459   .     S
C994   O1062   1.312   .     A
C994   O1064   1.299   .     A
C994   C997    1.466   .     S
C995   C1002   1.391   .     A
C995   C1000   1.396   .     A
C996   O1058   1.294   .     A
C996   O1060   1.293   .     A
C997   C1003   1.398   .     A
C997   C1001   1.394   .     A
C998   H1048   1.083   .     S
C998   C1000   1.393   .     A
C998   C1006   1.404   .     A
C999   H1049   1.083   .     S
C999   C1001   1.391   .     A
C999   C1008   1.402   .     A
C1000  H1047   1.078   .     S
C1001  H1046   1.071   .     S
C1002  C1004   1.396   .     A
C1002  H1045   1.077   .     S
C1003  C1005   1.397   .     A
C1003  H1043   1.074   .     S
C1004  C1006   1.417   .     A
C1004  C1009   1.420   .     A
C1005  C1010   1.422   .     A
C1005  C1008   1.418   .     A
C1006  C278    1.390   1_556 S
C1007  H1050   1.077   .     S
C1007  C1010   1.419   .     A
C1007  C1016   1.388   .     A
C1009  C1015   1.418   .     A
C1009  C272    1.418   1_556 S
C1011  H1028   1.110   .     S
C1011  H1029   1.104   .     S
C1011  H1030   1.111   .     S
C1011  N1217   1.450   1_455 S
C1012  H1035   1.105   .     S
C1012  H1034   1.109   .     S
C1012  H1115   1.110   .     S
C1012  N1136   1.447   .     S
C1013  H1038   1.109   .     S
C1013  H1039   1.112   .     S
C1013  H1037   1.109   .     S
C1013  N1055   1.448   .     S
C1014  H1041   1.106   .     S
C1014  H1044   1.108   .     S
C1014  N1056   1.452   .     S
C1014  H1042   1.108   .     S
C1015  C1017   1.386   .     A
C1015  H1022   1.077   .     S
C1016  H1021   1.084   .     S
C1017  H1032   1.084   .     S
C1017  C270    1.389   1_556 S
C1018  H1023   1.084   .     S
C1018  C1266   1.371   .     S
C1019  H1024   1.084   .     S
C1020  H1025   1.084   .     S
H1027  N1053   1.021   .     S
H1031  N1054   1.015   .     S
H1033  C1176   1.110   1_455 S
H1036  N1055   1.030   .     S
H1040  N1056   1.031   .     S
N1051  Zn1065  2.038   .     S
N1052  Zn1066  2.038   .     S
N1053  C1093   1.450   .     S
N1054  C1176   1.447   1_455 S
O1057  Zn1065  1.998   .     S
O1058  Zn1066  1.998   .     S
O1059  Zn1066  1.990   .     S
O1060  Zn1065  1.990   .     S
O1061  Zn1065  1.971   .     S
O1062  Zn1066  1.971   .     S
O1063  Zn1066  1.908   .     S
O1064  Zn1065  1.908   .     S
C1067  O1141   1.292   .     A
C1067  C1070   1.416   .     S
C1067  O1139   1.295   .     A
C1068  C1070   1.395   .     A
C1068  H1108   1.083   .     S
C1068  C1347   1.372   .     S
C1069  C1078   1.417   .     S
C1069  C1101   1.397   .     A
C1069  C1102   1.395   .     A
C1070  C1100   1.398   .     A
C1071  N1135   1.424   .     S
C1071  N1134   1.384   .     A
C1071  C1155   1.436   .     S
C1072  N1136   1.434   .     S
C1072  N1133   1.385   .     A
C1073  N1137   1.424   .     S
C1073  N1133   1.363   .     A
C1074  N1138   1.430   .     S
C1074  N1134   1.380   .     A
C1074  C1154   1.445   .     S
C1075  O1145   1.303   .     A
C1075  O1143   1.305   .     A
C1075  C1077   1.459   .     S
C1076  O1144   1.312   .     A
C1076  O1146   1.299   .     A
C1076  C1079   1.466   .     S
C1077  C1084   1.391   .     A
C1077  C1082   1.396   .     A
C1078  O1140   1.294   .     A
C1078  O1142   1.293   .     A
C1079  C1085   1.398   .     A
C1079  C1083   1.394   .     A
C1080  H1130   1.083   .     S
C1080  C1082   1.393   .     A
C1080  C1088   1.404   .     A
C1081  H1131   1.083   .     S
C1081  C1083   1.391   .     A
C1081  C1090   1.402   .     A
C1082  H1129   1.078   .     S
C1083  H1128   1.071   .     S
C1084  C1086   1.396   .     A
C1084  H1127   1.077   .     S
C1085  C1087   1.397   .     A
C1085  H1125   1.074   .     S
C1086  C1088   1.417   .     A
C1086  C1091   1.420   .     A
C1087  C1092   1.422   .     A
C1087  C1090   1.418   .     A
C1088  C360    1.390   1_556 S
C1089  H1132   1.077   .     S
C1089  C1092   1.419   .     A
C1089  C1098   1.388   .     A
C1091  C1097   1.418   .     A
C1091  C354    1.418   1_556 S
C1093  H1110   1.110   .     S
C1093  H1111   1.104   .     S
C1093  H1112   1.111   .     S
C1094  H1117   1.105   .     S
C1094  H1116   1.109   .     S
C1094  H1197   1.110   .     S
C1094  N1218   1.447   .     S
C1095  H1120   1.109   .     S
C1095  H1121   1.112   .     S
C1095  H1119   1.109   .     S
C1095  N1137   1.448   .     S
C1096  H1123   1.106   .     S
C1096  H1126   1.108   .     S
C1096  N1138   1.452   .     S
C1096  H1124   1.108   .     S
C1097  C1099   1.386   .     A
C1097  H1104   1.077   .     S
C1098  H1103   1.084   .     S
C1099  H1114   1.084   .     S
C1099  C352    1.389   1_556 S
C1100  H1105   1.084   .     S
C1100  C1348   1.371   .     S
C1101  H1106   1.084   .     S
C1102  H1107   1.084   .     S
H1109  N1135   1.021   .     S
H1113  N1136   1.015   .     S
H1118  N1137   1.030   .     S
H1122  N1138   1.031   .     S
N1133  Zn1147  2.038   .     S
N1134  Zn1148  2.038   .     S
N1135  C1175   1.450   .     S
O1139  Zn1147  1.998   .     S
O1140  Zn1148  1.998   .     S
O1141  Zn1148  1.990   .     S
O1142  Zn1147  1.990   .     S
O1143  Zn1147  1.971   .     S
O1144  Zn1148  1.971   .     S
O1145  Zn1148  1.908   .     S
O1146  Zn1147  1.908   .     S
C1149  O1223   1.292   .     A
C1149  C1152   1.416   .     S
C1149  O1221   1.295   .     A
C1150  C1152   1.395   .     A
C1150  H1190   1.083   .     S
C1150  C1429   1.372   .     S
C1151  C1160   1.417   .     S
C1151  C1183   1.397   .     A
C1151  C1184   1.395   .     A
C1152  C1182   1.398   .     A
C1153  N1217   1.424   .     S
C1153  N1216   1.384   .     A
C1153  C991    1.436   1_655 S
C1154  N1218   1.434   .     S
C1154  N1215   1.385   .     A
C1155  N1219   1.424   .     S
C1155  N1215   1.363   .     A
C1156  N1220   1.430   .     S
C1156  N1216   1.380   .     A
C1156  C990    1.445   1_655 S
C1157  O1227   1.303   .     A
C1157  O1225   1.305   .     A
C1157  C1159   1.459   .     S
C1158  O1226   1.312   .     A
C1158  O1228   1.299   .     A
C1158  C1161   1.466   .     S
C1159  C1166   1.391   .     A
C1159  C1164   1.396   .     A
C1160  O1222   1.294   .     A
C1160  O1224   1.293   .     A
C1161  C1167   1.398   .     A
C1161  C1165   1.394   .     A
C1162  H1212   1.083   .     S
C1162  C1164   1.393   .     A
C1162  C1170   1.404   .     A
C1163  H1213   1.083   .     S
C1163  C1165   1.391   .     A
C1163  C1172   1.402   .     A
C1164  H1211   1.078   .     S
C1165  H1210   1.071   .     S
C1166  C1168   1.396   .     A
C1166  H1209   1.077   .     S
C1167  C1169   1.397   .     A
C1167  H1207   1.074   .     S
C1168  C1170   1.417   .     A
C1168  C1173   1.420   .     A
C1169  C1174   1.422   .     A
C1169  C1172   1.418   .     A
C1170  C442    1.390   1_556 S
C1171  H1214   1.077   .     S
C1171  C1174   1.419   .     A
C1171  C1180   1.388   .     A
C1173  C1179   1.418   .     A
C1173  C436    1.418   1_556 S
C1175  H1192   1.110   .     S
C1175  H1193   1.104   .     S
C1175  H1194   1.111   .     S
C1176  H1199   1.105   .     S
C1176  H1198   1.109   .     S
C1176  H1033   1.110   1_655 S
C1176  N1054   1.447   1_655 S
C1177  H1202   1.109   .     S
C1177  H1203   1.112   .     S
C1177  H1201   1.109   .     S
C1177  N1219   1.448   .     S
C1178  H1205   1.106   .     S
C1178  H1208   1.108   .     S
C1178  N1220   1.452   .     S
C1178  H1206   1.108   .     S
C1179  C1181   1.386   .     A
C1179  H1186   1.077   .     S
C1180  H1185   1.084   .     S
C1181  H1196   1.084   .     S
C1181  C434    1.389   1_556 S
C1182  H1187   1.084   .     S
C1182  C1430   1.371   .     S
C1183  H1188   1.084   .     S
C1184  H1189   1.084   .     S
H1191  N1217   1.021   .     S
H1195  N1218   1.015   .     S
H1200  N1219   1.030   .     S
H1204  N1220   1.031   .     S
N1215  Zn1229  2.038   .     S
N1216  Zn1230  2.038   .     S
N1217  C1011   1.450   1_655 S
O1221  Zn1229  1.998   .     S
O1222  Zn1230  1.998   .     S
O1223  Zn1230  1.990   .     S
O1224  Zn1229  1.990   .     S
O1225  Zn1229  1.971   .     S
O1226  Zn1230  1.971   .     S
O1227  Zn1230  1.908   .     S
O1228  Zn1229  1.908   .     S
C1231  O1305   1.292   .     A
C1231  C1234   1.416   .     S
C1231  O1303   1.295   .     A
C1232  C1234   1.395   .     A
C1232  H1272   1.083   .     S
C1232  C773    1.372   1_565 S
C1233  C1242   1.417   .     S
C1233  C1265   1.397   .     A
C1233  C1266   1.395   .     A
C1234  C1264   1.398   .     A
C1235  N1299   1.424   .     S
C1235  N1298   1.384   .     A
C1235  C1319   1.436   .     S
C1236  N1300   1.434   .     S
C1236  N1297   1.385   .     A
C1236  C1402   1.445   1_455 S
C1237  N1301   1.424   .     S
C1237  N1297   1.363   .     A
C1237  C1399   1.436   1_455 S
C1238  N1302   1.430   .     S
C1238  N1298   1.380   .     A
C1238  C1318   1.445   .     S
C1239  O1309   1.303   .     A
C1239  O1307   1.305   .     A
C1239  C1241   1.459   .     S
C1240  O1308   1.312   .     A
C1240  O1310   1.299   .     A
C1240  C1243   1.466   .     S
C1241  C1248   1.391   .     A
C1241  C1246   1.396   .     A
C1242  O1304   1.294   .     A
C1242  O1306   1.293   .     A
C1243  C1249   1.398   .     A
C1243  C1247   1.394   .     A
C1244  H1294   1.083   .     S
C1244  C1246   1.393   .     A
C1244  C1252   1.404   .     A
C1245  H1295   1.083   .     S
C1245  C1247   1.391   .     A
C1245  C1254   1.402   .     A
C1246  H1293   1.078   .     S
C1247  H1292   1.071   .     S
C1248  C1250   1.396   .     A
C1248  H1291   1.077   .     S
C1249  C1251   1.397   .     A
C1249  H1289   1.074   .     S
C1250  C1252   1.417   .     A
C1250  C1255   1.420   .     A
C1251  C1256   1.422   .     A
C1251  C1254   1.418   .     A
C1252  C524    1.390   1_556 S
C1253  H1296   1.077   .     S
C1253  C1256   1.419   .     A
C1253  C1262   1.388   .     A
C1255  C1261   1.418   .     A
C1255  C518    1.418   1_556 S
C1257  H1274   1.110   .     S
C1257  H1275   1.104   .     S
C1257  H1276   1.111   .     S
C1257  N1463   1.450   1_455 S
C1258  H1281   1.105   .     S
C1258  H1280   1.109   .     S
C1258  H1361   1.110   .     S
C1258  N1382   1.447   .     S
C1259  H1284   1.109   .     S
C1259  H1285   1.112   .     S
C1259  H1283   1.109   .     S
C1259  N1301   1.448   .     S
C1260  H1287   1.106   .     S
C1260  H1290   1.108   .     S
C1260  N1302   1.452   .     S
C1260  H1288   1.108   .     S
C1261  C1263   1.386   .     A
C1261  H1268   1.077   .     S
C1262  H1267   1.084   .     S
C1263  H1278   1.084   .     S
C1263  C516    1.389   1_556 S
C1264  H1269   1.084   .     S
C1264  C774    1.371   1_565 S
C1265  H1270   1.084   .     S
C1266  H1271   1.084   .     S
H1273  N1299   1.021   .     S
H1277  N1300   1.015   .     S
H1279  C1422   1.110   1_455 S
H1282  N1301   1.030   .     S
H1286  N1302   1.031   .     S
N1297  Zn1311  2.038   .     S
N1298  Zn1312  2.038   .     S
N1299  C1339   1.450   .     S
N1300  C1422   1.447   1_455 S
O1303  Zn1311  1.998   .     S
O1304  Zn1312  1.998   .     S
O1305  Zn1312  1.990   .     S
O1306  Zn1311  1.990   .     S
O1307  Zn1311  1.971   .     S
O1308  Zn1312  1.971   .     S
O1309  Zn1312  1.908   .     S
O1310  Zn1311  1.908   .     S
C1313  O1387   1.292   .     A
C1313  C1316   1.416   .     S
C1313  O1385   1.295   .     A
C1314  C1316   1.395   .     A
C1314  H1354   1.083   .     S
C1314  C855    1.372   1_565 S
C1315  C1324   1.417   .     S
C1315  C1347   1.397   .     A
C1315  C1348   1.395   .     A
C1316  C1346   1.398   .     A
C1317  N1381   1.424   .     S
C1317  N1380   1.384   .     A
C1317  C1401   1.436   .     S
C1318  N1382   1.434   .     S
C1318  N1379   1.385   .     A
C1319  N1383   1.424   .     S
C1319  N1379   1.363   .     A
C1320  N1384   1.430   .     S
C1320  N1380   1.380   .     A
C1320  C1400   1.445   .     S
C1321  O1391   1.303   .     A
C1321  O1389   1.305   .     A
C1321  C1323   1.459   .     S
C1322  O1390   1.312   .     A
C1322  O1392   1.299   .     A
C1322  C1325   1.466   .     S
C1323  C1330   1.391   .     A
C1323  C1328   1.396   .     A
C1324  O1386   1.294   .     A
C1324  O1388   1.293   .     A
C1325  C1331   1.398   .     A
C1325  C1329   1.394   .     A
C1326  H1376   1.083   .     S
C1326  C1328   1.393   .     A
C1326  C1334   1.404   .     A
C1327  H1377   1.083   .     S
C1327  C1329   1.391   .     A
C1327  C1336   1.402   .     A
C1328  H1375   1.078   .     S
C1329  H1374   1.071   .     S
C1330  C1332   1.396   .     A
C1330  H1373   1.077   .     S
C1331  C1333   1.397   .     A
C1331  H1371   1.074   .     S
C1332  C1334   1.417   .     A
C1332  C1337   1.420   .     A
C1333  C1338   1.422   .     A
C1333  C1336   1.418   .     A
C1334  C606    1.390   1_556 S
C1335  H1378   1.077   .     S
C1335  C1338   1.419   .     A
C1335  C1344   1.388   .     A
C1337  C1343   1.418   .     A
C1337  C600    1.418   1_556 S
C1339  H1356   1.110   .     S
C1339  H1357   1.104   .     S
C1339  H1358   1.111   .     S
C1340  H1363   1.105   .     S
C1340  H1362   1.109   .     S
C1340  H1443   1.110   .     S
C1340  N1464   1.447   .     S
C1341  H1366   1.109   .     S
C1341  H1367   1.112   .     S
C1341  H1365   1.109   .     S
C1341  N1383   1.448   .     S
C1342  H1369   1.106   .     S
C1342  H1372   1.108   .     S
C1342  N1384   1.452   .     S
C1342  H1370   1.108   .     S
C1343  C1345   1.386   .     A
C1343  H1350   1.077   .     S
C1344  H1349   1.084   .     S
C1345  H1360   1.084   .     S
C1345  C598    1.389   1_556 S
C1346  H1351   1.084   .     S
C1346  C856    1.371   1_565 S
C1347  H1352   1.084   .     S
C1348  H1353   1.084   .     S
H1355  N1381   1.021   .     S
H1359  N1382   1.015   .     S
H1364  N1383   1.030   .     S
H1368  N1384   1.031   .     S
N1379  Zn1393  2.038   .     S
N1380  Zn1394  2.038   .     S
N1381  C1421   1.450   .     S
O1385  Zn1393  1.998   .     S
O1386  Zn1394  1.998   .     S
O1387  Zn1394  1.990   .     S
O1388  Zn1393  1.990   .     S
O1389  Zn1393  1.971   .     S
O1390  Zn1394  1.971   .     S
O1391  Zn1394  1.908   .     S
O1392  Zn1393  1.908   .     S
C1395  O1469   1.292   .     A
C1395  C1398   1.416   .     S
C1395  O1467   1.295   .     A
C1396  C1398   1.395   .     A
C1396  H1436   1.083   .     S
C1396  C937    1.372   1_565 S
C1397  C1406   1.417   .     S
C1397  C1429   1.397   .     A
C1397  C1430   1.395   .     A
C1398  C1428   1.398   .     A
C1399  N1463   1.424   .     S
C1399  N1462   1.384   .     A
C1399  C1237   1.436   1_655 S
C1400  N1464   1.434   .     S
C1400  N1461   1.385   .     A
C1401  N1465   1.424   .     S
C1401  N1461   1.363   .     A
C1402  N1466   1.430   .     S
C1402  N1462   1.380   .     A
C1402  C1236   1.445   1_655 S
C1403  O1473   1.303   .     A
C1403  O1471   1.305   .     A
C1403  C1405   1.459   .     S
C1404  O1472   1.312   .     A
C1404  O1474   1.299   .     A
C1404  C1407   1.466   .     S
C1405  C1412   1.391   .     A
C1405  C1410   1.396   .     A
C1406  O1468   1.294   .     A
C1406  O1470   1.293   .     A
C1407  C1413   1.398   .     A
C1407  C1411   1.394   .     A
C1408  H1458   1.083   .     S
C1408  C1410   1.393   .     A
C1408  C1416   1.404   .     A
C1409  H1459   1.083   .     S
C1409  C1411   1.391   .     A
C1409  C1418   1.402   .     A
C1410  H1457   1.078   .     S
C1411  H1456   1.071   .     S
C1412  C1414   1.396   .     A
C1412  H1455   1.077   .     S
C1413  C1415   1.397   .     A
C1413  H1453   1.074   .     S
C1414  C1416   1.417   .     A
C1414  C1419   1.420   .     A
C1415  C1420   1.422   .     A
C1415  C1418   1.418   .     A
C1416  C688    1.390   1_556 S
C1417  H1460   1.077   .     S
C1417  C1420   1.419   .     A
C1417  C1426   1.388   .     A
C1419  C1425   1.418   .     A
C1419  C682    1.418   1_556 S
C1421  H1438   1.110   .     S
C1421  H1439   1.104   .     S
C1421  H1440   1.111   .     S
C1422  H1445   1.105   .     S
C1422  H1444   1.109   .     S
C1422  H1279   1.110   1_655 S
C1422  N1300   1.447   1_655 S
C1423  H1448   1.109   .     S
C1423  H1449   1.112   .     S
C1423  H1447   1.109   .     S
C1423  N1465   1.448   .     S
C1424  H1451   1.106   .     S
C1424  H1454   1.108   .     S
C1424  N1466   1.452   .     S
C1424  H1452   1.108   .     S
C1425  C1427   1.386   .     A
C1425  H1432   1.077   .     S
C1426  H1431   1.084   .     S
C1427  H1442   1.084   .     S
C1427  C680    1.389   1_556 S
C1428  H1433   1.084   .     S
C1428  C938    1.371   1_565 S
C1429  H1434   1.084   .     S
C1430  H1435   1.084   .     S
H1437  N1463   1.021   .     S
H1441  N1464   1.015   .     S
H1446  N1465   1.030   .     S
H1450  N1466   1.031   .     S
N1461  Zn1475  2.038   .     S
N1462  Zn1476  2.038   .     S
N1463  C1257   1.450   1_655 S
O1467  Zn1475  1.998   .     S
O1468  Zn1476  1.998   .     S
O1469  Zn1476  1.990   .     S
O1470  Zn1475  1.990   .     S
O1471  Zn1475  1.971   .     S
O1472  Zn1476  1.971   .     S
O1473  Zn1476  1.908   .     S
O1474  Zn1475  1.908   .     S
