data_str_m2_o1_o16_pcu_sym.247
_audit_creation_date              2020-01-03
_audit_creation_method            'Materials Studio'
_symmetry_space_group_name_H-M    'P1'
_symmetry_Int_Tables_number       1
_symmetry_cell_setting            triclinic
loop_
_symmetry_equiv_pos_as_xyz
  x,y,z
_cell_length_a                    28.7352
_cell_length_b                    32.4423
_cell_length_c                    26.8023
_cell_angle_alpha                 91.3036
_cell_angle_beta                  72.8626
_cell_angle_gamma                 89.9083
loop_
_atom_site_label
_atom_site_type_symbol
_atom_site_fract_x
_atom_site_fract_y
_atom_site_fract_z
_atom_site_U_iso_or_equiv
_atom_site_adp_type
_atom_site_occupancy
C1     C     0.16680   0.24588   0.24917   0.00000  Uiso   1.00
C2     C     0.14867   0.17282   0.48764   0.00000  Uiso   1.00
C3     C     0.15525   0.15603   0.43671   0.00000  Uiso   1.00
C4     C     0.18323   0.16289   0.01421   0.00000  Uiso   1.00
C5     C     0.22393   0.13703   0.48926   0.00000  Uiso   1.00
C6     C     0.22816   0.11885   0.44015   0.00000  Uiso   1.00
C7     C     0.19121   0.12505   0.41683   0.00000  Uiso   1.00
C8     C     0.17761   0.17648   0.06582   0.00000  Uiso   1.00
C9     C     0.25030   0.13968   0.06732   0.00000  Uiso   1.00
C10    C     0.12495   0.16990   0.40721   0.00000  Uiso   1.00
C11    C     0.20087   0.31218   0.26611   0.00000  Uiso   1.00
C12    C     0.14053   0.16633   0.34999   0.00000  Uiso   1.00
C13    C     0.20084   0.02143   0.26662   0.00000  Uiso   1.00
C14    C     0.16699   0.04285   0.24860   0.00000  Uiso   1.00
C15    C     0.13329   0.02149   0.22954   0.00000  Uiso   1.00
C16    C     0.13362   0.31198   0.22789   0.00000  Uiso   1.00
C17    C     0.16699   0.29054   0.24756   0.00000  Uiso   1.00
C18    C     0.29978   0.19139   0.28486   0.00000  Uiso   1.00
C19    C     0.01596   0.19081   0.28440   0.00000  Uiso   1.00
C20    C     0.03452   0.14216   0.21508   0.00000  Uiso   1.00
C21    C     0.31724   0.14058   0.21707   0.00000  Uiso   1.00
C22    C     0.16675   0.08745   0.24968   0.00000  Uiso   1.00
C23    C     0.19286   0.16658   0.15009   0.00000  Uiso   1.00
C24    C     0.25834   0.12752   0.01539   0.00000  Uiso   1.00
C25    C     0.20847   0.16236   0.09324   0.00000  Uiso   1.00
C26    C     0.08345   0.19381   0.43137   0.00000  Uiso   1.00
C27    C     0.07426   0.20716   0.48285   0.00000  Uiso   1.00
C28    C     0.10711   0.19818   0.01024   0.00000  Uiso   1.00
Cu29   Cu    0.11978   0.16666   0.25000   0.00000  Uiso   1.00
Cu30   Cu    0.21355   0.16667   0.25000   0.00000  Uiso   1.00
H31    H     0.27511   0.12913   0.08802   0.00000  Uiso   1.00
H32    H     0.22625   0.03759   0.28270   0.00000  Uiso   1.00
H33    H     0.10710   0.03789   0.21523   0.00000  Uiso   1.00
H34    H     0.02818   0.21000   0.31156   0.00000  Uiso   1.00
H35    H     0.29005   0.10854   0.49686   0.00000  Uiso   1.00
H36    H     0.14784   0.19602   0.08722   0.00000  Uiso   1.00
H37    H     0.05947   0.20413   0.40957   0.00000  Uiso   1.00
H38    H     0.09854   0.21162   0.04896   0.00000  Uiso   1.00
H39    H     0.04261   0.22632   0.00091   0.00000  Uiso   1.00
H40    H     0.22676   0.29625   0.28130   0.00000  Uiso   1.00
N41    N     0.04931   0.16666   0.24998   0.00000  Uiso   1.00
N42    N     0.28402   0.16669   0.24999   0.00000  Uiso   1.00
O43    O     0.12708   0.22678   0.25000   0.00000  Uiso   1.00
O44    O     0.20627   0.22679   0.25000   0.00000  Uiso   1.00
O45    O     0.10775   0.16665   0.32549   0.00000  Uiso   1.00
O46    O     0.18694   0.16666   0.32549   0.00000  Uiso   1.00
O47    O     0.12706   0.10654   0.24999   0.00000  Uiso   1.00
O48    O     0.20625   0.10655   0.24999   0.00000  Uiso   1.00
O49    O     0.14640   0.16667   0.17451   0.00000  Uiso   1.00
O50    O     0.22559   0.16668   0.17451   0.00000  Uiso   1.00
O51    O     0.09987   0.29146   0.20910   0.00000  Uiso   1.00
C52    C     0.11998   0.28515   0.15475   0.00000  Uiso   1.00
H53    H     0.09350   0.26770   0.13978   0.00000  Uiso   1.00
H54    H     0.15414   0.26644   0.14525   0.00000  Uiso   1.00
H55    H     0.12674   0.31500   0.13426   0.00000  Uiso   1.00
C56    C     0.26636   0.21855   0.32523   0.00000  Uiso   1.00
H57    H     0.23097   0.22742   0.32353   0.00000  Uiso   1.00
O58    O     0.27850   0.23203   0.36244   0.00000  Uiso   1.00
O59    O     0.06885   0.11735   0.18017   0.00000  Uiso   1.00
C60    C     0.07280   0.12843   0.12839   0.00000  Uiso   1.00
H61    H     0.10807   0.11649   0.10263   0.00000  Uiso   1.00
H62    H     0.07194   0.16244   0.12390   0.00000  Uiso   1.00
H63    H     0.04414   0.11381   0.11415   0.00000  Uiso   1.00
O64    O     0.30105   0.11348   0.18531   0.00000  Uiso   1.00
C65    C     0.30773   0.07239   0.19850   0.00000  Uiso   1.00
H66    H     0.28168   0.05257   0.18587   0.00000  Uiso   1.00
H67    H     0.30090   0.06852   0.24128   0.00000  Uiso   1.00
H68    H     0.01138   0.06078   0.17717   0.00000  Uiso   1.00
O69    O     0.26477   0.09025   0.41844   0.00000  Uiso   1.00
C70    C     0.29919   0.10825   0.37584   0.00000  Uiso   1.00
H71    H     0.31368   0.13752   0.38771   0.00000  Uiso   1.00
H72    H     0.28354   0.11362   0.34320   0.00000  Uiso   1.00
H73    H     0.33040   0.08660   0.36102   0.00000  Uiso   1.00
O74    O     0.18886   0.09849   0.37651   0.00000  Uiso   1.00
C75    C     0.15445   0.06774   0.39770   0.00000  Uiso   1.00
H76    H     0.11743   0.08111   0.41567   0.00000  Uiso   1.00
H77    H     0.16585   0.04933   0.42672   0.00000  Uiso   1.00
H78    H     0.15187   0.04634   0.36594   0.00000  Uiso   1.00
C79    C     0.50013   0.24588   0.24917   0.00000  Uiso   1.00
C80    C     0.48200   0.17282   0.48764   0.00000  Uiso   1.00
C81    C     0.48858   0.15603   0.43671   0.00000  Uiso   1.00
C82    C     0.51656   0.16289   0.01421   0.00000  Uiso   1.00
C83    C     0.55726   0.13703   0.48926   0.00000  Uiso   1.00
C84    C     0.56150   0.11885   0.44015   0.00000  Uiso   1.00
C85    C     0.52454   0.12505   0.41683   0.00000  Uiso   1.00
C86    C     0.51095   0.17648   0.06582   0.00000  Uiso   1.00
C87    C     0.58364   0.13968   0.06732   0.00000  Uiso   1.00
C88    C     0.45828   0.16990   0.40721   0.00000  Uiso   1.00
C89    C     0.53421   0.31218   0.26611   0.00000  Uiso   1.00
C90    C     0.47387   0.16633   0.34999   0.00000  Uiso   1.00
C91    C     0.53418   0.02143   0.26662   0.00000  Uiso   1.00
C92    C     0.50033   0.04285   0.24860   0.00000  Uiso   1.00
C93    C     0.46662   0.02149   0.22954   0.00000  Uiso   1.00
C94    C     0.46695   0.31198   0.22789   0.00000  Uiso   1.00
C95    C     0.50032   0.29054   0.24756   0.00000  Uiso   1.00
C96    C     0.63311   0.19139   0.28486   0.00000  Uiso   1.00
C97    C     0.34929   0.19081   0.28440   0.00000  Uiso   1.00
C98    C     0.36785   0.14216   0.21508   0.00000  Uiso   1.00
C99    C     0.65058   0.14058   0.21707   0.00000  Uiso   1.00
C100   C     0.50009   0.08745   0.24968   0.00000  Uiso   1.00
C101   C     0.52620   0.16658   0.15009   0.00000  Uiso   1.00
C102   C     0.59168   0.12752   0.01539   0.00000  Uiso   1.00
C103   C     0.54180   0.16236   0.09324   0.00000  Uiso   1.00
C104   C     0.41679   0.19381   0.43137   0.00000  Uiso   1.00
C105   C     0.40759   0.20716   0.48285   0.00000  Uiso   1.00
C106   C     0.44045   0.19818   0.01024   0.00000  Uiso   1.00
Cu107  Cu    0.45311   0.16666   0.25000   0.00000  Uiso   1.00
Cu108  Cu    0.54689   0.16667   0.25000   0.00000  Uiso   1.00
H109   H     0.60844   0.12913   0.08802   0.00000  Uiso   1.00
H110   H     0.55958   0.03759   0.28270   0.00000  Uiso   1.00
H111   H     0.44043   0.03789   0.21523   0.00000  Uiso   1.00
H112   H     0.36151   0.21000   0.31156   0.00000  Uiso   1.00
H113   H     0.62338   0.10854   0.49686   0.00000  Uiso   1.00
H114   H     0.48117   0.19602   0.08722   0.00000  Uiso   1.00
H115   H     0.39280   0.20413   0.40957   0.00000  Uiso   1.00
H116   H     0.43187   0.21162   0.04896   0.00000  Uiso   1.00
H117   H     0.37594   0.22632   0.00091   0.00000  Uiso   1.00
H118   H     0.56010   0.29625   0.28130   0.00000  Uiso   1.00
N119   N     0.38265   0.16666   0.24998   0.00000  Uiso   1.00
N120   N     0.61735   0.16669   0.24999   0.00000  Uiso   1.00
O121   O     0.46042   0.22678   0.25000   0.00000  Uiso   1.00
O122   O     0.53961   0.22679   0.25000   0.00000  Uiso   1.00
O123   O     0.44108   0.16665   0.32549   0.00000  Uiso   1.00
O124   O     0.52027   0.16666   0.32549   0.00000  Uiso   1.00
O125   O     0.46039   0.10654   0.24999   0.00000  Uiso   1.00
O126   O     0.53958   0.10655   0.24999   0.00000  Uiso   1.00
O127   O     0.47973   0.16667   0.17451   0.00000  Uiso   1.00
O128   O     0.55892   0.16668   0.17451   0.00000  Uiso   1.00
O129   O     0.43321   0.29146   0.20910   0.00000  Uiso   1.00
C130   C     0.45331   0.28515   0.15475   0.00000  Uiso   1.00
H131   H     0.42683   0.26770   0.13978   0.00000  Uiso   1.00
H132   H     0.48748   0.26644   0.14525   0.00000  Uiso   1.00
H133   H     0.46007   0.31500   0.13426   0.00000  Uiso   1.00
C134   C     0.59969   0.21855   0.32523   0.00000  Uiso   1.00
H135   H     0.56430   0.22742   0.32353   0.00000  Uiso   1.00
O136   O     0.61183   0.23203   0.36244   0.00000  Uiso   1.00
O137   O     0.40218   0.11735   0.18017   0.00000  Uiso   1.00
C138   C     0.40613   0.12843   0.12839   0.00000  Uiso   1.00
H139   H     0.44140   0.11649   0.10263   0.00000  Uiso   1.00
H140   H     0.40527   0.16244   0.12390   0.00000  Uiso   1.00
H141   H     0.37747   0.11381   0.11415   0.00000  Uiso   1.00
O142   O     0.63438   0.11348   0.18531   0.00000  Uiso   1.00
C143   C     0.64107   0.07239   0.19850   0.00000  Uiso   1.00
H144   H     0.61501   0.05257   0.18587   0.00000  Uiso   1.00
H145   H     0.63424   0.06852   0.24128   0.00000  Uiso   1.00
H146   H     0.34472   0.06078   0.17717   0.00000  Uiso   1.00
O147   O     0.59811   0.09025   0.41844   0.00000  Uiso   1.00
C148   C     0.63252   0.10825   0.37584   0.00000  Uiso   1.00
H149   H     0.64701   0.13752   0.38771   0.00000  Uiso   1.00
H150   H     0.61688   0.11362   0.34320   0.00000  Uiso   1.00
H151   H     0.66373   0.08660   0.36102   0.00000  Uiso   1.00
O152   O     0.52220   0.09849   0.37651   0.00000  Uiso   1.00
C153   C     0.48779   0.06774   0.39770   0.00000  Uiso   1.00
H154   H     0.45076   0.08111   0.41567   0.00000  Uiso   1.00
H155   H     0.49919   0.04933   0.42672   0.00000  Uiso   1.00
H156   H     0.48520   0.04634   0.36594   0.00000  Uiso   1.00
C157   C     0.83347   0.24588   0.24917   0.00000  Uiso   1.00
C158   C     0.81533   0.17282   0.48764   0.00000  Uiso   1.00
C159   C     0.82191   0.15603   0.43671   0.00000  Uiso   1.00
C160   C     0.84990   0.16289   0.01421   0.00000  Uiso   1.00
C161   C     0.89060   0.13703   0.48926   0.00000  Uiso   1.00
C162   C     0.89483   0.11885   0.44015   0.00000  Uiso   1.00
C163   C     0.85787   0.12505   0.41683   0.00000  Uiso   1.00
C164   C     0.84428   0.17648   0.06582   0.00000  Uiso   1.00
C165   C     0.91697   0.13968   0.06732   0.00000  Uiso   1.00
C166   C     0.79161   0.16990   0.40721   0.00000  Uiso   1.00
C167   C     0.86754   0.31218   0.26611   0.00000  Uiso   1.00
C168   C     0.80720   0.16633   0.34999   0.00000  Uiso   1.00
C169   C     0.86751   0.02143   0.26662   0.00000  Uiso   1.00
C170   C     0.83366   0.04285   0.24860   0.00000  Uiso   1.00
C171   C     0.79996   0.02149   0.22954   0.00000  Uiso   1.00
C172   C     0.80029   0.31198   0.22789   0.00000  Uiso   1.00
C173   C     0.83365   0.29054   0.24756   0.00000  Uiso   1.00
C174   C     0.96644   0.19139   0.28486   0.00000  Uiso   1.00
C175   C     0.68262   0.19081   0.28440   0.00000  Uiso   1.00
C176   C     0.70118   0.14216   0.21508   0.00000  Uiso   1.00
C177   C     0.98391   0.14058   0.21707   0.00000  Uiso   1.00
C178   C     0.83342   0.08745   0.24968   0.00000  Uiso   1.00
C179   C     0.85953   0.16658   0.15009   0.00000  Uiso   1.00
C180   C     0.92501   0.12752   0.01539   0.00000  Uiso   1.00
C181   C     0.87514   0.16236   0.09324   0.00000  Uiso   1.00
C182   C     0.75012   0.19381   0.43137   0.00000  Uiso   1.00
C183   C     0.74092   0.20716   0.48285   0.00000  Uiso   1.00
C184   C     0.77378   0.19818   0.01024   0.00000  Uiso   1.00
Cu185  Cu    0.78645   0.16666   0.25000   0.00000  Uiso   1.00
Cu186  Cu    0.88022   0.16667   0.25000   0.00000  Uiso   1.00
H187   H     0.94177   0.12913   0.08802   0.00000  Uiso   1.00
H188   H     0.89292   0.03759   0.28270   0.00000  Uiso   1.00
H189   H     0.77377   0.03789   0.21523   0.00000  Uiso   1.00
H190   H     0.69484   0.21000   0.31156   0.00000  Uiso   1.00
H191   H     0.95672   0.10854   0.49686   0.00000  Uiso   1.00
H192   H     0.81451   0.19602   0.08722   0.00000  Uiso   1.00
H193   H     0.72613   0.20413   0.40957   0.00000  Uiso   1.00
H194   H     0.76520   0.21162   0.04896   0.00000  Uiso   1.00
H195   H     0.70928   0.22632   0.00091   0.00000  Uiso   1.00
H196   H     0.89343   0.29625   0.28130   0.00000  Uiso   1.00
N197   N     0.71598   0.16666   0.24998   0.00000  Uiso   1.00
N198   N     0.95069   0.16669   0.24999   0.00000  Uiso   1.00
O199   O     0.79375   0.22678   0.25000   0.00000  Uiso   1.00
O200   O     0.87294   0.22679   0.25000   0.00000  Uiso   1.00
O201   O     0.77441   0.16665   0.32549   0.00000  Uiso   1.00
O202   O     0.85360   0.16666   0.32549   0.00000  Uiso   1.00
O203   O     0.79373   0.10654   0.24999   0.00000  Uiso   1.00
O204   O     0.87292   0.10655   0.24999   0.00000  Uiso   1.00
O205   O     0.81306   0.16667   0.17451   0.00000  Uiso   1.00
O206   O     0.89225   0.16668   0.17451   0.00000  Uiso   1.00
O207   O     0.76654   0.29146   0.20910   0.00000  Uiso   1.00
C208   C     0.78665   0.28515   0.15475   0.00000  Uiso   1.00
H209   H     0.76017   0.26770   0.13978   0.00000  Uiso   1.00
H210   H     0.82081   0.26644   0.14525   0.00000  Uiso   1.00
H211   H     0.79340   0.31500   0.13426   0.00000  Uiso   1.00
C212   C     0.93303   0.21855   0.32523   0.00000  Uiso   1.00
H213   H     0.89764   0.22742   0.32353   0.00000  Uiso   1.00
O214   O     0.94517   0.23203   0.36244   0.00000  Uiso   1.00
O215   O     0.73552   0.11735   0.18017   0.00000  Uiso   1.00
C216   C     0.73947   0.12843   0.12839   0.00000  Uiso   1.00
H217   H     0.77474   0.11649   0.10263   0.00000  Uiso   1.00
H218   H     0.73861   0.16244   0.12390   0.00000  Uiso   1.00
H219   H     0.71080   0.11381   0.11415   0.00000  Uiso   1.00
O220   O     0.96772   0.11348   0.18531   0.00000  Uiso   1.00
C221   C     0.97440   0.07239   0.19850   0.00000  Uiso   1.00
H222   H     0.94835   0.05257   0.18587   0.00000  Uiso   1.00
H223   H     0.96757   0.06852   0.24128   0.00000  Uiso   1.00
H224   H     0.67805   0.06078   0.17717   0.00000  Uiso   1.00
O225   O     0.93144   0.09025   0.41844   0.00000  Uiso   1.00
C226   C     0.96586   0.10825   0.37584   0.00000  Uiso   1.00
H227   H     0.98034   0.13752   0.38771   0.00000  Uiso   1.00
H228   H     0.95021   0.11362   0.34320   0.00000  Uiso   1.00
H229   H     0.99706   0.08660   0.36102   0.00000  Uiso   1.00
O230   O     0.85553   0.09849   0.37651   0.00000  Uiso   1.00
C231   C     0.82112   0.06774   0.39770   0.00000  Uiso   1.00
H232   H     0.78410   0.08111   0.41567   0.00000  Uiso   1.00
H233   H     0.83252   0.04933   0.42672   0.00000  Uiso   1.00
H234   H     0.81853   0.04634   0.36594   0.00000  Uiso   1.00
C235   C     0.16680   0.57922   0.24917   0.00000  Uiso   1.00
C236   C     0.14867   0.50615   0.48764   0.00000  Uiso   1.00
C237   C     0.15525   0.48937   0.43671   0.00000  Uiso   1.00
C238   C     0.18323   0.49622   0.01421   0.00000  Uiso   1.00
C239   C     0.22393   0.47036   0.48926   0.00000  Uiso   1.00
C240   C     0.22816   0.45218   0.44015   0.00000  Uiso   1.00
C241   C     0.19121   0.45839   0.41683   0.00000  Uiso   1.00
C242   C     0.17761   0.50982   0.06582   0.00000  Uiso   1.00
C243   C     0.25030   0.47301   0.06732   0.00000  Uiso   1.00
C244   C     0.12495   0.50324   0.40721   0.00000  Uiso   1.00
C245   C     0.20087   0.64551   0.26611   0.00000  Uiso   1.00
C246   C     0.14053   0.49967   0.34999   0.00000  Uiso   1.00
C247   C     0.20084   0.35476   0.26662   0.00000  Uiso   1.00
C248   C     0.16699   0.37618   0.24860   0.00000  Uiso   1.00
C249   C     0.13329   0.35482   0.22954   0.00000  Uiso   1.00
C250   C     0.13362   0.64531   0.22789   0.00000  Uiso   1.00
C251   C     0.16699   0.62387   0.24756   0.00000  Uiso   1.00
C252   C     0.29978   0.52472   0.28486   0.00000  Uiso   1.00
C253   C     0.01596   0.52414   0.28440   0.00000  Uiso   1.00
C254   C     0.03452   0.47550   0.21508   0.00000  Uiso   1.00
C255   C     0.31724   0.47392   0.21707   0.00000  Uiso   1.00
C256   C     0.16675   0.42078   0.24968   0.00000  Uiso   1.00
C257   C     0.19286   0.49991   0.15009   0.00000  Uiso   1.00
C258   C     0.25834   0.46085   0.01539   0.00000  Uiso   1.00
C259   C     0.20847   0.49570   0.09324   0.00000  Uiso   1.00
C260   C     0.08345   0.52714   0.43137   0.00000  Uiso   1.00
C261   C     0.07426   0.54049   0.48285   0.00000  Uiso   1.00
C262   C     0.10711   0.53151   0.01024   0.00000  Uiso   1.00
Cu263  Cu    0.11978   0.49999   0.25000   0.00000  Uiso   1.00
Cu264  Cu    0.21355   0.50001   0.25000   0.00000  Uiso   1.00
H265   H     0.27511   0.46246   0.08802   0.00000  Uiso   1.00
H266   H     0.22625   0.37092   0.28270   0.00000  Uiso   1.00
H267   H     0.10710   0.37122   0.21523   0.00000  Uiso   1.00
H268   H     0.02818   0.54334   0.31156   0.00000  Uiso   1.00
H269   H     0.29005   0.44187   0.49686   0.00000  Uiso   1.00
H270   H     0.14784   0.52935   0.08722   0.00000  Uiso   1.00
H271   H     0.05947   0.53747   0.40957   0.00000  Uiso   1.00
H272   H     0.09854   0.54495   0.04896   0.00000  Uiso   1.00
H273   H     0.04261   0.55965   0.00091   0.00000  Uiso   1.00
H274   H     0.22676   0.62958   0.28130   0.00000  Uiso   1.00
N275   N     0.04931   0.49999   0.24998   0.00000  Uiso   1.00
N276   N     0.28402   0.50002   0.24999   0.00000  Uiso   1.00
O277   O     0.12708   0.56011   0.25000   0.00000  Uiso   1.00
O278   O     0.20627   0.56012   0.25000   0.00000  Uiso   1.00
O279   O     0.10775   0.49998   0.32549   0.00000  Uiso   1.00
O280   O     0.18694   0.49999   0.32549   0.00000  Uiso   1.00
O281   O     0.12706   0.43988   0.24999   0.00000  Uiso   1.00
O282   O     0.20625   0.43989   0.24999   0.00000  Uiso   1.00
O283   O     0.14640   0.50001   0.17451   0.00000  Uiso   1.00
O284   O     0.22559   0.50002   0.17451   0.00000  Uiso   1.00
O285   O     0.09987   0.62479   0.20910   0.00000  Uiso   1.00
C286   C     0.11998   0.61848   0.15475   0.00000  Uiso   1.00
H287   H     0.09350   0.60103   0.13978   0.00000  Uiso   1.00
H288   H     0.15414   0.59978   0.14525   0.00000  Uiso   1.00
H289   H     0.12674   0.64833   0.13426   0.00000  Uiso   1.00
C290   C     0.26636   0.55188   0.32523   0.00000  Uiso   1.00
H291   H     0.23097   0.56075   0.32353   0.00000  Uiso   1.00
O292   O     0.27850   0.56536   0.36244   0.00000  Uiso   1.00
O293   O     0.06885   0.45068   0.18017   0.00000  Uiso   1.00
C294   C     0.07280   0.46177   0.12839   0.00000  Uiso   1.00
H295   H     0.10807   0.44982   0.10263   0.00000  Uiso   1.00
H296   H     0.07194   0.49577   0.12390   0.00000  Uiso   1.00
H297   H     0.04414   0.44714   0.11415   0.00000  Uiso   1.00
O298   O     0.30105   0.44681   0.18531   0.00000  Uiso   1.00
C299   C     0.30773   0.40572   0.19850   0.00000  Uiso   1.00
H300   H     0.28168   0.38591   0.18587   0.00000  Uiso   1.00
H301   H     0.30090   0.40186   0.24128   0.00000  Uiso   1.00
H302   H     0.01138   0.39411   0.17717   0.00000  Uiso   1.00
O303   O     0.26477   0.42358   0.41844   0.00000  Uiso   1.00
C304   C     0.29919   0.44158   0.37584   0.00000  Uiso   1.00
H305   H     0.31368   0.47085   0.38771   0.00000  Uiso   1.00
H306   H     0.28354   0.44696   0.34320   0.00000  Uiso   1.00
H307   H     0.33040   0.41993   0.36102   0.00000  Uiso   1.00
O308   O     0.18886   0.43182   0.37651   0.00000  Uiso   1.00
C309   C     0.15445   0.40108   0.39770   0.00000  Uiso   1.00
H310   H     0.11743   0.41445   0.41567   0.00000  Uiso   1.00
H311   H     0.16585   0.38266   0.42672   0.00000  Uiso   1.00
H312   H     0.15187   0.37967   0.36594   0.00000  Uiso   1.00
C313   C     0.50013   0.57922   0.24917   0.00000  Uiso   1.00
C314   C     0.48200   0.50615   0.48764   0.00000  Uiso   1.00
C315   C     0.48858   0.48937   0.43671   0.00000  Uiso   1.00
C316   C     0.51656   0.49622   0.01421   0.00000  Uiso   1.00
C317   C     0.55726   0.47036   0.48926   0.00000  Uiso   1.00
C318   C     0.56150   0.45218   0.44015   0.00000  Uiso   1.00
C319   C     0.52454   0.45839   0.41683   0.00000  Uiso   1.00
C320   C     0.51095   0.50982   0.06582   0.00000  Uiso   1.00
C321   C     0.58364   0.47301   0.06732   0.00000  Uiso   1.00
C322   C     0.45828   0.50324   0.40721   0.00000  Uiso   1.00
C323   C     0.53421   0.64551   0.26611   0.00000  Uiso   1.00
C324   C     0.47387   0.49967   0.34999   0.00000  Uiso   1.00
C325   C     0.53418   0.35476   0.26662   0.00000  Uiso   1.00
C326   C     0.50033   0.37618   0.24860   0.00000  Uiso   1.00
C327   C     0.46662   0.35482   0.22954   0.00000  Uiso   1.00
C328   C     0.46695   0.64531   0.22789   0.00000  Uiso   1.00
C329   C     0.50032   0.62387   0.24756   0.00000  Uiso   1.00
C330   C     0.63311   0.52472   0.28486   0.00000  Uiso   1.00
C331   C     0.34929   0.52414   0.28440   0.00000  Uiso   1.00
C332   C     0.36785   0.47550   0.21508   0.00000  Uiso   1.00
C333   C     0.65058   0.47392   0.21707   0.00000  Uiso   1.00
C334   C     0.50009   0.42078   0.24968   0.00000  Uiso   1.00
C335   C     0.52620   0.49991   0.15009   0.00000  Uiso   1.00
C336   C     0.59168   0.46085   0.01539   0.00000  Uiso   1.00
C337   C     0.54180   0.49570   0.09324   0.00000  Uiso   1.00
C338   C     0.41679   0.52714   0.43137   0.00000  Uiso   1.00
C339   C     0.40759   0.54049   0.48285   0.00000  Uiso   1.00
C340   C     0.44045   0.53151   0.01024   0.00000  Uiso   1.00
Cu341  Cu    0.45311   0.49999   0.25000   0.00000  Uiso   1.00
Cu342  Cu    0.54689   0.50001   0.25000   0.00000  Uiso   1.00
H343   H     0.60844   0.46246   0.08802   0.00000  Uiso   1.00
H344   H     0.55958   0.37092   0.28270   0.00000  Uiso   1.00
H345   H     0.44043   0.37122   0.21523   0.00000  Uiso   1.00
H346   H     0.36151   0.54334   0.31156   0.00000  Uiso   1.00
H347   H     0.62338   0.44187   0.49686   0.00000  Uiso   1.00
H348   H     0.48117   0.52935   0.08722   0.00000  Uiso   1.00
H349   H     0.39280   0.53747   0.40957   0.00000  Uiso   1.00
H350   H     0.43187   0.54495   0.04896   0.00000  Uiso   1.00
H351   H     0.37594   0.55965   0.00091   0.00000  Uiso   1.00
H352   H     0.56010   0.62958   0.28130   0.00000  Uiso   1.00
N353   N     0.38265   0.49999   0.24998   0.00000  Uiso   1.00
N354   N     0.61735   0.50002   0.24999   0.00000  Uiso   1.00
O355   O     0.46042   0.56011   0.25000   0.00000  Uiso   1.00
O356   O     0.53961   0.56012   0.25000   0.00000  Uiso   1.00
O357   O     0.44108   0.49998   0.32549   0.00000  Uiso   1.00
O358   O     0.52027   0.49999   0.32549   0.00000  Uiso   1.00
O359   O     0.46039   0.43988   0.24999   0.00000  Uiso   1.00
O360   O     0.53958   0.43989   0.24999   0.00000  Uiso   1.00
O361   O     0.47973   0.50001   0.17451   0.00000  Uiso   1.00
O362   O     0.55892   0.50002   0.17451   0.00000  Uiso   1.00
O363   O     0.43321   0.62479   0.20910   0.00000  Uiso   1.00
C364   C     0.45331   0.61848   0.15475   0.00000  Uiso   1.00
H365   H     0.42683   0.60103   0.13978   0.00000  Uiso   1.00
H366   H     0.48748   0.59978   0.14525   0.00000  Uiso   1.00
H367   H     0.46007   0.64833   0.13426   0.00000  Uiso   1.00
C368   C     0.59969   0.55188   0.32523   0.00000  Uiso   1.00
H369   H     0.56430   0.56075   0.32353   0.00000  Uiso   1.00
O370   O     0.61183   0.56536   0.36244   0.00000  Uiso   1.00
O371   O     0.40218   0.45068   0.18017   0.00000  Uiso   1.00
C372   C     0.40613   0.46177   0.12839   0.00000  Uiso   1.00
H373   H     0.44140   0.44982   0.10263   0.00000  Uiso   1.00
H374   H     0.40527   0.49577   0.12390   0.00000  Uiso   1.00
H375   H     0.37747   0.44714   0.11415   0.00000  Uiso   1.00
O376   O     0.63438   0.44681   0.18531   0.00000  Uiso   1.00
C377   C     0.64107   0.40572   0.19850   0.00000  Uiso   1.00
H378   H     0.61501   0.38591   0.18587   0.00000  Uiso   1.00
H379   H     0.63424   0.40186   0.24128   0.00000  Uiso   1.00
H380   H     0.34472   0.39411   0.17717   0.00000  Uiso   1.00
O381   O     0.59811   0.42358   0.41844   0.00000  Uiso   1.00
C382   C     0.63252   0.44158   0.37584   0.00000  Uiso   1.00
H383   H     0.64701   0.47085   0.38771   0.00000  Uiso   1.00
H384   H     0.61688   0.44696   0.34320   0.00000  Uiso   1.00
H385   H     0.66373   0.41993   0.36102   0.00000  Uiso   1.00
O386   O     0.52220   0.43182   0.37651   0.00000  Uiso   1.00
C387   C     0.48779   0.40108   0.39770   0.00000  Uiso   1.00
H388   H     0.45076   0.41445   0.41567   0.00000  Uiso   1.00
H389   H     0.49919   0.38266   0.42672   0.00000  Uiso   1.00
H390   H     0.48520   0.37967   0.36594   0.00000  Uiso   1.00
C391   C     0.83347   0.57922   0.24917   0.00000  Uiso   1.00
C392   C     0.81533   0.50615   0.48764   0.00000  Uiso   1.00
C393   C     0.82191   0.48937   0.43671   0.00000  Uiso   1.00
C394   C     0.84990   0.49622   0.01421   0.00000  Uiso   1.00
C395   C     0.89060   0.47036   0.48926   0.00000  Uiso   1.00
C396   C     0.89483   0.45218   0.44015   0.00000  Uiso   1.00
C397   C     0.85787   0.45839   0.41683   0.00000  Uiso   1.00
C398   C     0.84428   0.50982   0.06582   0.00000  Uiso   1.00
C399   C     0.91697   0.47301   0.06732   0.00000  Uiso   1.00
C400   C     0.79161   0.50324   0.40721   0.00000  Uiso   1.00
C401   C     0.86754   0.64551   0.26611   0.00000  Uiso   1.00
C402   C     0.80720   0.49967   0.34999   0.00000  Uiso   1.00
C403   C     0.86751   0.35476   0.26662   0.00000  Uiso   1.00
C404   C     0.83366   0.37618   0.24860   0.00000  Uiso   1.00
C405   C     0.79996   0.35482   0.22954   0.00000  Uiso   1.00
C406   C     0.80029   0.64531   0.22789   0.00000  Uiso   1.00
C407   C     0.83365   0.62387   0.24756   0.00000  Uiso   1.00
C408   C     0.96644   0.52472   0.28486   0.00000  Uiso   1.00
C409   C     0.68262   0.52414   0.28440   0.00000  Uiso   1.00
C410   C     0.70118   0.47550   0.21508   0.00000  Uiso   1.00
C411   C     0.98391   0.47392   0.21707   0.00000  Uiso   1.00
C412   C     0.83342   0.42078   0.24968   0.00000  Uiso   1.00
C413   C     0.85953   0.49991   0.15009   0.00000  Uiso   1.00
C414   C     0.92501   0.46085   0.01539   0.00000  Uiso   1.00
C415   C     0.87514   0.49570   0.09324   0.00000  Uiso   1.00
C416   C     0.75012   0.52714   0.43137   0.00000  Uiso   1.00
C417   C     0.74092   0.54049   0.48285   0.00000  Uiso   1.00
C418   C     0.77378   0.53151   0.01024   0.00000  Uiso   1.00
Cu419  Cu    0.78645   0.49999   0.25000   0.00000  Uiso   1.00
Cu420  Cu    0.88022   0.50001   0.25000   0.00000  Uiso   1.00
H421   H     0.94177   0.46246   0.08802   0.00000  Uiso   1.00
H422   H     0.89292   0.37092   0.28270   0.00000  Uiso   1.00
H423   H     0.77377   0.37122   0.21523   0.00000  Uiso   1.00
H424   H     0.69484   0.54334   0.31156   0.00000  Uiso   1.00
H425   H     0.95672   0.44187   0.49686   0.00000  Uiso   1.00
H426   H     0.81451   0.52935   0.08722   0.00000  Uiso   1.00
H427   H     0.72613   0.53747   0.40957   0.00000  Uiso   1.00
H428   H     0.76520   0.54495   0.04896   0.00000  Uiso   1.00
H429   H     0.70928   0.55965   0.00091   0.00000  Uiso   1.00
H430   H     0.89343   0.62958   0.28130   0.00000  Uiso   1.00
N431   N     0.71598   0.49999   0.24998   0.00000  Uiso   1.00
N432   N     0.95069   0.50002   0.24999   0.00000  Uiso   1.00
O433   O     0.79375   0.56011   0.25000   0.00000  Uiso   1.00
O434   O     0.87294   0.56012   0.25000   0.00000  Uiso   1.00
O435   O     0.77441   0.49998   0.32549   0.00000  Uiso   1.00
O436   O     0.85360   0.49999   0.32549   0.00000  Uiso   1.00
O437   O     0.79373   0.43988   0.24999   0.00000  Uiso   1.00
O438   O     0.87292   0.43989   0.24999   0.00000  Uiso   1.00
O439   O     0.81306   0.50001   0.17451   0.00000  Uiso   1.00
O440   O     0.89225   0.50002   0.17451   0.00000  Uiso   1.00
O441   O     0.76654   0.62479   0.20910   0.00000  Uiso   1.00
C442   C     0.78665   0.61848   0.15475   0.00000  Uiso   1.00
H443   H     0.76017   0.60103   0.13978   0.00000  Uiso   1.00
H444   H     0.82081   0.59978   0.14525   0.00000  Uiso   1.00
H445   H     0.79340   0.64833   0.13426   0.00000  Uiso   1.00
C446   C     0.93303   0.55188   0.32523   0.00000  Uiso   1.00
H447   H     0.89764   0.56075   0.32353   0.00000  Uiso   1.00
O448   O     0.94517   0.56536   0.36244   0.00000  Uiso   1.00
O449   O     0.73552   0.45068   0.18017   0.00000  Uiso   1.00
C450   C     0.73947   0.46177   0.12839   0.00000  Uiso   1.00
H451   H     0.77474   0.44982   0.10263   0.00000  Uiso   1.00
H452   H     0.73861   0.49577   0.12390   0.00000  Uiso   1.00
H453   H     0.71080   0.44714   0.11415   0.00000  Uiso   1.00
O454   O     0.96772   0.44681   0.18531   0.00000  Uiso   1.00
C455   C     0.97440   0.40572   0.19850   0.00000  Uiso   1.00
H456   H     0.94835   0.38591   0.18587   0.00000  Uiso   1.00
H457   H     0.96757   0.40186   0.24128   0.00000  Uiso   1.00
H458   H     0.67805   0.39411   0.17717   0.00000  Uiso   1.00
O459   O     0.93144   0.42358   0.41844   0.00000  Uiso   1.00
C460   C     0.96586   0.44158   0.37584   0.00000  Uiso   1.00
H461   H     0.98034   0.47085   0.38771   0.00000  Uiso   1.00
H462   H     0.95021   0.44696   0.34320   0.00000  Uiso   1.00
H463   H     0.99706   0.41993   0.36102   0.00000  Uiso   1.00
O464   O     0.85553   0.43182   0.37651   0.00000  Uiso   1.00
C465   C     0.82112   0.40108   0.39770   0.00000  Uiso   1.00
H466   H     0.78410   0.41445   0.41567   0.00000  Uiso   1.00
H467   H     0.83252   0.38266   0.42672   0.00000  Uiso   1.00
H468   H     0.81853   0.37967   0.36594   0.00000  Uiso   1.00
C469   C     0.16680   0.91255   0.24917   0.00000  Uiso   1.00
C470   C     0.14867   0.83949   0.48764   0.00000  Uiso   1.00
C471   C     0.15525   0.82270   0.43671   0.00000  Uiso   1.00
C472   C     0.18323   0.82955   0.01421   0.00000  Uiso   1.00
C473   C     0.22393   0.80369   0.48926   0.00000  Uiso   1.00
C474   C     0.22816   0.78551   0.44015   0.00000  Uiso   1.00
C475   C     0.19121   0.79172   0.41683   0.00000  Uiso   1.00
C476   C     0.17761   0.84315   0.06582   0.00000  Uiso   1.00
C477   C     0.25030   0.80634   0.06732   0.00000  Uiso   1.00
C478   C     0.12495   0.83657   0.40721   0.00000  Uiso   1.00
C479   C     0.20087   0.97884   0.26611   0.00000  Uiso   1.00
C480   C     0.14053   0.83300   0.34999   0.00000  Uiso   1.00
C481   C     0.20084   0.68809   0.26662   0.00000  Uiso   1.00
C482   C     0.16699   0.70951   0.24860   0.00000  Uiso   1.00
C483   C     0.13329   0.68815   0.22954   0.00000  Uiso   1.00
C484   C     0.13362   0.97864   0.22789   0.00000  Uiso   1.00
C485   C     0.16699   0.95720   0.24756   0.00000  Uiso   1.00
C486   C     0.29978   0.85806   0.28486   0.00000  Uiso   1.00
C487   C     0.01596   0.85748   0.28440   0.00000  Uiso   1.00
C488   C     0.03452   0.80883   0.21508   0.00000  Uiso   1.00
C489   C     0.31724   0.80725   0.21707   0.00000  Uiso   1.00
C490   C     0.16675   0.75412   0.24968   0.00000  Uiso   1.00
C491   C     0.19286   0.83325   0.15009   0.00000  Uiso   1.00
C492   C     0.25834   0.79418   0.01539   0.00000  Uiso   1.00
C493   C     0.20847   0.82903   0.09324   0.00000  Uiso   1.00
C494   C     0.08345   0.86047   0.43137   0.00000  Uiso   1.00
C495   C     0.07426   0.87383   0.48285   0.00000  Uiso   1.00
C496   C     0.10711   0.86484   0.01024   0.00000  Uiso   1.00
Cu497  Cu    0.11978   0.83333   0.25000   0.00000  Uiso   1.00
Cu498  Cu    0.21355   0.83334   0.25000   0.00000  Uiso   1.00
H499   H     0.27511   0.79580   0.08802   0.00000  Uiso   1.00
H500   H     0.22625   0.70426   0.28270   0.00000  Uiso   1.00
H501   H     0.10710   0.70456   0.21523   0.00000  Uiso   1.00
H502   H     0.02818   0.87667   0.31156   0.00000  Uiso   1.00
H503   H     0.29005   0.77520   0.49686   0.00000  Uiso   1.00
H504   H     0.14784   0.86269   0.08722   0.00000  Uiso   1.00
H505   H     0.05947   0.87080   0.40957   0.00000  Uiso   1.00
H506   H     0.09854   0.87829   0.04896   0.00000  Uiso   1.00
H507   H     0.04261   0.89298   0.00091   0.00000  Uiso   1.00
H508   H     0.22676   0.96292   0.28130   0.00000  Uiso   1.00
N509   N     0.04931   0.83332   0.24998   0.00000  Uiso   1.00
N510   N     0.28402   0.83335   0.24999   0.00000  Uiso   1.00
O511   O     0.12708   0.89345   0.25000   0.00000  Uiso   1.00
O512   O     0.20627   0.89346   0.25000   0.00000  Uiso   1.00
O513   O     0.10775   0.83332   0.32549   0.00000  Uiso   1.00
O514   O     0.18694   0.83333   0.32549   0.00000  Uiso   1.00
O515   O     0.12706   0.77321   0.24999   0.00000  Uiso   1.00
O516   O     0.20625   0.77322   0.24999   0.00000  Uiso   1.00
O517   O     0.14640   0.83334   0.17451   0.00000  Uiso   1.00
O518   O     0.22559   0.83335   0.17451   0.00000  Uiso   1.00
O519   O     0.09987   0.95812   0.20910   0.00000  Uiso   1.00
C520   C     0.11998   0.95181   0.15475   0.00000  Uiso   1.00
H521   H     0.09350   0.93437   0.13978   0.00000  Uiso   1.00
H522   H     0.15414   0.93311   0.14525   0.00000  Uiso   1.00
H523   H     0.12674   0.98166   0.13426   0.00000  Uiso   1.00
C524   C     0.26636   0.88522   0.32523   0.00000  Uiso   1.00
H525   H     0.23097   0.89409   0.32353   0.00000  Uiso   1.00
O526   O     0.27850   0.89869   0.36244   0.00000  Uiso   1.00
O527   O     0.06885   0.78401   0.18017   0.00000  Uiso   1.00
C528   C     0.07280   0.79510   0.12839   0.00000  Uiso   1.00
H529   H     0.10807   0.78316   0.10263   0.00000  Uiso   1.00
H530   H     0.07194   0.82911   0.12390   0.00000  Uiso   1.00
H531   H     0.04414   0.78047   0.11415   0.00000  Uiso   1.00
O532   O     0.30105   0.78015   0.18531   0.00000  Uiso   1.00
C533   C     0.30773   0.73905   0.19850   0.00000  Uiso   1.00
H534   H     0.28168   0.71924   0.18587   0.00000  Uiso   1.00
H535   H     0.30090   0.73519   0.24128   0.00000  Uiso   1.00
H536   H     0.01138   0.72745   0.17717   0.00000  Uiso   1.00
O537   O     0.26477   0.75691   0.41844   0.00000  Uiso   1.00
C538   C     0.29919   0.77492   0.37584   0.00000  Uiso   1.00
H539   H     0.31368   0.80419   0.38771   0.00000  Uiso   1.00
H540   H     0.28354   0.78029   0.34320   0.00000  Uiso   1.00
H541   H     0.33040   0.75327   0.36102   0.00000  Uiso   1.00
O542   O     0.18886   0.76516   0.37651   0.00000  Uiso   1.00
C543   C     0.15445   0.73441   0.39770   0.00000  Uiso   1.00
H544   H     0.11743   0.74778   0.41567   0.00000  Uiso   1.00
H545   H     0.16585   0.71600   0.42672   0.00000  Uiso   1.00
H546   H     0.15187   0.71301   0.36594   0.00000  Uiso   1.00
C547   C     0.50013   0.91255   0.24917   0.00000  Uiso   1.00
C548   C     0.48200   0.83949   0.48764   0.00000  Uiso   1.00
C549   C     0.48858   0.82270   0.43671   0.00000  Uiso   1.00
C550   C     0.51656   0.82955   0.01421   0.00000  Uiso   1.00
C551   C     0.55726   0.80369   0.48926   0.00000  Uiso   1.00
C552   C     0.56150   0.78551   0.44015   0.00000  Uiso   1.00
C553   C     0.52454   0.79172   0.41683   0.00000  Uiso   1.00
C554   C     0.51095   0.84315   0.06582   0.00000  Uiso   1.00
C555   C     0.58364   0.80634   0.06732   0.00000  Uiso   1.00
C556   C     0.45828   0.83657   0.40721   0.00000  Uiso   1.00
C557   C     0.53421   0.97884   0.26611   0.00000  Uiso   1.00
C558   C     0.47387   0.83300   0.34999   0.00000  Uiso   1.00
C559   C     0.53418   0.68809   0.26662   0.00000  Uiso   1.00
C560   C     0.50033   0.70951   0.24860   0.00000  Uiso   1.00
C561   C     0.46662   0.68815   0.22954   0.00000  Uiso   1.00
C562   C     0.46695   0.97864   0.22789   0.00000  Uiso   1.00
C563   C     0.50032   0.95720   0.24756   0.00000  Uiso   1.00
C564   C     0.63311   0.85806   0.28486   0.00000  Uiso   1.00
C565   C     0.34929   0.85748   0.28440   0.00000  Uiso   1.00
C566   C     0.36785   0.80883   0.21508   0.00000  Uiso   1.00
C567   C     0.65058   0.80725   0.21707   0.00000  Uiso   1.00
C568   C     0.50009   0.75412   0.24968   0.00000  Uiso   1.00
C569   C     0.52620   0.83325   0.15009   0.00000  Uiso   1.00
C570   C     0.59168   0.79418   0.01539   0.00000  Uiso   1.00
C571   C     0.54180   0.82903   0.09324   0.00000  Uiso   1.00
C572   C     0.41679   0.86047   0.43137   0.00000  Uiso   1.00
C573   C     0.40759   0.87383   0.48285   0.00000  Uiso   1.00
C574   C     0.44045   0.86484   0.01024   0.00000  Uiso   1.00
Cu575  Cu    0.45311   0.83333   0.25000   0.00000  Uiso   1.00
Cu576  Cu    0.54689   0.83334   0.25000   0.00000  Uiso   1.00
H577   H     0.60844   0.79580   0.08802   0.00000  Uiso   1.00
H578   H     0.55958   0.70426   0.28270   0.00000  Uiso   1.00
H579   H     0.44043   0.70456   0.21523   0.00000  Uiso   1.00
H580   H     0.36151   0.87667   0.31156   0.00000  Uiso   1.00
H581   H     0.62338   0.77520   0.49686   0.00000  Uiso   1.00
H582   H     0.48117   0.86269   0.08722   0.00000  Uiso   1.00
H583   H     0.39280   0.87080   0.40957   0.00000  Uiso   1.00
H584   H     0.43187   0.87829   0.04896   0.00000  Uiso   1.00
H585   H     0.37594   0.89298   0.00091   0.00000  Uiso   1.00
H586   H     0.56010   0.96292   0.28130   0.00000  Uiso   1.00
N587   N     0.38265   0.83332   0.24998   0.00000  Uiso   1.00
N588   N     0.61735   0.83335   0.24999   0.00000  Uiso   1.00
O589   O     0.46042   0.89345   0.25000   0.00000  Uiso   1.00
O590   O     0.53961   0.89346   0.25000   0.00000  Uiso   1.00
O591   O     0.44108   0.83332   0.32549   0.00000  Uiso   1.00
O592   O     0.52027   0.83333   0.32549   0.00000  Uiso   1.00
O593   O     0.46039   0.77321   0.24999   0.00000  Uiso   1.00
O594   O     0.53958   0.77322   0.24999   0.00000  Uiso   1.00
O595   O     0.47973   0.83334   0.17451   0.00000  Uiso   1.00
O596   O     0.55892   0.83335   0.17451   0.00000  Uiso   1.00
O597   O     0.43321   0.95812   0.20910   0.00000  Uiso   1.00
C598   C     0.45331   0.95181   0.15475   0.00000  Uiso   1.00
H599   H     0.42683   0.93437   0.13978   0.00000  Uiso   1.00
H600   H     0.48748   0.93311   0.14525   0.00000  Uiso   1.00
H601   H     0.46007   0.98166   0.13426   0.00000  Uiso   1.00
C602   C     0.59969   0.88522   0.32523   0.00000  Uiso   1.00
H603   H     0.56430   0.89409   0.32353   0.00000  Uiso   1.00
O604   O     0.61183   0.89869   0.36244   0.00000  Uiso   1.00
O605   O     0.40218   0.78401   0.18017   0.00000  Uiso   1.00
C606   C     0.40613   0.79510   0.12839   0.00000  Uiso   1.00
H607   H     0.44140   0.78316   0.10263   0.00000  Uiso   1.00
H608   H     0.40527   0.82911   0.12390   0.00000  Uiso   1.00
H609   H     0.37747   0.78047   0.11415   0.00000  Uiso   1.00
O610   O     0.63438   0.78015   0.18531   0.00000  Uiso   1.00
C611   C     0.64107   0.73905   0.19850   0.00000  Uiso   1.00
H612   H     0.61501   0.71924   0.18587   0.00000  Uiso   1.00
H613   H     0.63424   0.73519   0.24128   0.00000  Uiso   1.00
H614   H     0.34472   0.72745   0.17717   0.00000  Uiso   1.00
O615   O     0.59811   0.75691   0.41844   0.00000  Uiso   1.00
C616   C     0.63252   0.77492   0.37584   0.00000  Uiso   1.00
H617   H     0.64701   0.80419   0.38771   0.00000  Uiso   1.00
H618   H     0.61688   0.78029   0.34320   0.00000  Uiso   1.00
H619   H     0.66373   0.75327   0.36102   0.00000  Uiso   1.00
O620   O     0.52220   0.76516   0.37651   0.00000  Uiso   1.00
C621   C     0.48779   0.73441   0.39770   0.00000  Uiso   1.00
H622   H     0.45076   0.74778   0.41567   0.00000  Uiso   1.00
H623   H     0.49919   0.71600   0.42672   0.00000  Uiso   1.00
H624   H     0.48520   0.71301   0.36594   0.00000  Uiso   1.00
C625   C     0.83347   0.91255   0.24917   0.00000  Uiso   1.00
C626   C     0.81533   0.83949   0.48764   0.00000  Uiso   1.00
C627   C     0.82191   0.82270   0.43671   0.00000  Uiso   1.00
C628   C     0.84990   0.82955   0.01421   0.00000  Uiso   1.00
C629   C     0.89060   0.80369   0.48926   0.00000  Uiso   1.00
C630   C     0.89483   0.78551   0.44015   0.00000  Uiso   1.00
C631   C     0.85787   0.79172   0.41683   0.00000  Uiso   1.00
C632   C     0.84428   0.84315   0.06582   0.00000  Uiso   1.00
C633   C     0.91697   0.80634   0.06732   0.00000  Uiso   1.00
C634   C     0.79161   0.83657   0.40721   0.00000  Uiso   1.00
C635   C     0.86754   0.97884   0.26611   0.00000  Uiso   1.00
C636   C     0.80720   0.83300   0.34999   0.00000  Uiso   1.00
C637   C     0.86751   0.68809   0.26662   0.00000  Uiso   1.00
C638   C     0.83366   0.70951   0.24860   0.00000  Uiso   1.00
C639   C     0.79996   0.68815   0.22954   0.00000  Uiso   1.00
C640   C     0.80029   0.97864   0.22789   0.00000  Uiso   1.00
C641   C     0.83365   0.95720   0.24756   0.00000  Uiso   1.00
C642   C     0.96644   0.85806   0.28486   0.00000  Uiso   1.00
C643   C     0.68262   0.85748   0.28440   0.00000  Uiso   1.00
C644   C     0.70118   0.80883   0.21508   0.00000  Uiso   1.00
C645   C     0.98391   0.80725   0.21707   0.00000  Uiso   1.00
C646   C     0.83342   0.75412   0.24968   0.00000  Uiso   1.00
C647   C     0.85953   0.83325   0.15009   0.00000  Uiso   1.00
C648   C     0.92501   0.79418   0.01539   0.00000  Uiso   1.00
C649   C     0.87514   0.82903   0.09324   0.00000  Uiso   1.00
C650   C     0.75012   0.86047   0.43137   0.00000  Uiso   1.00
C651   C     0.74092   0.87383   0.48285   0.00000  Uiso   1.00
C652   C     0.77378   0.86484   0.01024   0.00000  Uiso   1.00
Cu653  Cu    0.78645   0.83333   0.25000   0.00000  Uiso   1.00
Cu654  Cu    0.88022   0.83334   0.25000   0.00000  Uiso   1.00
H655   H     0.94177   0.79580   0.08802   0.00000  Uiso   1.00
H656   H     0.89292   0.70426   0.28270   0.00000  Uiso   1.00
H657   H     0.77377   0.70456   0.21523   0.00000  Uiso   1.00
H658   H     0.69484   0.87667   0.31156   0.00000  Uiso   1.00
H659   H     0.95672   0.77520   0.49686   0.00000  Uiso   1.00
H660   H     0.81451   0.86269   0.08722   0.00000  Uiso   1.00
H661   H     0.72613   0.87080   0.40957   0.00000  Uiso   1.00
H662   H     0.76520   0.87829   0.04896   0.00000  Uiso   1.00
H663   H     0.70928   0.89298   0.00091   0.00000  Uiso   1.00
H664   H     0.89343   0.96292   0.28130   0.00000  Uiso   1.00
N665   N     0.71598   0.83332   0.24998   0.00000  Uiso   1.00
N666   N     0.95069   0.83335   0.24999   0.00000  Uiso   1.00
O667   O     0.79375   0.89345   0.25000   0.00000  Uiso   1.00
O668   O     0.87294   0.89346   0.25000   0.00000  Uiso   1.00
O669   O     0.77441   0.83332   0.32549   0.00000  Uiso   1.00
O670   O     0.85360   0.83333   0.32549   0.00000  Uiso   1.00
O671   O     0.79373   0.77321   0.24999   0.00000  Uiso   1.00
O672   O     0.87292   0.77322   0.24999   0.00000  Uiso   1.00
O673   O     0.81306   0.83334   0.17451   0.00000  Uiso   1.00
O674   O     0.89225   0.83335   0.17451   0.00000  Uiso   1.00
O675   O     0.76654   0.95812   0.20910   0.00000  Uiso   1.00
C676   C     0.78665   0.95181   0.15475   0.00000  Uiso   1.00
H677   H     0.76017   0.93437   0.13978   0.00000  Uiso   1.00
H678   H     0.82081   0.93311   0.14525   0.00000  Uiso   1.00
H679   H     0.79340   0.98166   0.13426   0.00000  Uiso   1.00
C680   C     0.93303   0.88522   0.32523   0.00000  Uiso   1.00
H681   H     0.89764   0.89409   0.32353   0.00000  Uiso   1.00
O682   O     0.94517   0.89869   0.36244   0.00000  Uiso   1.00
O683   O     0.73552   0.78401   0.18017   0.00000  Uiso   1.00
C684   C     0.73947   0.79510   0.12839   0.00000  Uiso   1.00
H685   H     0.77474   0.78316   0.10263   0.00000  Uiso   1.00
H686   H     0.73861   0.82911   0.12390   0.00000  Uiso   1.00
H687   H     0.71080   0.78047   0.11415   0.00000  Uiso   1.00
O688   O     0.96772   0.78015   0.18531   0.00000  Uiso   1.00
C689   C     0.97440   0.73905   0.19850   0.00000  Uiso   1.00
H690   H     0.94835   0.71924   0.18587   0.00000  Uiso   1.00
H691   H     0.96757   0.73519   0.24128   0.00000  Uiso   1.00
H692   H     0.67805   0.72745   0.17717   0.00000  Uiso   1.00
O693   O     0.93144   0.75691   0.41844   0.00000  Uiso   1.00
C694   C     0.96586   0.77492   0.37584   0.00000  Uiso   1.00
H695   H     0.98034   0.80419   0.38771   0.00000  Uiso   1.00
H696   H     0.95021   0.78029   0.34320   0.00000  Uiso   1.00
H697   H     0.99706   0.75327   0.36102   0.00000  Uiso   1.00
O698   O     0.85553   0.76516   0.37651   0.00000  Uiso   1.00
C699   C     0.82112   0.73441   0.39770   0.00000  Uiso   1.00
H700   H     0.78410   0.74778   0.41567   0.00000  Uiso   1.00
H701   H     0.83252   0.71600   0.42672   0.00000  Uiso   1.00
H702   H     0.81853   0.71301   0.36594   0.00000  Uiso   1.00
C703   C     0.16680   0.24588   0.74917   0.00000  Uiso   1.00
C704   C     0.14867   0.17282   0.98764   0.00000  Uiso   1.00
C705   C     0.15525   0.15603   0.93671   0.00000  Uiso   1.00
C706   C     0.18323   0.16289   0.51421   0.00000  Uiso   1.00
C707   C     0.22393   0.13703   0.98926   0.00000  Uiso   1.00
C708   C     0.22816   0.11885   0.94015   0.00000  Uiso   1.00
C709   C     0.19121   0.12505   0.91683   0.00000  Uiso   1.00
C710   C     0.17761   0.17648   0.56582   0.00000  Uiso   1.00
C711   C     0.25030   0.13968   0.56732   0.00000  Uiso   1.00
C712   C     0.12495   0.16990   0.90721   0.00000  Uiso   1.00
C713   C     0.20087   0.31218   0.76611   0.00000  Uiso   1.00
C714   C     0.14053   0.16633   0.84999   0.00000  Uiso   1.00
C715   C     0.20084   0.02143   0.76662   0.00000  Uiso   1.00
C716   C     0.16699   0.04285   0.74860   0.00000  Uiso   1.00
C717   C     0.13329   0.02149   0.72954   0.00000  Uiso   1.00
C718   C     0.13362   0.31198   0.72789   0.00000  Uiso   1.00
C719   C     0.16699   0.29054   0.74756   0.00000  Uiso   1.00
C720   C     0.29978   0.19139   0.78486   0.00000  Uiso   1.00
C721   C     0.01596   0.19081   0.78440   0.00000  Uiso   1.00
C722   C     0.03452   0.14216   0.71508   0.00000  Uiso   1.00
C723   C     0.31724   0.14058   0.71707   0.00000  Uiso   1.00
C724   C     0.16675   0.08745   0.74968   0.00000  Uiso   1.00
C725   C     0.19286   0.16658   0.65009   0.00000  Uiso   1.00
C726   C     0.25834   0.12752   0.51539   0.00000  Uiso   1.00
C727   C     0.20847   0.16236   0.59324   0.00000  Uiso   1.00
C728   C     0.08345   0.19381   0.93137   0.00000  Uiso   1.00
C729   C     0.07426   0.20716   0.98285   0.00000  Uiso   1.00
C730   C     0.10711   0.19818   0.51024   0.00000  Uiso   1.00
Cu731  Cu    0.11978   0.16666   0.75000   0.00000  Uiso   1.00
Cu732  Cu    0.21355   0.16667   0.75000   0.00000  Uiso   1.00
H733   H     0.27511   0.12913   0.58802   0.00000  Uiso   1.00
H734   H     0.22625   0.03759   0.78270   0.00000  Uiso   1.00
H735   H     0.10710   0.03789   0.71523   0.00000  Uiso   1.00
H736   H     0.02818   0.21000   0.81156   0.00000  Uiso   1.00
H737   H     0.29005   0.10854   0.99686   0.00000  Uiso   1.00
H738   H     0.14784   0.19602   0.58722   0.00000  Uiso   1.00
H739   H     0.05947   0.20413   0.90957   0.00000  Uiso   1.00
H740   H     0.09854   0.21162   0.54896   0.00000  Uiso   1.00
H741   H     0.04261   0.22632   0.50091   0.00000  Uiso   1.00
H742   H     0.22676   0.29625   0.78130   0.00000  Uiso   1.00
N743   N     0.04931   0.16666   0.74998   0.00000  Uiso   1.00
N744   N     0.28402   0.16669   0.74999   0.00000  Uiso   1.00
O745   O     0.12708   0.22678   0.75000   0.00000  Uiso   1.00
O746   O     0.20627   0.22679   0.75000   0.00000  Uiso   1.00
O747   O     0.10775   0.16665   0.82549   0.00000  Uiso   1.00
O748   O     0.18694   0.16666   0.82549   0.00000  Uiso   1.00
O749   O     0.12706   0.10654   0.74999   0.00000  Uiso   1.00
O750   O     0.20625   0.10655   0.74999   0.00000  Uiso   1.00
O751   O     0.14640   0.16667   0.67451   0.00000  Uiso   1.00
O752   O     0.22559   0.16668   0.67451   0.00000  Uiso   1.00
O753   O     0.09987   0.29146   0.70910   0.00000  Uiso   1.00
C754   C     0.11998   0.28515   0.65475   0.00000  Uiso   1.00
H755   H     0.09350   0.26770   0.63978   0.00000  Uiso   1.00
H756   H     0.15414   0.26644   0.64525   0.00000  Uiso   1.00
H757   H     0.12674   0.31500   0.63426   0.00000  Uiso   1.00
C758   C     0.26636   0.21855   0.82523   0.00000  Uiso   1.00
H759   H     0.23097   0.22742   0.82353   0.00000  Uiso   1.00
O760   O     0.27850   0.23203   0.86244   0.00000  Uiso   1.00
O761   O     0.06885   0.11735   0.68017   0.00000  Uiso   1.00
C762   C     0.07280   0.12843   0.62839   0.00000  Uiso   1.00
H763   H     0.10807   0.11649   0.60263   0.00000  Uiso   1.00
H764   H     0.07194   0.16244   0.62390   0.00000  Uiso   1.00
H765   H     0.04414   0.11381   0.61415   0.00000  Uiso   1.00
O766   O     0.30105   0.11348   0.68531   0.00000  Uiso   1.00
C767   C     0.30773   0.07239   0.69850   0.00000  Uiso   1.00
H768   H     0.28168   0.05257   0.68587   0.00000  Uiso   1.00
H769   H     0.30090   0.06852   0.74128   0.00000  Uiso   1.00
H770   H     0.01138   0.06078   0.67717   0.00000  Uiso   1.00
O771   O     0.26477   0.09025   0.91844   0.00000  Uiso   1.00
C772   C     0.29919   0.10825   0.87584   0.00000  Uiso   1.00
H773   H     0.31368   0.13752   0.88771   0.00000  Uiso   1.00
H774   H     0.28354   0.11362   0.84320   0.00000  Uiso   1.00
H775   H     0.33040   0.08660   0.86102   0.00000  Uiso   1.00
O776   O     0.18886   0.09849   0.87651   0.00000  Uiso   1.00
C777   C     0.15445   0.06774   0.89770   0.00000  Uiso   1.00
H778   H     0.11743   0.08111   0.91567   0.00000  Uiso   1.00
H779   H     0.16585   0.04933   0.92672   0.00000  Uiso   1.00
H780   H     0.15187   0.04634   0.86594   0.00000  Uiso   1.00
C781   C     0.50013   0.24588   0.74917   0.00000  Uiso   1.00
C782   C     0.48200   0.17282   0.98764   0.00000  Uiso   1.00
C783   C     0.48858   0.15603   0.93671   0.00000  Uiso   1.00
C784   C     0.51656   0.16289   0.51421   0.00000  Uiso   1.00
C785   C     0.55726   0.13703   0.98926   0.00000  Uiso   1.00
C786   C     0.56150   0.11885   0.94015   0.00000  Uiso   1.00
C787   C     0.52454   0.12505   0.91683   0.00000  Uiso   1.00
C788   C     0.51095   0.17648   0.56582   0.00000  Uiso   1.00
C789   C     0.58364   0.13968   0.56732   0.00000  Uiso   1.00
C790   C     0.45828   0.16990   0.90721   0.00000  Uiso   1.00
C791   C     0.53421   0.31218   0.76611   0.00000  Uiso   1.00
C792   C     0.47387   0.16633   0.84999   0.00000  Uiso   1.00
C793   C     0.53418   0.02143   0.76662   0.00000  Uiso   1.00
C794   C     0.50033   0.04285   0.74860   0.00000  Uiso   1.00
C795   C     0.46662   0.02149   0.72954   0.00000  Uiso   1.00
C796   C     0.46695   0.31198   0.72789   0.00000  Uiso   1.00
C797   C     0.50032   0.29054   0.74756   0.00000  Uiso   1.00
C798   C     0.63311   0.19139   0.78486   0.00000  Uiso   1.00
C799   C     0.34929   0.19081   0.78440   0.00000  Uiso   1.00
C800   C     0.36785   0.14216   0.71508   0.00000  Uiso   1.00
C801   C     0.65058   0.14058   0.71707   0.00000  Uiso   1.00
C802   C     0.50009   0.08745   0.74968   0.00000  Uiso   1.00
C803   C     0.52620   0.16658   0.65009   0.00000  Uiso   1.00
C804   C     0.59168   0.12752   0.51539   0.00000  Uiso   1.00
C805   C     0.54180   0.16236   0.59324   0.00000  Uiso   1.00
C806   C     0.41679   0.19381   0.93137   0.00000  Uiso   1.00
C807   C     0.40759   0.20716   0.98285   0.00000  Uiso   1.00
C808   C     0.44045   0.19818   0.51024   0.00000  Uiso   1.00
Cu809  Cu    0.45311   0.16666   0.75000   0.00000  Uiso   1.00
Cu810  Cu    0.54689   0.16667   0.75000   0.00000  Uiso   1.00
H811   H     0.60844   0.12913   0.58802   0.00000  Uiso   1.00
H812   H     0.55958   0.03759   0.78270   0.00000  Uiso   1.00
H813   H     0.44043   0.03789   0.71523   0.00000  Uiso   1.00
H814   H     0.36151   0.21000   0.81156   0.00000  Uiso   1.00
H815   H     0.62338   0.10854   0.99686   0.00000  Uiso   1.00
H816   H     0.48117   0.19602   0.58722   0.00000  Uiso   1.00
H817   H     0.39280   0.20413   0.90957   0.00000  Uiso   1.00
H818   H     0.43187   0.21162   0.54896   0.00000  Uiso   1.00
H819   H     0.37594   0.22632   0.50091   0.00000  Uiso   1.00
H820   H     0.56010   0.29625   0.78130   0.00000  Uiso   1.00
N821   N     0.38265   0.16666   0.74998   0.00000  Uiso   1.00
N822   N     0.61735   0.16669   0.74999   0.00000  Uiso   1.00
O823   O     0.46042   0.22678   0.75000   0.00000  Uiso   1.00
O824   O     0.53961   0.22679   0.75000   0.00000  Uiso   1.00
O825   O     0.44108   0.16665   0.82549   0.00000  Uiso   1.00
O826   O     0.52027   0.16666   0.82549   0.00000  Uiso   1.00
O827   O     0.46039   0.10654   0.74999   0.00000  Uiso   1.00
O828   O     0.53958   0.10655   0.74999   0.00000  Uiso   1.00
O829   O     0.47973   0.16667   0.67451   0.00000  Uiso   1.00
O830   O     0.55892   0.16668   0.67451   0.00000  Uiso   1.00
O831   O     0.43321   0.29146   0.70910   0.00000  Uiso   1.00
C832   C     0.45331   0.28515   0.65475   0.00000  Uiso   1.00
H833   H     0.42683   0.26770   0.63978   0.00000  Uiso   1.00
H834   H     0.48748   0.26644   0.64525   0.00000  Uiso   1.00
H835   H     0.46007   0.31500   0.63426   0.00000  Uiso   1.00
C836   C     0.59969   0.21855   0.82523   0.00000  Uiso   1.00
H837   H     0.56430   0.22742   0.82353   0.00000  Uiso   1.00
O838   O     0.61183   0.23203   0.86244   0.00000  Uiso   1.00
O839   O     0.40218   0.11735   0.68017   0.00000  Uiso   1.00
C840   C     0.40613   0.12843   0.62839   0.00000  Uiso   1.00
H841   H     0.44140   0.11649   0.60263   0.00000  Uiso   1.00
H842   H     0.40527   0.16244   0.62390   0.00000  Uiso   1.00
H843   H     0.37747   0.11381   0.61415   0.00000  Uiso   1.00
O844   O     0.63438   0.11348   0.68531   0.00000  Uiso   1.00
C845   C     0.64107   0.07239   0.69850   0.00000  Uiso   1.00
H846   H     0.61501   0.05257   0.68587   0.00000  Uiso   1.00
H847   H     0.63424   0.06852   0.74128   0.00000  Uiso   1.00
H848   H     0.34472   0.06078   0.67717   0.00000  Uiso   1.00
O849   O     0.59811   0.09025   0.91844   0.00000  Uiso   1.00
C850   C     0.63252   0.10825   0.87584   0.00000  Uiso   1.00
H851   H     0.64701   0.13752   0.88771   0.00000  Uiso   1.00
H852   H     0.61688   0.11362   0.84320   0.00000  Uiso   1.00
H853   H     0.66373   0.08660   0.86102   0.00000  Uiso   1.00
O854   O     0.52220   0.09849   0.87651   0.00000  Uiso   1.00
C855   C     0.48779   0.06774   0.89770   0.00000  Uiso   1.00
H856   H     0.45076   0.08111   0.91567   0.00000  Uiso   1.00
H857   H     0.49919   0.04933   0.92672   0.00000  Uiso   1.00
H858   H     0.48520   0.04634   0.86594   0.00000  Uiso   1.00
C859   C     0.83347   0.24588   0.74917   0.00000  Uiso   1.00
C860   C     0.81533   0.17282   0.98764   0.00000  Uiso   1.00
C861   C     0.82191   0.15603   0.93671   0.00000  Uiso   1.00
C862   C     0.84990   0.16289   0.51421   0.00000  Uiso   1.00
C863   C     0.89060   0.13703   0.98926   0.00000  Uiso   1.00
C864   C     0.89483   0.11885   0.94015   0.00000  Uiso   1.00
C865   C     0.85787   0.12505   0.91683   0.00000  Uiso   1.00
C866   C     0.84428   0.17648   0.56582   0.00000  Uiso   1.00
C867   C     0.91697   0.13968   0.56732   0.00000  Uiso   1.00
C868   C     0.79161   0.16990   0.90721   0.00000  Uiso   1.00
C869   C     0.86754   0.31218   0.76611   0.00000  Uiso   1.00
C870   C     0.80720   0.16633   0.84999   0.00000  Uiso   1.00
C871   C     0.86751   0.02143   0.76662   0.00000  Uiso   1.00
C872   C     0.83366   0.04285   0.74860   0.00000  Uiso   1.00
C873   C     0.79996   0.02149   0.72954   0.00000  Uiso   1.00
C874   C     0.80029   0.31198   0.72789   0.00000  Uiso   1.00
C875   C     0.83365   0.29054   0.74756   0.00000  Uiso   1.00
C876   C     0.96644   0.19139   0.78486   0.00000  Uiso   1.00
C877   C     0.68262   0.19081   0.78440   0.00000  Uiso   1.00
C878   C     0.70118   0.14216   0.71508   0.00000  Uiso   1.00
C879   C     0.98391   0.14058   0.71707   0.00000  Uiso   1.00
C880   C     0.83342   0.08745   0.74968   0.00000  Uiso   1.00
C881   C     0.85953   0.16658   0.65009   0.00000  Uiso   1.00
C882   C     0.92501   0.12752   0.51539   0.00000  Uiso   1.00
C883   C     0.87514   0.16236   0.59324   0.00000  Uiso   1.00
C884   C     0.75012   0.19381   0.93137   0.00000  Uiso   1.00
C885   C     0.74092   0.20716   0.98285   0.00000  Uiso   1.00
C886   C     0.77378   0.19818   0.51024   0.00000  Uiso   1.00
Cu887  Cu    0.78645   0.16666   0.75000   0.00000  Uiso   1.00
Cu888  Cu    0.88022   0.16667   0.75000   0.00000  Uiso   1.00
H889   H     0.94177   0.12913   0.58802   0.00000  Uiso   1.00
H890   H     0.89292   0.03759   0.78270   0.00000  Uiso   1.00
H891   H     0.77377   0.03789   0.71523   0.00000  Uiso   1.00
H892   H     0.69484   0.21000   0.81156   0.00000  Uiso   1.00
H893   H     0.95672   0.10854   0.99686   0.00000  Uiso   1.00
H894   H     0.81451   0.19602   0.58722   0.00000  Uiso   1.00
H895   H     0.72613   0.20413   0.90957   0.00000  Uiso   1.00
H896   H     0.76520   0.21162   0.54896   0.00000  Uiso   1.00
H897   H     0.70928   0.22632   0.50091   0.00000  Uiso   1.00
H898   H     0.89343   0.29625   0.78130   0.00000  Uiso   1.00
N899   N     0.71598   0.16666   0.74998   0.00000  Uiso   1.00
N900   N     0.95069   0.16669   0.74999   0.00000  Uiso   1.00
O901   O     0.79375   0.22678   0.75000   0.00000  Uiso   1.00
O902   O     0.87294   0.22679   0.75000   0.00000  Uiso   1.00
O903   O     0.77441   0.16665   0.82549   0.00000  Uiso   1.00
O904   O     0.85360   0.16666   0.82549   0.00000  Uiso   1.00
O905   O     0.79373   0.10654   0.74999   0.00000  Uiso   1.00
O906   O     0.87292   0.10655   0.74999   0.00000  Uiso   1.00
O907   O     0.81306   0.16667   0.67451   0.00000  Uiso   1.00
O908   O     0.89225   0.16668   0.67451   0.00000  Uiso   1.00
O909   O     0.76654   0.29146   0.70910   0.00000  Uiso   1.00
C910   C     0.78665   0.28515   0.65475   0.00000  Uiso   1.00
H911   H     0.76017   0.26770   0.63978   0.00000  Uiso   1.00
H912   H     0.82081   0.26644   0.64525   0.00000  Uiso   1.00
H913   H     0.79340   0.31500   0.63426   0.00000  Uiso   1.00
C914   C     0.93303   0.21855   0.82523   0.00000  Uiso   1.00
H915   H     0.89764   0.22742   0.82353   0.00000  Uiso   1.00
O916   O     0.94517   0.23203   0.86244   0.00000  Uiso   1.00
O917   O     0.73552   0.11735   0.68017   0.00000  Uiso   1.00
C918   C     0.73947   0.12843   0.62839   0.00000  Uiso   1.00
H919   H     0.77474   0.11649   0.60263   0.00000  Uiso   1.00
H920   H     0.73861   0.16244   0.62390   0.00000  Uiso   1.00
H921   H     0.71080   0.11381   0.61415   0.00000  Uiso   1.00
O922   O     0.96772   0.11348   0.68531   0.00000  Uiso   1.00
C923   C     0.97440   0.07239   0.69850   0.00000  Uiso   1.00
H924   H     0.94835   0.05257   0.68587   0.00000  Uiso   1.00
H925   H     0.96757   0.06852   0.74128   0.00000  Uiso   1.00
H926   H     0.67805   0.06078   0.67717   0.00000  Uiso   1.00
O927   O     0.93144   0.09025   0.91844   0.00000  Uiso   1.00
C928   C     0.96586   0.10825   0.87584   0.00000  Uiso   1.00
H929   H     0.98034   0.13752   0.88771   0.00000  Uiso   1.00
H930   H     0.95021   0.11362   0.84320   0.00000  Uiso   1.00
H931   H     0.99706   0.08660   0.86102   0.00000  Uiso   1.00
O932   O     0.85553   0.09849   0.87651   0.00000  Uiso   1.00
C933   C     0.82112   0.06774   0.89770   0.00000  Uiso   1.00
H934   H     0.78410   0.08111   0.91567   0.00000  Uiso   1.00
H935   H     0.83252   0.04933   0.92672   0.00000  Uiso   1.00
H936   H     0.81853   0.04634   0.86594   0.00000  Uiso   1.00
C937   C     0.16680   0.57922   0.74917   0.00000  Uiso   1.00
C938   C     0.14867   0.50615   0.98764   0.00000  Uiso   1.00
C939   C     0.15525   0.48937   0.93671   0.00000  Uiso   1.00
C940   C     0.18323   0.49622   0.51421   0.00000  Uiso   1.00
C941   C     0.22393   0.47036   0.98926   0.00000  Uiso   1.00
C942   C     0.22816   0.45218   0.94015   0.00000  Uiso   1.00
C943   C     0.19121   0.45839   0.91683   0.00000  Uiso   1.00
C944   C     0.17761   0.50982   0.56582   0.00000  Uiso   1.00
C945   C     0.25030   0.47301   0.56732   0.00000  Uiso   1.00
C946   C     0.12495   0.50324   0.90721   0.00000  Uiso   1.00
C947   C     0.20087   0.64551   0.76611   0.00000  Uiso   1.00
C948   C     0.14053   0.49967   0.84999   0.00000  Uiso   1.00
C949   C     0.20084   0.35476   0.76662   0.00000  Uiso   1.00
C950   C     0.16699   0.37618   0.74860   0.00000  Uiso   1.00
C951   C     0.13329   0.35482   0.72954   0.00000  Uiso   1.00
C952   C     0.13362   0.64531   0.72789   0.00000  Uiso   1.00
C953   C     0.16699   0.62387   0.74756   0.00000  Uiso   1.00
C954   C     0.29978   0.52472   0.78486   0.00000  Uiso   1.00
C955   C     0.01596   0.52414   0.78440   0.00000  Uiso   1.00
C956   C     0.03452   0.47550   0.71508   0.00000  Uiso   1.00
C957   C     0.31724   0.47392   0.71707   0.00000  Uiso   1.00
C958   C     0.16675   0.42078   0.74968   0.00000  Uiso   1.00
C959   C     0.19286   0.49991   0.65009   0.00000  Uiso   1.00
C960   C     0.25834   0.46085   0.51539   0.00000  Uiso   1.00
C961   C     0.20847   0.49570   0.59324   0.00000  Uiso   1.00
C962   C     0.08345   0.52714   0.93137   0.00000  Uiso   1.00
C963   C     0.07426   0.54049   0.98285   0.00000  Uiso   1.00
C964   C     0.10711   0.53151   0.51024   0.00000  Uiso   1.00
Cu965  Cu    0.11978   0.49999   0.75000   0.00000  Uiso   1.00
Cu966  Cu    0.21355   0.50001   0.75000   0.00000  Uiso   1.00
H967   H     0.27511   0.46246   0.58802   0.00000  Uiso   1.00
H968   H     0.22625   0.37092   0.78270   0.00000  Uiso   1.00
H969   H     0.10710   0.37122   0.71523   0.00000  Uiso   1.00
H970   H     0.02818   0.54334   0.81156   0.00000  Uiso   1.00
H971   H     0.29005   0.44187   0.99686   0.00000  Uiso   1.00
H972   H     0.14784   0.52935   0.58722   0.00000  Uiso   1.00
H973   H     0.05947   0.53747   0.90957   0.00000  Uiso   1.00
H974   H     0.09854   0.54495   0.54896   0.00000  Uiso   1.00
H975   H     0.04261   0.55965   0.50091   0.00000  Uiso   1.00
H976   H     0.22676   0.62958   0.78130   0.00000  Uiso   1.00
N977   N     0.04931   0.49999   0.74998   0.00000  Uiso   1.00
N978   N     0.28402   0.50002   0.74999   0.00000  Uiso   1.00
O979   O     0.12708   0.56011   0.75000   0.00000  Uiso   1.00
O980   O     0.20627   0.56012   0.75000   0.00000  Uiso   1.00
O981   O     0.10775   0.49998   0.82549   0.00000  Uiso   1.00
O982   O     0.18694   0.49999   0.82549   0.00000  Uiso   1.00
O983   O     0.12706   0.43988   0.74999   0.00000  Uiso   1.00
O984   O     0.20625   0.43989   0.74999   0.00000  Uiso   1.00
O985   O     0.14640   0.50001   0.67451   0.00000  Uiso   1.00
O986   O     0.22559   0.50002   0.67451   0.00000  Uiso   1.00
O987   O     0.09987   0.62479   0.70910   0.00000  Uiso   1.00
C988   C     0.11998   0.61848   0.65475   0.00000  Uiso   1.00
H989   H     0.09350   0.60103   0.63978   0.00000  Uiso   1.00
H990   H     0.15414   0.59978   0.64525   0.00000  Uiso   1.00
H991   H     0.12674   0.64833   0.63426   0.00000  Uiso   1.00
C992   C     0.26636   0.55188   0.82523   0.00000  Uiso   1.00
H993   H     0.23097   0.56075   0.82353   0.00000  Uiso   1.00
O994   O     0.27850   0.56536   0.86244   0.00000  Uiso   1.00
O995   O     0.06885   0.45068   0.68017   0.00000  Uiso   1.00
C996   C     0.07280   0.46177   0.62839   0.00000  Uiso   1.00
H997   H     0.10807   0.44982   0.60263   0.00000  Uiso   1.00
H998   H     0.07194   0.49577   0.62390   0.00000  Uiso   1.00
H999   H     0.04414   0.44714   0.61415   0.00000  Uiso   1.00
O1000  O     0.30105   0.44681   0.68531   0.00000  Uiso   1.00
C1001  C     0.30773   0.40572   0.69850   0.00000  Uiso   1.00
H1002  H     0.28168   0.38591   0.68587   0.00000  Uiso   1.00
H1003  H     0.30090   0.40186   0.74128   0.00000  Uiso   1.00
H1004  H     0.01138   0.39411   0.67717   0.00000  Uiso   1.00
O1005  O     0.26477   0.42358   0.91844   0.00000  Uiso   1.00
C1006  C     0.29919   0.44158   0.87584   0.00000  Uiso   1.00
H1007  H     0.31368   0.47085   0.88771   0.00000  Uiso   1.00
H1008  H     0.28354   0.44696   0.84320   0.00000  Uiso   1.00
H1009  H     0.33040   0.41993   0.86102   0.00000  Uiso   1.00
O1010  O     0.18886   0.43182   0.87651   0.00000  Uiso   1.00
C1011  C     0.15445   0.40108   0.89770   0.00000  Uiso   1.00
H1012  H     0.11743   0.41445   0.91567   0.00000  Uiso   1.00
H1013  H     0.16585   0.38266   0.92672   0.00000  Uiso   1.00
H1014  H     0.15187   0.37967   0.86594   0.00000  Uiso   1.00
C1015  C     0.50013   0.57922   0.74917   0.00000  Uiso   1.00
C1016  C     0.48200   0.50615   0.98764   0.00000  Uiso   1.00
C1017  C     0.48858   0.48937   0.93671   0.00000  Uiso   1.00
C1018  C     0.51656   0.49622   0.51421   0.00000  Uiso   1.00
C1019  C     0.55726   0.47036   0.98926   0.00000  Uiso   1.00
C1020  C     0.56150   0.45218   0.94015   0.00000  Uiso   1.00
C1021  C     0.52454   0.45839   0.91683   0.00000  Uiso   1.00
C1022  C     0.51095   0.50982   0.56582   0.00000  Uiso   1.00
C1023  C     0.58364   0.47301   0.56732   0.00000  Uiso   1.00
C1024  C     0.45828   0.50324   0.90721   0.00000  Uiso   1.00
C1025  C     0.53421   0.64551   0.76611   0.00000  Uiso   1.00
C1026  C     0.47387   0.49967   0.84999   0.00000  Uiso   1.00
C1027  C     0.53418   0.35476   0.76662   0.00000  Uiso   1.00
C1028  C     0.50033   0.37618   0.74860   0.00000  Uiso   1.00
C1029  C     0.46662   0.35482   0.72954   0.00000  Uiso   1.00
C1030  C     0.46695   0.64531   0.72789   0.00000  Uiso   1.00
C1031  C     0.50032   0.62387   0.74756   0.00000  Uiso   1.00
C1032  C     0.63311   0.52472   0.78486   0.00000  Uiso   1.00
C1033  C     0.34929   0.52414   0.78440   0.00000  Uiso   1.00
C1034  C     0.36785   0.47550   0.71508   0.00000  Uiso   1.00
C1035  C     0.65058   0.47392   0.71707   0.00000  Uiso   1.00
C1036  C     0.50009   0.42078   0.74968   0.00000  Uiso   1.00
C1037  C     0.52620   0.49991   0.65009   0.00000  Uiso   1.00
C1038  C     0.59168   0.46085   0.51539   0.00000  Uiso   1.00
C1039  C     0.54180   0.49570   0.59324   0.00000  Uiso   1.00
C1040  C     0.41679   0.52714   0.93137   0.00000  Uiso   1.00
C1041  C     0.40759   0.54049   0.98285   0.00000  Uiso   1.00
C1042  C     0.44045   0.53151   0.51024   0.00000  Uiso   1.00
Cu1043 Cu    0.45311   0.49999   0.75000   0.00000  Uiso   1.00
Cu1044 Cu    0.54689   0.50001   0.75000   0.00000  Uiso   1.00
H1045  H     0.60844   0.46246   0.58802   0.00000  Uiso   1.00
H1046  H     0.55958   0.37092   0.78270   0.00000  Uiso   1.00
H1047  H     0.44043   0.37122   0.71523   0.00000  Uiso   1.00
H1048  H     0.36151   0.54334   0.81156   0.00000  Uiso   1.00
H1049  H     0.62338   0.44187   0.99686   0.00000  Uiso   1.00
H1050  H     0.48117   0.52935   0.58722   0.00000  Uiso   1.00
H1051  H     0.39280   0.53747   0.90957   0.00000  Uiso   1.00
H1052  H     0.43187   0.54495   0.54896   0.00000  Uiso   1.00
H1053  H     0.37594   0.55965   0.50091   0.00000  Uiso   1.00
H1054  H     0.56010   0.62958   0.78130   0.00000  Uiso   1.00
N1055  N     0.38265   0.49999   0.74998   0.00000  Uiso   1.00
N1056  N     0.61735   0.50002   0.74999   0.00000  Uiso   1.00
O1057  O     0.46042   0.56011   0.75000   0.00000  Uiso   1.00
O1058  O     0.53961   0.56012   0.75000   0.00000  Uiso   1.00
O1059  O     0.44108   0.49998   0.82549   0.00000  Uiso   1.00
O1060  O     0.52027   0.49999   0.82549   0.00000  Uiso   1.00
O1061  O     0.46039   0.43988   0.74999   0.00000  Uiso   1.00
O1062  O     0.53958   0.43989   0.74999   0.00000  Uiso   1.00
O1063  O     0.47973   0.50001   0.67451   0.00000  Uiso   1.00
O1064  O     0.55892   0.50002   0.67451   0.00000  Uiso   1.00
O1065  O     0.43321   0.62479   0.70910   0.00000  Uiso   1.00
C1066  C     0.45331   0.61848   0.65475   0.00000  Uiso   1.00
H1067  H     0.42683   0.60103   0.63978   0.00000  Uiso   1.00
H1068  H     0.48748   0.59978   0.64525   0.00000  Uiso   1.00
H1069  H     0.46007   0.64833   0.63426   0.00000  Uiso   1.00
C1070  C     0.59969   0.55188   0.82523   0.00000  Uiso   1.00
H1071  H     0.56430   0.56075   0.82353   0.00000  Uiso   1.00
O1072  O     0.61183   0.56536   0.86244   0.00000  Uiso   1.00
O1073  O     0.40218   0.45068   0.68017   0.00000  Uiso   1.00
C1074  C     0.40613   0.46177   0.62839   0.00000  Uiso   1.00
H1075  H     0.44140   0.44982   0.60263   0.00000  Uiso   1.00
H1076  H     0.40527   0.49577   0.62390   0.00000  Uiso   1.00
H1077  H     0.37747   0.44714   0.61415   0.00000  Uiso   1.00
O1078  O     0.63438   0.44681   0.68531   0.00000  Uiso   1.00
C1079  C     0.64107   0.40572   0.69850   0.00000  Uiso   1.00
H1080  H     0.61501   0.38591   0.68587   0.00000  Uiso   1.00
H1081  H     0.63424   0.40186   0.74128   0.00000  Uiso   1.00
H1082  H     0.34472   0.39411   0.67717   0.00000  Uiso   1.00
O1083  O     0.59811   0.42358   0.91844   0.00000  Uiso   1.00
C1084  C     0.63252   0.44158   0.87584   0.00000  Uiso   1.00
H1085  H     0.64701   0.47085   0.88771   0.00000  Uiso   1.00
H1086  H     0.61688   0.44696   0.84320   0.00000  Uiso   1.00
H1087  H     0.66373   0.41993   0.86102   0.00000  Uiso   1.00
O1088  O     0.52220   0.43182   0.87651   0.00000  Uiso   1.00
C1089  C     0.48779   0.40108   0.89770   0.00000  Uiso   1.00
H1090  H     0.45076   0.41445   0.91567   0.00000  Uiso   1.00
H1091  H     0.49919   0.38266   0.92672   0.00000  Uiso   1.00
H1092  H     0.48520   0.37967   0.86594   0.00000  Uiso   1.00
C1093  C     0.83347   0.57922   0.74917   0.00000  Uiso   1.00
C1094  C     0.81533   0.50615   0.98764   0.00000  Uiso   1.00
C1095  C     0.82191   0.48937   0.93671   0.00000  Uiso   1.00
C1096  C     0.84990   0.49622   0.51421   0.00000  Uiso   1.00
C1097  C     0.89060   0.47036   0.98926   0.00000  Uiso   1.00
C1098  C     0.89483   0.45218   0.94015   0.00000  Uiso   1.00
C1099  C     0.85787   0.45839   0.91683   0.00000  Uiso   1.00
C1100  C     0.84428   0.50982   0.56582   0.00000  Uiso   1.00
C1101  C     0.91697   0.47301   0.56732   0.00000  Uiso   1.00
C1102  C     0.79161   0.50324   0.90721   0.00000  Uiso   1.00
C1103  C     0.86754   0.64551   0.76611   0.00000  Uiso   1.00
C1104  C     0.80720   0.49967   0.84999   0.00000  Uiso   1.00
C1105  C     0.86751   0.35476   0.76662   0.00000  Uiso   1.00
C1106  C     0.83366   0.37618   0.74860   0.00000  Uiso   1.00
C1107  C     0.79996   0.35482   0.72954   0.00000  Uiso   1.00
C1108  C     0.80029   0.64531   0.72789   0.00000  Uiso   1.00
C1109  C     0.83365   0.62387   0.74756   0.00000  Uiso   1.00
C1110  C     0.96644   0.52472   0.78486   0.00000  Uiso   1.00
C1111  C     0.68262   0.52414   0.78440   0.00000  Uiso   1.00
C1112  C     0.70118   0.47550   0.71508   0.00000  Uiso   1.00
C1113  C     0.98391   0.47392   0.71707   0.00000  Uiso   1.00
C1114  C     0.83342   0.42078   0.74968   0.00000  Uiso   1.00
C1115  C     0.85953   0.49991   0.65009   0.00000  Uiso   1.00
C1116  C     0.92501   0.46085   0.51539   0.00000  Uiso   1.00
C1117  C     0.87514   0.49570   0.59324   0.00000  Uiso   1.00
C1118  C     0.75012   0.52714   0.93137   0.00000  Uiso   1.00
C1119  C     0.74092   0.54049   0.98285   0.00000  Uiso   1.00
C1120  C     0.77378   0.53151   0.51024   0.00000  Uiso   1.00
Cu1121 Cu    0.78645   0.49999   0.75000   0.00000  Uiso   1.00
Cu1122 Cu    0.88022   0.50001   0.75000   0.00000  Uiso   1.00
H1123  H     0.94177   0.46246   0.58802   0.00000  Uiso   1.00
H1124  H     0.89292   0.37092   0.78270   0.00000  Uiso   1.00
H1125  H     0.77377   0.37122   0.71523   0.00000  Uiso   1.00
H1126  H     0.69484   0.54334   0.81156   0.00000  Uiso   1.00
H1127  H     0.95672   0.44187   0.99686   0.00000  Uiso   1.00
H1128  H     0.81451   0.52935   0.58722   0.00000  Uiso   1.00
H1129  H     0.72613   0.53747   0.90957   0.00000  Uiso   1.00
H1130  H     0.76520   0.54495   0.54896   0.00000  Uiso   1.00
H1131  H     0.70928   0.55965   0.50091   0.00000  Uiso   1.00
H1132  H     0.89343   0.62958   0.78130   0.00000  Uiso   1.00
N1133  N     0.71598   0.49999   0.74998   0.00000  Uiso   1.00
N1134  N     0.95069   0.50002   0.74999   0.00000  Uiso   1.00
O1135  O     0.79375   0.56011   0.75000   0.00000  Uiso   1.00
O1136  O     0.87294   0.56012   0.75000   0.00000  Uiso   1.00
O1137  O     0.77441   0.49998   0.82549   0.00000  Uiso   1.00
O1138  O     0.85360   0.49999   0.82549   0.00000  Uiso   1.00
O1139  O     0.79373   0.43988   0.74999   0.00000  Uiso   1.00
O1140  O     0.87292   0.43989   0.74999   0.00000  Uiso   1.00
O1141  O     0.81306   0.50001   0.67451   0.00000  Uiso   1.00
O1142  O     0.89225   0.50002   0.67451   0.00000  Uiso   1.00
O1143  O     0.76654   0.62479   0.70910   0.00000  Uiso   1.00
C1144  C     0.78665   0.61848   0.65475   0.00000  Uiso   1.00
H1145  H     0.76017   0.60103   0.63978   0.00000  Uiso   1.00
H1146  H     0.82081   0.59978   0.64525   0.00000  Uiso   1.00
H1147  H     0.79340   0.64833   0.63426   0.00000  Uiso   1.00
C1148  C     0.93303   0.55188   0.82523   0.00000  Uiso   1.00
H1149  H     0.89764   0.56075   0.82353   0.00000  Uiso   1.00
O1150  O     0.94517   0.56536   0.86244   0.00000  Uiso   1.00
O1151  O     0.73552   0.45068   0.68017   0.00000  Uiso   1.00
C1152  C     0.73947   0.46177   0.62839   0.00000  Uiso   1.00
H1153  H     0.77474   0.44982   0.60263   0.00000  Uiso   1.00
H1154  H     0.73861   0.49577   0.62390   0.00000  Uiso   1.00
H1155  H     0.71080   0.44714   0.61415   0.00000  Uiso   1.00
O1156  O     0.96772   0.44681   0.68531   0.00000  Uiso   1.00
C1157  C     0.97440   0.40572   0.69850   0.00000  Uiso   1.00
H1158  H     0.94835   0.38591   0.68587   0.00000  Uiso   1.00
H1159  H     0.96757   0.40186   0.74128   0.00000  Uiso   1.00
H1160  H     0.67805   0.39411   0.67717   0.00000  Uiso   1.00
O1161  O     0.93144   0.42358   0.91844   0.00000  Uiso   1.00
C1162  C     0.96586   0.44158   0.87584   0.00000  Uiso   1.00
H1163  H     0.98034   0.47085   0.88771   0.00000  Uiso   1.00
H1164  H     0.95021   0.44696   0.84320   0.00000  Uiso   1.00
H1165  H     0.99706   0.41993   0.86102   0.00000  Uiso   1.00
O1166  O     0.85553   0.43182   0.87651   0.00000  Uiso   1.00
C1167  C     0.82112   0.40108   0.89770   0.00000  Uiso   1.00
H1168  H     0.78410   0.41445   0.91567   0.00000  Uiso   1.00
H1169  H     0.83252   0.38266   0.92672   0.00000  Uiso   1.00
H1170  H     0.81853   0.37967   0.86594   0.00000  Uiso   1.00
C1171  C     0.16680   0.91255   0.74917   0.00000  Uiso   1.00
C1172  C     0.14867   0.83949   0.98764   0.00000  Uiso   1.00
C1173  C     0.15525   0.82270   0.93671   0.00000  Uiso   1.00
C1174  C     0.18323   0.82955   0.51421   0.00000  Uiso   1.00
C1175  C     0.22393   0.80369   0.98926   0.00000  Uiso   1.00
C1176  C     0.22816   0.78551   0.94015   0.00000  Uiso   1.00
C1177  C     0.19121   0.79172   0.91683   0.00000  Uiso   1.00
C1178  C     0.17761   0.84315   0.56582   0.00000  Uiso   1.00
C1179  C     0.25030   0.80634   0.56732   0.00000  Uiso   1.00
C1180  C     0.12495   0.83657   0.90721   0.00000  Uiso   1.00
C1181  C     0.20087   0.97884   0.76611   0.00000  Uiso   1.00
C1182  C     0.14053   0.83300   0.84999   0.00000  Uiso   1.00
C1183  C     0.20084   0.68809   0.76662   0.00000  Uiso   1.00
C1184  C     0.16699   0.70951   0.74860   0.00000  Uiso   1.00
C1185  C     0.13329   0.68815   0.72954   0.00000  Uiso   1.00
C1186  C     0.13362   0.97864   0.72789   0.00000  Uiso   1.00
C1187  C     0.16699   0.95720   0.74756   0.00000  Uiso   1.00
C1188  C     0.29978   0.85806   0.78486   0.00000  Uiso   1.00
C1189  C     0.01596   0.85748   0.78440   0.00000  Uiso   1.00
C1190  C     0.03452   0.80883   0.71508   0.00000  Uiso   1.00
C1191  C     0.31724   0.80725   0.71707   0.00000  Uiso   1.00
C1192  C     0.16675   0.75412   0.74968   0.00000  Uiso   1.00
C1193  C     0.19286   0.83325   0.65009   0.00000  Uiso   1.00
C1194  C     0.25834   0.79418   0.51539   0.00000  Uiso   1.00
C1195  C     0.20847   0.82903   0.59324   0.00000  Uiso   1.00
C1196  C     0.08345   0.86047   0.93137   0.00000  Uiso   1.00
C1197  C     0.07426   0.87383   0.98285   0.00000  Uiso   1.00
C1198  C     0.10711   0.86484   0.51024   0.00000  Uiso   1.00
Cu1199 Cu    0.11978   0.83333   0.75000   0.00000  Uiso   1.00
Cu1200 Cu    0.21355   0.83334   0.75000   0.00000  Uiso   1.00
H1201  H     0.27511   0.79580   0.58802   0.00000  Uiso   1.00
H1202  H     0.22625   0.70426   0.78270   0.00000  Uiso   1.00
H1203  H     0.10710   0.70456   0.71523   0.00000  Uiso   1.00
H1204  H     0.02818   0.87667   0.81156   0.00000  Uiso   1.00
H1205  H     0.29005   0.77520   0.99686   0.00000  Uiso   1.00
H1206  H     0.14784   0.86269   0.58722   0.00000  Uiso   1.00
H1207  H     0.05947   0.87080   0.90957   0.00000  Uiso   1.00
H1208  H     0.09854   0.87829   0.54896   0.00000  Uiso   1.00
H1209  H     0.04261   0.89298   0.50091   0.00000  Uiso   1.00
H1210  H     0.22676   0.96292   0.78130   0.00000  Uiso   1.00
N1211  N     0.04931   0.83332   0.74998   0.00000  Uiso   1.00
N1212  N     0.28402   0.83335   0.74999   0.00000  Uiso   1.00
O1213  O     0.12708   0.89345   0.75000   0.00000  Uiso   1.00
O1214  O     0.20627   0.89346   0.75000   0.00000  Uiso   1.00
O1215  O     0.10775   0.83332   0.82549   0.00000  Uiso   1.00
O1216  O     0.18694   0.83333   0.82549   0.00000  Uiso   1.00
O1217  O     0.12706   0.77321   0.74999   0.00000  Uiso   1.00
O1218  O     0.20625   0.77322   0.74999   0.00000  Uiso   1.00
O1219  O     0.14640   0.83334   0.67451   0.00000  Uiso   1.00
O1220  O     0.22559   0.83335   0.67451   0.00000  Uiso   1.00
O1221  O     0.09987   0.95812   0.70910   0.00000  Uiso   1.00
C1222  C     0.11998   0.95181   0.65475   0.00000  Uiso   1.00
H1223  H     0.09350   0.93437   0.63978   0.00000  Uiso   1.00
H1224  H     0.15414   0.93311   0.64525   0.00000  Uiso   1.00
H1225  H     0.12674   0.98166   0.63426   0.00000  Uiso   1.00
C1226  C     0.26636   0.88522   0.82523   0.00000  Uiso   1.00
H1227  H     0.23097   0.89409   0.82353   0.00000  Uiso   1.00
O1228  O     0.27850   0.89869   0.86244   0.00000  Uiso   1.00
O1229  O     0.06885   0.78401   0.68017   0.00000  Uiso   1.00
C1230  C     0.07280   0.79510   0.62839   0.00000  Uiso   1.00
H1231  H     0.10807   0.78316   0.60263   0.00000  Uiso   1.00
H1232  H     0.07194   0.82911   0.62390   0.00000  Uiso   1.00
H1233  H     0.04414   0.78047   0.61415   0.00000  Uiso   1.00
O1234  O     0.30105   0.78015   0.68531   0.00000  Uiso   1.00
C1235  C     0.30773   0.73905   0.69850   0.00000  Uiso   1.00
H1236  H     0.28168   0.71924   0.68587   0.00000  Uiso   1.00
H1237  H     0.30090   0.73519   0.74128   0.00000  Uiso   1.00
H1238  H     0.01138   0.72745   0.67717   0.00000  Uiso   1.00
O1239  O     0.26477   0.75691   0.91844   0.00000  Uiso   1.00
C1240  C     0.29919   0.77492   0.87584   0.00000  Uiso   1.00
H1241  H     0.31368   0.80419   0.88771   0.00000  Uiso   1.00
H1242  H     0.28354   0.78029   0.84320   0.00000  Uiso   1.00
H1243  H     0.33040   0.75327   0.86102   0.00000  Uiso   1.00
O1244  O     0.18886   0.76516   0.87651   0.00000  Uiso   1.00
C1245  C     0.15445   0.73441   0.89770   0.00000  Uiso   1.00
H1246  H     0.11743   0.74778   0.91567   0.00000  Uiso   1.00
H1247  H     0.16585   0.71600   0.92672   0.00000  Uiso   1.00
H1248  H     0.15187   0.71301   0.86594   0.00000  Uiso   1.00
C1249  C     0.50013   0.91255   0.74917   0.00000  Uiso   1.00
C1250  C     0.48200   0.83949   0.98764   0.00000  Uiso   1.00
C1251  C     0.48858   0.82270   0.93671   0.00000  Uiso   1.00
C1252  C     0.51656   0.82955   0.51421   0.00000  Uiso   1.00
C1253  C     0.55726   0.80369   0.98926   0.00000  Uiso   1.00
C1254  C     0.56150   0.78551   0.94015   0.00000  Uiso   1.00
C1255  C     0.52454   0.79172   0.91683   0.00000  Uiso   1.00
C1256  C     0.51095   0.84315   0.56582   0.00000  Uiso   1.00
C1257  C     0.58364   0.80634   0.56732   0.00000  Uiso   1.00
C1258  C     0.45828   0.83657   0.90721   0.00000  Uiso   1.00
C1259  C     0.53421   0.97884   0.76611   0.00000  Uiso   1.00
C1260  C     0.47387   0.83300   0.84999   0.00000  Uiso   1.00
C1261  C     0.53418   0.68809   0.76662   0.00000  Uiso   1.00
C1262  C     0.50033   0.70951   0.74860   0.00000  Uiso   1.00
C1263  C     0.46662   0.68815   0.72954   0.00000  Uiso   1.00
C1264  C     0.46695   0.97864   0.72789   0.00000  Uiso   1.00
C1265  C     0.50032   0.95720   0.74756   0.00000  Uiso   1.00
C1266  C     0.63311   0.85806   0.78486   0.00000  Uiso   1.00
C1267  C     0.34929   0.85748   0.78440   0.00000  Uiso   1.00
C1268  C     0.36785   0.80883   0.71508   0.00000  Uiso   1.00
C1269  C     0.65058   0.80725   0.71707   0.00000  Uiso   1.00
C1270  C     0.50009   0.75412   0.74968   0.00000  Uiso   1.00
C1271  C     0.52620   0.83325   0.65009   0.00000  Uiso   1.00
C1272  C     0.59168   0.79418   0.51539   0.00000  Uiso   1.00
C1273  C     0.54180   0.82903   0.59324   0.00000  Uiso   1.00
C1274  C     0.41679   0.86047   0.93137   0.00000  Uiso   1.00
C1275  C     0.40759   0.87383   0.98285   0.00000  Uiso   1.00
C1276  C     0.44045   0.86484   0.51024   0.00000  Uiso   1.00
Cu1277 Cu    0.45311   0.83333   0.75000   0.00000  Uiso   1.00
Cu1278 Cu    0.54689   0.83334   0.75000   0.00000  Uiso   1.00
H1279  H     0.60844   0.79580   0.58802   0.00000  Uiso   1.00
H1280  H     0.55958   0.70426   0.78270   0.00000  Uiso   1.00
H1281  H     0.44043   0.70456   0.71523   0.00000  Uiso   1.00
H1282  H     0.36151   0.87667   0.81156   0.00000  Uiso   1.00
H1283  H     0.62338   0.77520   0.99686   0.00000  Uiso   1.00
H1284  H     0.48117   0.86269   0.58722   0.00000  Uiso   1.00
H1285  H     0.39280   0.87080   0.90957   0.00000  Uiso   1.00
H1286  H     0.43187   0.87829   0.54896   0.00000  Uiso   1.00
H1287  H     0.37594   0.89298   0.50091   0.00000  Uiso   1.00
H1288  H     0.56010   0.96292   0.78130   0.00000  Uiso   1.00
N1289  N     0.38265   0.83332   0.74998   0.00000  Uiso   1.00
N1290  N     0.61735   0.83335   0.74999   0.00000  Uiso   1.00
O1291  O     0.46042   0.89345   0.75000   0.00000  Uiso   1.00
O1292  O     0.53961   0.89346   0.75000   0.00000  Uiso   1.00
O1293  O     0.44108   0.83332   0.82549   0.00000  Uiso   1.00
O1294  O     0.52027   0.83333   0.82549   0.00000  Uiso   1.00
O1295  O     0.46039   0.77321   0.74999   0.00000  Uiso   1.00
O1296  O     0.53958   0.77322   0.74999   0.00000  Uiso   1.00
O1297  O     0.47973   0.83334   0.67451   0.00000  Uiso   1.00
O1298  O     0.55892   0.83335   0.67451   0.00000  Uiso   1.00
O1299  O     0.43321   0.95812   0.70910   0.00000  Uiso   1.00
C1300  C     0.45331   0.95181   0.65475   0.00000  Uiso   1.00
H1301  H     0.42683   0.93437   0.63978   0.00000  Uiso   1.00
H1302  H     0.48748   0.93311   0.64525   0.00000  Uiso   1.00
H1303  H     0.46007   0.98166   0.63426   0.00000  Uiso   1.00
C1304  C     0.59969   0.88522   0.82523   0.00000  Uiso   1.00
H1305  H     0.56430   0.89409   0.82353   0.00000  Uiso   1.00
O1306  O     0.61183   0.89869   0.86244   0.00000  Uiso   1.00
O1307  O     0.40218   0.78401   0.68017   0.00000  Uiso   1.00
C1308  C     0.40613   0.79510   0.62839   0.00000  Uiso   1.00
H1309  H     0.44140   0.78316   0.60263   0.00000  Uiso   1.00
H1310  H     0.40527   0.82911   0.62390   0.00000  Uiso   1.00
H1311  H     0.37747   0.78047   0.61415   0.00000  Uiso   1.00
O1312  O     0.63438   0.78015   0.68531   0.00000  Uiso   1.00
C1313  C     0.64107   0.73905   0.69850   0.00000  Uiso   1.00
H1314  H     0.61501   0.71924   0.68587   0.00000  Uiso   1.00
H1315  H     0.63424   0.73519   0.74128   0.00000  Uiso   1.00
H1316  H     0.34472   0.72745   0.67717   0.00000  Uiso   1.00
O1317  O     0.59811   0.75691   0.91844   0.00000  Uiso   1.00
C1318  C     0.63252   0.77492   0.87584   0.00000  Uiso   1.00
H1319  H     0.64701   0.80419   0.88771   0.00000  Uiso   1.00
H1320  H     0.61688   0.78029   0.84320   0.00000  Uiso   1.00
H1321  H     0.66373   0.75327   0.86102   0.00000  Uiso   1.00
O1322  O     0.52220   0.76516   0.87651   0.00000  Uiso   1.00
C1323  C     0.48779   0.73441   0.89770   0.00000  Uiso   1.00
H1324  H     0.45076   0.74778   0.91567   0.00000  Uiso   1.00
H1325  H     0.49919   0.71600   0.92672   0.00000  Uiso   1.00
H1326  H     0.48520   0.71301   0.86594   0.00000  Uiso   1.00
C1327  C     0.83347   0.91255   0.74917   0.00000  Uiso   1.00
C1328  C     0.81533   0.83949   0.98764   0.00000  Uiso   1.00
C1329  C     0.82191   0.82270   0.93671   0.00000  Uiso   1.00
C1330  C     0.84990   0.82955   0.51421   0.00000  Uiso   1.00
C1331  C     0.89060   0.80369   0.98926   0.00000  Uiso   1.00
C1332  C     0.89483   0.78551   0.94015   0.00000  Uiso   1.00
C1333  C     0.85787   0.79172   0.91683   0.00000  Uiso   1.00
C1334  C     0.84428   0.84315   0.56582   0.00000  Uiso   1.00
C1335  C     0.91697   0.80634   0.56732   0.00000  Uiso   1.00
C1336  C     0.79161   0.83657   0.90721   0.00000  Uiso   1.00
C1337  C     0.86754   0.97884   0.76611   0.00000  Uiso   1.00
C1338  C     0.80720   0.83300   0.84999   0.00000  Uiso   1.00
C1339  C     0.86751   0.68809   0.76662   0.00000  Uiso   1.00
C1340  C     0.83366   0.70951   0.74860   0.00000  Uiso   1.00
C1341  C     0.79996   0.68815   0.72954   0.00000  Uiso   1.00
C1342  C     0.80029   0.97864   0.72789   0.00000  Uiso   1.00
C1343  C     0.83365   0.95720   0.74756   0.00000  Uiso   1.00
C1344  C     0.96644   0.85806   0.78486   0.00000  Uiso   1.00
C1345  C     0.68262   0.85748   0.78440   0.00000  Uiso   1.00
C1346  C     0.70118   0.80883   0.71508   0.00000  Uiso   1.00
C1347  C     0.98391   0.80725   0.71707   0.00000  Uiso   1.00
C1348  C     0.83342   0.75412   0.74968   0.00000  Uiso   1.00
C1349  C     0.85953   0.83325   0.65009   0.00000  Uiso   1.00
C1350  C     0.92501   0.79418   0.51539   0.00000  Uiso   1.00
C1351  C     0.87514   0.82903   0.59324   0.00000  Uiso   1.00
C1352  C     0.75012   0.86047   0.93137   0.00000  Uiso   1.00
C1353  C     0.74092   0.87383   0.98285   0.00000  Uiso   1.00
C1354  C     0.77378   0.86484   0.51024   0.00000  Uiso   1.00
Cu1355 Cu    0.78645   0.83333   0.75000   0.00000  Uiso   1.00
Cu1356 Cu    0.88022   0.83334   0.75000   0.00000  Uiso   1.00
H1357  H     0.94177   0.79580   0.58802   0.00000  Uiso   1.00
H1358  H     0.89292   0.70426   0.78270   0.00000  Uiso   1.00
H1359  H     0.77377   0.70456   0.71523   0.00000  Uiso   1.00
H1360  H     0.69484   0.87667   0.81156   0.00000  Uiso   1.00
H1361  H     0.95672   0.77520   0.99686   0.00000  Uiso   1.00
H1362  H     0.81451   0.86269   0.58722   0.00000  Uiso   1.00
H1363  H     0.72613   0.87080   0.90957   0.00000  Uiso   1.00
H1364  H     0.76520   0.87829   0.54896   0.00000  Uiso   1.00
H1365  H     0.70928   0.89298   0.50091   0.00000  Uiso   1.00
H1366  H     0.89343   0.96292   0.78130   0.00000  Uiso   1.00
N1367  N     0.71598   0.83332   0.74998   0.00000  Uiso   1.00
N1368  N     0.95069   0.83335   0.74999   0.00000  Uiso   1.00
O1369  O     0.79375   0.89345   0.75000   0.00000  Uiso   1.00
O1370  O     0.87294   0.89346   0.75000   0.00000  Uiso   1.00
O1371  O     0.77441   0.83332   0.82549   0.00000  Uiso   1.00
O1372  O     0.85360   0.83333   0.82549   0.00000  Uiso   1.00
O1373  O     0.79373   0.77321   0.74999   0.00000  Uiso   1.00
O1374  O     0.87292   0.77322   0.74999   0.00000  Uiso   1.00
O1375  O     0.81306   0.83334   0.67451   0.00000  Uiso   1.00
O1376  O     0.89225   0.83335   0.67451   0.00000  Uiso   1.00
O1377  O     0.76654   0.95812   0.70910   0.00000  Uiso   1.00
C1378  C     0.78665   0.95181   0.65475   0.00000  Uiso   1.00
H1379  H     0.76017   0.93437   0.63978   0.00000  Uiso   1.00
H1380  H     0.82081   0.93311   0.64525   0.00000  Uiso   1.00
H1381  H     0.79340   0.98166   0.63426   0.00000  Uiso   1.00
C1382  C     0.93303   0.88522   0.82523   0.00000  Uiso   1.00
H1383  H     0.89764   0.89409   0.82353   0.00000  Uiso   1.00
O1384  O     0.94517   0.89869   0.86244   0.00000  Uiso   1.00
O1385  O     0.73552   0.78401   0.68017   0.00000  Uiso   1.00
C1386  C     0.73947   0.79510   0.62839   0.00000  Uiso   1.00
H1387  H     0.77474   0.78316   0.60263   0.00000  Uiso   1.00
H1388  H     0.73861   0.82911   0.62390   0.00000  Uiso   1.00
H1389  H     0.71080   0.78047   0.61415   0.00000  Uiso   1.00
O1390  O     0.96772   0.78015   0.68531   0.00000  Uiso   1.00
C1391  C     0.97440   0.73905   0.69850   0.00000  Uiso   1.00
H1392  H     0.94835   0.71924   0.68587   0.00000  Uiso   1.00
H1393  H     0.96757   0.73519   0.74128   0.00000  Uiso   1.00
H1394  H     0.67805   0.72745   0.67717   0.00000  Uiso   1.00
O1395  O     0.93144   0.75691   0.91844   0.00000  Uiso   1.00
C1396  C     0.96586   0.77492   0.87584   0.00000  Uiso   1.00
H1397  H     0.98034   0.80419   0.88771   0.00000  Uiso   1.00
H1398  H     0.95021   0.78029   0.84320   0.00000  Uiso   1.00
H1399  H     0.99706   0.75327   0.86102   0.00000  Uiso   1.00
O1400  O     0.85553   0.76516   0.87651   0.00000  Uiso   1.00
C1401  C     0.82112   0.73441   0.89770   0.00000  Uiso   1.00
H1402  H     0.78410   0.74778   0.91567   0.00000  Uiso   1.00
H1403  H     0.83252   0.71600   0.92672   0.00000  Uiso   1.00
H1404  H     0.81853   0.71301   0.86594   0.00000  Uiso   1.00
loop_
_geom_bond_atom_site_label_1
_geom_bond_atom_site_label_2
_geom_bond_distance
_geom_bond_site_symmetry_2
_ccdc_geom_bond_type
C1     O43     1.294   .     A
C1     O44     1.298   .     A
C1     C17     1.450   .     S
C2     C3      1.418   .     A
C2     C706    1.423   .     S
C2     C730    1.420   .     S
C3     C7      1.418   .     A
C3     C10     1.416   .     A
C4     C8      1.405   .     A
C4     C704    1.423   1_554 S
C4     C707    1.425   1_554 S
C5     C6      1.402   .     A
C5     C706    1.425   .     S
C5     C726    1.407   .     S
C6     O69     1.385   .     S
C6     C7      1.398   .     A
C7     O74     1.384   .     S
C8     H36     1.075   .     S
C8     C25     1.391   .     A
C9     C25     1.397   .     A
C9     C24     1.390   .     A
C9     H31     1.083   .     S
C10    C26     1.401   .     A
C10    C12     1.467   .     S
C11    C17     1.400   .     A
C11    H40     1.083   .     S
C11    C247    1.381   .     S
C12    O46     1.301   .     A
C12    O45     1.298   .     A
C13    H32     1.082   .     S
C13    C14     1.397   .     A
C13    C479    1.381   1_545 S
C14    C22     1.447   .     S
C14    C15     1.399   .     A
C15    H33     1.084   .     S
C15    C484    1.390   1_545 S
C16    O51     1.383   .     S
C16    C17     1.412   .     A
C16    C249    1.390   .     S
C18    N42     1.392   .     A
C18    C56     1.487   .     S
C18    C97     1.419   .     S
C19    H34     1.082   .     S
C19    N41     1.352   .     A
C19    C174    1.419   1_455 S
C20    N41     1.374   .     A
C20    O59     1.384   .     S
C20    C177    1.440   1_455 S
C21    O64     1.384   .     S
C21    N42     1.369   .     A
C21    C98     1.440   .     S
C22    O48     1.296   .     A
C22    O47     1.295   .     A
C23    O49     1.302   .     A
C23    O50     1.294   .     A
C23    C25     1.459   .     S
C24    C707    1.407   1_554 S
C24    H737    1.083   1_554 S
C26    C27     1.385   .     A
C26    H37     1.084   .     S
C27    C730    1.390   .     S
C27    H741    1.083   .     S
C28    H38     1.075   .     S
C28    C704    1.420   1_554 S
C28    C729    1.390   1_554 S
Cu29   O49     1.941   .     S
Cu29   O47     1.961   .     S
Cu29   O43     1.962   .     S
Cu29   O45     1.950   .     S
Cu29   Cu30    2.695   .     S
Cu29   N41     2.025   .     S
Cu30   O48     1.962   .     S
Cu30   O50     1.950   .     S
Cu30   O44     1.961   .     S
Cu30   O46     1.941   .     S
Cu30   N42     2.025   .     S
H35    C726    1.083   .     S
H39    C729    1.083   1_554 S
O51    C52     1.410   .     S
C52    H55     1.113   .     S
C52    H54     1.114   .     S
C52    H53     1.109   .     S
C56    H57     1.071   .     S
C56    O58     1.222   .     D
O59    C60     1.414   .     S
C60    H63     1.108   .     S
C60    H62     1.114   .     S
C60    H61     1.108   .     S
O64    C65     1.414   .     S
C65    H67     1.115   .     S
C65    H66     1.109   .     S
C65    H146    1.109   .     S
H68    C221    1.109   1_455 S
O69    C70     1.411   .     S
C70    H71     1.114   .     S
C70    H73     1.109   .     S
C70    H72     1.112   .     S
O74    C75     1.412   .     S
C75    H76     1.113   .     S
C75    H77     1.113   .     S
C75    H78     1.106   .     S
C79    O121    1.294   .     A
C79    O122    1.298   .     A
C79    C95     1.450   .     S
C80    C81     1.418   .     A
C80    C784    1.423   .     S
C80    C808    1.420   .     S
C81    C85     1.418   .     A
C81    C88     1.416   .     A
C82    C86     1.405   .     A
C82    C782    1.423   1_554 S
C82    C785    1.425   1_554 S
C83    C84     1.402   .     A
C83    C784    1.425   .     S
C83    C804    1.407   .     S
C84    O147    1.385   .     S
C84    C85     1.398   .     A
C85    O152    1.384   .     S
C86    H114    1.075   .     S
C86    C103    1.391   .     A
C87    C103    1.397   .     A
C87    C102    1.390   .     A
C87    H109    1.083   .     S
C88    C104    1.401   .     A
C88    C90     1.467   .     S
C89    C95     1.400   .     A
C89    H118    1.083   .     S
C89    C325    1.381   .     S
C90    O124    1.301   .     A
C90    O123    1.298   .     A
C91    H110    1.082   .     S
C91    C92     1.397   .     A
C91    C557    1.381   1_545 S
C92    C100    1.447   .     S
C92    C93     1.399   .     A
C93    H111    1.084   .     S
C93    C562    1.390   1_545 S
C94    O129    1.383   .     S
C94    C95     1.412   .     A
C94    C327    1.390   .     S
C96    N120    1.392   .     A
C96    C134    1.487   .     S
C96    C175    1.419   .     S
C97    H112    1.082   .     S
C97    N119    1.352   .     A
C98    N119    1.374   .     A
C98    O137    1.384   .     S
C99    O142    1.384   .     S
C99    N120    1.369   .     A
C99    C176    1.440   .     S
C100   O126    1.296   .     A
C100   O125    1.295   .     A
C101   O127    1.302   .     A
C101   O128    1.294   .     A
C101   C103    1.459   .     S
C102   C785    1.407   1_554 S
C102   H815    1.083   1_554 S
C104   C105    1.385   .     A
C104   H115    1.084   .     S
C105   C808    1.390   .     S
C105   H819    1.083   .     S
C106   H116    1.075   .     S
C106   C782    1.420   1_554 S
C106   C807    1.390   1_554 S
Cu107  O127    1.941   .     S
Cu107  O125    1.961   .     S
Cu107  O121    1.962   .     S
Cu107  O123    1.950   .     S
Cu107  Cu108   2.695   .     S
Cu107  N119    2.025   .     S
Cu108  O126    1.962   .     S
Cu108  O128    1.950   .     S
Cu108  O122    1.961   .     S
Cu108  O124    1.941   .     S
Cu108  N120    2.025   .     S
H113   C804    1.083   .     S
H117   C807    1.083   1_554 S
O129   C130    1.410   .     S
C130   H133    1.113   .     S
C130   H132    1.114   .     S
C130   H131    1.109   .     S
C134   H135    1.071   .     S
C134   O136    1.222   .     D
O137   C138    1.414   .     S
C138   H141    1.108   .     S
C138   H140    1.114   .     S
C138   H139    1.108   .     S
O142   C143    1.414   .     S
C143   H145    1.115   .     S
C143   H144    1.109   .     S
C143   H224    1.109   .     S
O147   C148    1.411   .     S
C148   H149    1.114   .     S
C148   H151    1.109   .     S
C148   H150    1.112   .     S
O152   C153    1.412   .     S
C153   H154    1.113   .     S
C153   H155    1.113   .     S
C153   H156    1.106   .     S
C157   O199    1.294   .     A
C157   O200    1.298   .     A
C157   C173    1.450   .     S
C158   C159    1.418   .     A
C158   C862    1.423   .     S
C158   C886    1.420   .     S
C159   C163    1.418   .     A
C159   C166    1.416   .     A
C160   C164    1.405   .     A
C160   C860    1.423   1_554 S
C160   C863    1.425   1_554 S
C161   C162    1.402   .     A
C161   C862    1.425   .     S
C161   C882    1.407   .     S
C162   O225    1.385   .     S
C162   C163    1.398   .     A
C163   O230    1.384   .     S
C164   H192    1.075   .     S
C164   C181    1.391   .     A
C165   C181    1.397   .     A
C165   C180    1.390   .     A
C165   H187    1.083   .     S
C166   C182    1.401   .     A
C166   C168    1.467   .     S
C167   C173    1.400   .     A
C167   H196    1.083   .     S
C167   C403    1.381   .     S
C168   O202    1.301   .     A
C168   O201    1.298   .     A
C169   H188    1.082   .     S
C169   C170    1.397   .     A
C169   C635    1.381   1_545 S
C170   C178    1.447   .     S
C170   C171    1.399   .     A
C171   H189    1.084   .     S
C171   C640    1.390   1_545 S
C172   O207    1.383   .     S
C172   C173    1.412   .     A
C172   C405    1.390   .     S
C174   N198    1.392   .     A
C174   C212    1.487   .     S
C174   C19     1.419   1_655 S
C175   H190    1.082   .     S
C175   N197    1.352   .     A
C176   N197    1.374   .     A
C176   O215    1.384   .     S
C177   O220    1.384   .     S
C177   N198    1.369   .     A
C177   C20     1.440   1_655 S
C178   O204    1.296   .     A
C178   O203    1.295   .     A
C179   O205    1.302   .     A
C179   O206    1.294   .     A
C179   C181    1.459   .     S
C180   C863    1.407   1_554 S
C180   H893    1.083   1_554 S
C182   C183    1.385   .     A
C182   H193    1.084   .     S
C183   C886    1.390   .     S
C183   H897    1.083   .     S
C184   H194    1.075   .     S
C184   C860    1.420   1_554 S
C184   C885    1.390   1_554 S
Cu185  O205    1.941   .     S
Cu185  O203    1.961   .     S
Cu185  O199    1.962   .     S
Cu185  O201    1.950   .     S
Cu185  Cu186   2.695   .     S
Cu185  N197    2.025   .     S
Cu186  O204    1.962   .     S
Cu186  O206    1.950   .     S
Cu186  O200    1.961   .     S
Cu186  O202    1.941   .     S
Cu186  N198    2.025   .     S
H191   C882    1.083   .     S
H195   C885    1.083   1_554 S
O207   C208    1.410   .     S
C208   H211    1.113   .     S
C208   H210    1.114   .     S
C208   H209    1.109   .     S
C212   H213    1.071   .     S
C212   O214    1.222   .     D
O215   C216    1.414   .     S
C216   H219    1.108   .     S
C216   H218    1.114   .     S
C216   H217    1.108   .     S
O220   C221    1.414   .     S
C221   H223    1.115   .     S
C221   H222    1.109   .     S
C221   H68     1.109   1_655 S
O225   C226    1.411   .     S
C226   H227    1.114   .     S
C226   H229    1.109   .     S
C226   H228    1.112   .     S
O230   C231    1.412   .     S
C231   H232    1.113   .     S
C231   H233    1.113   .     S
C231   H234    1.106   .     S
C235   O277    1.294   .     A
C235   O278    1.298   .     A
C235   C251    1.450   .     S
C236   C237    1.418   .     A
C236   C940    1.423   .     S
C236   C964    1.420   .     S
C237   C241    1.418   .     A
C237   C244    1.416   .     A
C238   C242    1.405   .     A
C238   C938    1.423   1_554 S
C238   C941    1.425   1_554 S
C239   C240    1.402   .     A
C239   C940    1.425   .     S
C239   C960    1.407   .     S
C240   O303    1.385   .     S
C240   C241    1.398   .     A
C241   O308    1.384   .     S
C242   H270    1.075   .     S
C242   C259    1.391   .     A
C243   C259    1.397   .     A
C243   C258    1.390   .     A
C243   H265    1.083   .     S
C244   C260    1.401   .     A
C244   C246    1.467   .     S
C245   C251    1.400   .     A
C245   H274    1.083   .     S
C245   C481    1.381   .     S
C246   O280    1.301   .     A
C246   O279    1.298   .     A
C247   H266    1.082   .     S
C247   C248    1.397   .     A
C248   C256    1.447   .     S
C248   C249    1.399   .     A
C249   H267    1.084   .     S
C250   O285    1.383   .     S
C250   C251    1.412   .     A
C250   C483    1.390   .     S
C252   N276    1.392   .     A
C252   C290    1.487   .     S
C252   C331    1.419   .     S
C253   H268    1.082   .     S
C253   N275    1.352   .     A
C253   C408    1.419   1_455 S
C254   N275    1.374   .     A
C254   O293    1.384   .     S
C254   C411    1.440   1_455 S
C255   O298    1.384   .     S
C255   N276    1.369   .     A
C255   C332    1.440   .     S
C256   O282    1.296   .     A
C256   O281    1.295   .     A
C257   O283    1.302   .     A
C257   O284    1.294   .     A
C257   C259    1.459   .     S
C258   C941    1.407   1_554 S
C258   H971    1.083   1_554 S
C260   C261    1.385   .     A
C260   H271    1.084   .     S
C261   C964    1.390   .     S
C261   H975    1.083   .     S
C262   H272    1.075   .     S
C262   C938    1.420   1_554 S
C262   C963    1.390   1_554 S
Cu263  O283    1.941   .     S
Cu263  O281    1.961   .     S
Cu263  O277    1.962   .     S
Cu263  O279    1.950   .     S
Cu263  Cu264   2.695   .     S
Cu263  N275    2.025   .     S
Cu264  O282    1.962   .     S
Cu264  O284    1.950   .     S
Cu264  O278    1.961   .     S
Cu264  O280    1.941   .     S
Cu264  N276    2.025   .     S
H269   C960    1.083   .     S
H273   C963    1.083   1_554 S
O285   C286    1.410   .     S
C286   H289    1.113   .     S
C286   H288    1.114   .     S
C286   H287    1.109   .     S
C290   H291    1.071   .     S
C290   O292    1.222   .     D
O293   C294    1.414   .     S
C294   H297    1.108   .     S
C294   H296    1.114   .     S
C294   H295    1.108   .     S
O298   C299    1.414   .     S
C299   H301    1.115   .     S
C299   H300    1.109   .     S
C299   H380    1.109   .     S
H302   C455    1.109   1_455 S
O303   C304    1.411   .     S
C304   H305    1.114   .     S
C304   H307    1.109   .     S
C304   H306    1.112   .     S
O308   C309    1.412   .     S
C309   H310    1.113   .     S
C309   H311    1.113   .     S
C309   H312    1.106   .     S
C313   O355    1.294   .     A
C313   O356    1.298   .     A
C313   C329    1.450   .     S
C314   C315    1.418   .     A
C314   C1018   1.423   .     S
C314   C1042   1.420   .     S
C315   C319    1.418   .     A
C315   C322    1.416   .     A
C316   C320    1.405   .     A
C316   C1016   1.423   1_554 S
C316   C1019   1.425   1_554 S
C317   C318    1.402   .     A
C317   C1018   1.425   .     S
C317   C1038   1.407   .     S
C318   O381    1.385   .     S
C318   C319    1.398   .     A
C319   O386    1.384   .     S
C320   H348    1.075   .     S
C320   C337    1.391   .     A
C321   C337    1.397   .     A
C321   C336    1.390   .     A
C321   H343    1.083   .     S
C322   C338    1.401   .     A
C322   C324    1.467   .     S
C323   C329    1.400   .     A
C323   H352    1.083   .     S
C323   C559    1.381   .     S
C324   O358    1.301   .     A
C324   O357    1.298   .     A
C325   H344    1.082   .     S
C325   C326    1.397   .     A
C326   C334    1.447   .     S
C326   C327    1.399   .     A
C327   H345    1.084   .     S
C328   O363    1.383   .     S
C328   C329    1.412   .     A
C328   C561    1.390   .     S
C330   N354    1.392   .     A
C330   C368    1.487   .     S
C330   C409    1.419   .     S
C331   H346    1.082   .     S
C331   N353    1.352   .     A
C332   N353    1.374   .     A
C332   O371    1.384   .     S
C333   O376    1.384   .     S
C333   N354    1.369   .     A
C333   C410    1.440   .     S
C334   O360    1.296   .     A
C334   O359    1.295   .     A
C335   O361    1.302   .     A
C335   O362    1.294   .     A
C335   C337    1.459   .     S
C336   C1019   1.407   1_554 S
C336   H1049   1.083   1_554 S
C338   C339    1.385   .     A
C338   H349    1.084   .     S
C339   C1042   1.390   .     S
C339   H1053   1.083   .     S
C340   H350    1.075   .     S
C340   C1016   1.420   1_554 S
C340   C1041   1.390   1_554 S
Cu341  O361    1.941   .     S
Cu341  O359    1.961   .     S
Cu341  O355    1.962   .     S
Cu341  O357    1.950   .     S
Cu341  Cu342   2.695   .     S
Cu341  N353    2.025   .     S
Cu342  O360    1.962   .     S
Cu342  O362    1.950   .     S
Cu342  O356    1.961   .     S
Cu342  O358    1.941   .     S
Cu342  N354    2.025   .     S
H347   C1038   1.083   .     S
H351   C1041   1.083   1_554 S
O363   C364    1.410   .     S
C364   H367    1.113   .     S
C364   H366    1.114   .     S
C364   H365    1.109   .     S
C368   H369    1.071   .     S
C368   O370    1.222   .     D
O371   C372    1.414   .     S
C372   H375    1.108   .     S
C372   H374    1.114   .     S
C372   H373    1.108   .     S
O376   C377    1.414   .     S
C377   H379    1.115   .     S
C377   H378    1.109   .     S
C377   H458    1.109   .     S
O381   C382    1.411   .     S
C382   H383    1.114   .     S
C382   H385    1.109   .     S
C382   H384    1.112   .     S
O386   C387    1.412   .     S
C387   H388    1.113   .     S
C387   H389    1.113   .     S
C387   H390    1.106   .     S
C391   O433    1.294   .     A
C391   O434    1.298   .     A
C391   C407    1.450   .     S
C392   C393    1.418   .     A
C392   C1096   1.423   .     S
C392   C1120   1.420   .     S
C393   C397    1.418   .     A
C393   C400    1.416   .     A
C394   C398    1.405   .     A
C394   C1094   1.423   1_554 S
C394   C1097   1.425   1_554 S
C395   C396    1.402   .     A
C395   C1096   1.425   .     S
C395   C1116   1.407   .     S
C396   O459    1.385   .     S
C396   C397    1.398   .     A
C397   O464    1.384   .     S
C398   H426    1.075   .     S
C398   C415    1.391   .     A
C399   C415    1.397   .     A
C399   C414    1.390   .     A
C399   H421    1.083   .     S
C400   C416    1.401   .     A
C400   C402    1.467   .     S
C401   C407    1.400   .     A
C401   H430    1.083   .     S
C401   C637    1.381   .     S
C402   O436    1.301   .     A
C402   O435    1.298   .     A
C403   H422    1.082   .     S
C403   C404    1.397   .     A
C404   C412    1.447   .     S
C404   C405    1.399   .     A
C405   H423    1.084   .     S
C406   O441    1.383   .     S
C406   C407    1.412   .     A
C406   C639    1.390   .     S
C408   N432    1.392   .     A
C408   C446    1.487   .     S
C408   C253    1.419   1_655 S
C409   H424    1.082   .     S
C409   N431    1.352   .     A
C410   N431    1.374   .     A
C410   O449    1.384   .     S
C411   O454    1.384   .     S
C411   N432    1.369   .     A
C411   C254    1.440   1_655 S
C412   O438    1.296   .     A
C412   O437    1.295   .     A
C413   O439    1.302   .     A
C413   O440    1.294   .     A
C413   C415    1.459   .     S
C414   C1097   1.407   1_554 S
C414   H1127   1.083   1_554 S
C416   C417    1.385   .     A
C416   H427    1.084   .     S
C417   C1120   1.390   .     S
C417   H1131   1.083   .     S
C418   H428    1.075   .     S
C418   C1094   1.420   1_554 S
C418   C1119   1.390   1_554 S
Cu419  O439    1.941   .     S
Cu419  O437    1.961   .     S
Cu419  O433    1.962   .     S
Cu419  O435    1.950   .     S
Cu419  Cu420   2.695   .     S
Cu419  N431    2.025   .     S
Cu420  O438    1.962   .     S
Cu420  O440    1.950   .     S
Cu420  O434    1.961   .     S
Cu420  O436    1.941   .     S
Cu420  N432    2.025   .     S
H425   C1116   1.083   .     S
H429   C1119   1.083   1_554 S
O441   C442    1.410   .     S
C442   H445    1.113   .     S
C442   H444    1.114   .     S
C442   H443    1.109   .     S
C446   H447    1.071   .     S
C446   O448    1.222   .     D
O449   C450    1.414   .     S
C450   H453    1.108   .     S
C450   H452    1.114   .     S
C450   H451    1.108   .     S
O454   C455    1.414   .     S
C455   H457    1.115   .     S
C455   H456    1.109   .     S
C455   H302    1.109   1_655 S
O459   C460    1.411   .     S
C460   H461    1.114   .     S
C460   H463    1.109   .     S
C460   H462    1.112   .     S
O464   C465    1.412   .     S
C465   H466    1.113   .     S
C465   H467    1.113   .     S
C465   H468    1.106   .     S
C469   O511    1.294   .     A
C469   O512    1.298   .     A
C469   C485    1.450   .     S
C470   C471    1.418   .     A
C470   C1174   1.423   .     S
C470   C1198   1.420   .     S
C471   C475    1.418   .     A
C471   C478    1.416   .     A
C472   C476    1.405   .     A
C472   C1172   1.423   1_554 S
C472   C1175   1.425   1_554 S
C473   C474    1.402   .     A
C473   C1174   1.425   .     S
C473   C1194   1.407   .     S
C474   O537    1.385   .     S
C474   C475    1.398   .     A
C475   O542    1.384   .     S
C476   H504    1.075   .     S
C476   C493    1.391   .     A
C477   C493    1.397   .     A
C477   C492    1.390   .     A
C477   H499    1.083   .     S
C478   C494    1.401   .     A
C478   C480    1.467   .     S
C479   C485    1.400   .     A
C479   H508    1.083   .     S
C479   C13     1.381   1_565 S
C480   O514    1.301   .     A
C480   O513    1.298   .     A
C481   H500    1.082   .     S
C481   C482    1.397   .     A
C482   C490    1.447   .     S
C482   C483    1.399   .     A
C483   H501    1.084   .     S
C484   O519    1.383   .     S
C484   C485    1.412   .     A
C484   C15     1.390   1_565 S
C486   N510    1.392   .     A
C486   C524    1.487   .     S
C486   C565    1.419   .     S
C487   H502    1.082   .     S
C487   N509    1.352   .     A
C487   C642    1.419   1_455 S
C488   N509    1.374   .     A
C488   O527    1.384   .     S
C488   C645    1.440   1_455 S
C489   O532    1.384   .     S
C489   N510    1.369   .     A
C489   C566    1.440   .     S
C490   O516    1.296   .     A
C490   O515    1.295   .     A
C491   O517    1.302   .     A
C491   O518    1.294   .     A
C491   C493    1.459   .     S
C492   C1175   1.407   1_554 S
C492   H1205   1.083   1_554 S
C494   C495    1.385   .     A
C494   H505    1.084   .     S
C495   C1198   1.390   .     S
C495   H1209   1.083   .     S
C496   H506    1.075   .     S
C496   C1172   1.420   1_554 S
C496   C1197   1.390   1_554 S
Cu497  O517    1.941   .     S
Cu497  O515    1.961   .     S
Cu497  O511    1.962   .     S
Cu497  O513    1.950   .     S
Cu497  Cu498   2.695   .     S
Cu497  N509    2.025   .     S
Cu498  O516    1.962   .     S
Cu498  O518    1.950   .     S
Cu498  O512    1.961   .     S
Cu498  O514    1.941   .     S
Cu498  N510    2.025   .     S
H503   C1194   1.083   .     S
H507   C1197   1.083   1_554 S
O519   C520    1.410   .     S
C520   H523    1.113   .     S
C520   H522    1.114   .     S
C520   H521    1.109   .     S
C524   H525    1.071   .     S
C524   O526    1.222   .     D
O527   C528    1.414   .     S
C528   H531    1.108   .     S
C528   H530    1.114   .     S
C528   H529    1.108   .     S
O532   C533    1.414   .     S
C533   H535    1.115   .     S
C533   H534    1.109   .     S
C533   H614    1.109   .     S
H536   C689    1.109   1_455 S
O537   C538    1.411   .     S
C538   H539    1.114   .     S
C538   H541    1.109   .     S
C538   H540    1.112   .     S
O542   C543    1.412   .     S
C543   H544    1.113   .     S
C543   H545    1.113   .     S
C543   H546    1.106   .     S
C547   O589    1.294   .     A
C547   O590    1.298   .     A
C547   C563    1.450   .     S
C548   C549    1.418   .     A
C548   C1252   1.423   .     S
C548   C1276   1.420   .     S
C549   C553    1.418   .     A
C549   C556    1.416   .     A
C550   C554    1.405   .     A
C550   C1250   1.423   1_554 S
C550   C1253   1.425   1_554 S
C551   C552    1.402   .     A
C551   C1252   1.425   .     S
C551   C1272   1.407   .     S
C552   O615    1.385   .     S
C552   C553    1.398   .     A
C553   O620    1.384   .     S
C554   H582    1.075   .     S
C554   C571    1.391   .     A
C555   C571    1.397   .     A
C555   C570    1.390   .     A
C555   H577    1.083   .     S
C556   C572    1.401   .     A
C556   C558    1.467   .     S
C557   C563    1.400   .     A
C557   H586    1.083   .     S
C557   C91     1.381   1_565 S
C558   O592    1.301   .     A
C558   O591    1.298   .     A
C559   H578    1.082   .     S
C559   C560    1.397   .     A
C560   C568    1.447   .     S
C560   C561    1.399   .     A
C561   H579    1.084   .     S
C562   O597    1.383   .     S
C562   C563    1.412   .     A
C562   C93     1.390   1_565 S
C564   N588    1.392   .     A
C564   C602    1.487   .     S
C564   C643    1.419   .     S
C565   H580    1.082   .     S
C565   N587    1.352   .     A
C566   N587    1.374   .     A
C566   O605    1.384   .     S
C567   O610    1.384   .     S
C567   N588    1.369   .     A
C567   C644    1.440   .     S
C568   O594    1.296   .     A
C568   O593    1.295   .     A
C569   O595    1.302   .     A
C569   O596    1.294   .     A
C569   C571    1.459   .     S
C570   C1253   1.407   1_554 S
C570   H1283   1.083   1_554 S
C572   C573    1.385   .     A
C572   H583    1.084   .     S
C573   C1276   1.390   .     S
C573   H1287   1.083   .     S
C574   H584    1.075   .     S
C574   C1250   1.420   1_554 S
C574   C1275   1.390   1_554 S
Cu575  O595    1.941   .     S
Cu575  O593    1.961   .     S
Cu575  O589    1.962   .     S
Cu575  O591    1.950   .     S
Cu575  Cu576   2.695   .     S
Cu575  N587    2.025   .     S
Cu576  O594    1.962   .     S
Cu576  O596    1.950   .     S
Cu576  O590    1.961   .     S
Cu576  O592    1.941   .     S
Cu576  N588    2.025   .     S
H581   C1272   1.083   .     S
H585   C1275   1.083   1_554 S
O597   C598    1.410   .     S
C598   H601    1.113   .     S
C598   H600    1.114   .     S
C598   H599    1.109   .     S
C602   H603    1.071   .     S
C602   O604    1.222   .     D
O605   C606    1.414   .     S
C606   H609    1.108   .     S
C606   H608    1.114   .     S
C606   H607    1.108   .     S
O610   C611    1.414   .     S
C611   H613    1.115   .     S
C611   H612    1.109   .     S
C611   H692    1.109   .     S
O615   C616    1.411   .     S
C616   H617    1.114   .     S
C616   H619    1.109   .     S
C616   H618    1.112   .     S
O620   C621    1.412   .     S
C621   H622    1.113   .     S
C621   H623    1.113   .     S
C621   H624    1.106   .     S
C625   O667    1.294   .     A
C625   O668    1.298   .     A
C625   C641    1.450   .     S
C626   C627    1.418   .     A
C626   C1330   1.423   .     S
C626   C1354   1.420   .     S
C627   C631    1.418   .     A
C627   C634    1.416   .     A
C628   C632    1.405   .     A
C628   C1328   1.423   1_554 S
C628   C1331   1.425   1_554 S
C629   C630    1.402   .     A
C629   C1330   1.425   .     S
C629   C1350   1.407   .     S
C630   O693    1.385   .     S
C630   C631    1.398   .     A
C631   O698    1.384   .     S
C632   H660    1.075   .     S
C632   C649    1.391   .     A
C633   C649    1.397   .     A
C633   C648    1.390   .     A
C633   H655    1.083   .     S
C634   C650    1.401   .     A
C634   C636    1.467   .     S
C635   C641    1.400   .     A
C635   H664    1.083   .     S
C635   C169    1.381   1_565 S
C636   O670    1.301   .     A
C636   O669    1.298   .     A
C637   H656    1.082   .     S
C637   C638    1.397   .     A
C638   C646    1.447   .     S
C638   C639    1.399   .     A
C639   H657    1.084   .     S
C640   O675    1.383   .     S
C640   C641    1.412   .     A
C640   C171    1.390   1_565 S
C642   N666    1.392   .     A
C642   C680    1.487   .     S
C642   C487    1.419   1_655 S
C643   H658    1.082   .     S
C643   N665    1.352   .     A
C644   N665    1.374   .     A
C644   O683    1.384   .     S
C645   O688    1.384   .     S
C645   N666    1.369   .     A
C645   C488    1.440   1_655 S
C646   O672    1.296   .     A
C646   O671    1.295   .     A
C647   O673    1.302   .     A
C647   O674    1.294   .     A
C647   C649    1.459   .     S
C648   C1331   1.407   1_554 S
C648   H1361   1.083   1_554 S
C650   C651    1.385   .     A
C650   H661    1.084   .     S
C651   C1354   1.390   .     S
C651   H1365   1.083   .     S
C652   H662    1.075   .     S
C652   C1328   1.420   1_554 S
C652   C1353   1.390   1_554 S
Cu653  O673    1.941   .     S
Cu653  O671    1.961   .     S
Cu653  O667    1.962   .     S
Cu653  O669    1.950   .     S
Cu653  Cu654   2.695   .     S
Cu653  N665    2.025   .     S
Cu654  O672    1.962   .     S
Cu654  O674    1.950   .     S
Cu654  O668    1.961   .     S
Cu654  O670    1.941   .     S
Cu654  N666    2.025   .     S
H659   C1350   1.083   .     S
H663   C1353   1.083   1_554 S
O675   C676    1.410   .     S
C676   H679    1.113   .     S
C676   H678    1.114   .     S
C676   H677    1.109   .     S
C680   H681    1.071   .     S
C680   O682    1.222   .     D
O683   C684    1.414   .     S
C684   H687    1.108   .     S
C684   H686    1.114   .     S
C684   H685    1.108   .     S
O688   C689    1.414   .     S
C689   H691    1.115   .     S
C689   H690    1.109   .     S
C689   H536    1.109   1_655 S
O693   C694    1.411   .     S
C694   H695    1.114   .     S
C694   H697    1.109   .     S
C694   H696    1.112   .     S
O698   C699    1.412   .     S
C699   H700    1.113   .     S
C699   H701    1.113   .     S
C699   H702    1.106   .     S
C703   O745    1.294   .     A
C703   O746    1.298   .     A
C703   C719    1.450   .     S
C704   C705    1.418   .     A
C704   C4      1.423   1_556 S
C704   C28     1.420   1_556 S
C705   C709    1.418   .     A
C705   C712    1.416   .     A
C706   C710    1.405   .     A
C707   C708    1.402   .     A
C707   C4      1.425   1_556 S
C707   C24     1.407   1_556 S
C708   O771    1.385   .     S
C708   C709    1.398   .     A
C709   O776    1.384   .     S
C710   H738    1.075   .     S
C710   C727    1.391   .     A
C711   C727    1.397   .     A
C711   C726    1.390   .     A
C711   H733    1.083   .     S
C712   C728    1.401   .     A
C712   C714    1.467   .     S
C713   C719    1.400   .     A
C713   H742    1.083   .     S
C713   C949    1.381   .     S
C714   O748    1.301   .     A
C714   O747    1.298   .     A
C715   H734    1.082   .     S
C715   C716    1.397   .     A
C715   C1181   1.381   1_545 S
C716   C724    1.447   .     S
C716   C717    1.399   .     A
C717   H735    1.084   .     S
C717   C1186   1.390   1_545 S
C718   O753    1.383   .     S
C718   C719    1.412   .     A
C718   C951    1.390   .     S
C720   N744    1.392   .     A
C720   C758    1.487   .     S
C720   C799    1.419   .     S
C721   H736    1.082   .     S
C721   N743    1.352   .     A
C721   C876    1.419   1_455 S
C722   N743    1.374   .     A
C722   O761    1.384   .     S
C722   C879    1.440   1_455 S
C723   O766    1.384   .     S
C723   N744    1.369   .     A
C723   C800    1.440   .     S
C724   O750    1.296   .     A
C724   O749    1.295   .     A
C725   O751    1.302   .     A
C725   O752    1.294   .     A
C725   C727    1.459   .     S
C728   C729    1.385   .     A
C728   H739    1.084   .     S
C729   C28     1.390   1_556 S
C729   H39     1.083   1_556 S
C730   H740    1.075   .     S
Cu731  O751    1.941   .     S
Cu731  O749    1.961   .     S
Cu731  O745    1.962   .     S
Cu731  O747    1.950   .     S
Cu731  Cu732   2.695   .     S
Cu731  N743    2.025   .     S
Cu732  O750    1.962   .     S
Cu732  O752    1.950   .     S
Cu732  O746    1.961   .     S
Cu732  O748    1.941   .     S
Cu732  N744    2.025   .     S
H737   C24     1.083   1_556 S
O753   C754    1.410   .     S
C754   H757    1.113   .     S
C754   H756    1.114   .     S
C754   H755    1.109   .     S
C758   H759    1.071   .     S
C758   O760    1.222   .     D
O761   C762    1.414   .     S
C762   H765    1.108   .     S
C762   H764    1.114   .     S
C762   H763    1.108   .     S
O766   C767    1.414   .     S
C767   H769    1.115   .     S
C767   H768    1.109   .     S
C767   H848    1.109   .     S
H770   C923    1.109   1_455 S
O771   C772    1.411   .     S
C772   H773    1.114   .     S
C772   H775    1.109   .     S
C772   H774    1.112   .     S
O776   C777    1.412   .     S
C777   H778    1.113   .     S
C777   H779    1.113   .     S
C777   H780    1.106   .     S
C781   O823    1.294   .     A
C781   O824    1.298   .     A
C781   C797    1.450   .     S
C782   C783    1.418   .     A
C782   C82     1.423   1_556 S
C782   C106    1.420   1_556 S
C783   C787    1.418   .     A
C783   C790    1.416   .     A
C784   C788    1.405   .     A
C785   C786    1.402   .     A
C785   C82     1.425   1_556 S
C785   C102    1.407   1_556 S
C786   O849    1.385   .     S
C786   C787    1.398   .     A
C787   O854    1.384   .     S
C788   H816    1.075   .     S
C788   C805    1.391   .     A
C789   C805    1.397   .     A
C789   C804    1.390   .     A
C789   H811    1.083   .     S
C790   C806    1.401   .     A
C790   C792    1.467   .     S
C791   C797    1.400   .     A
C791   H820    1.083   .     S
C791   C1027   1.381   .     S
C792   O826    1.301   .     A
C792   O825    1.298   .     A
C793   H812    1.082   .     S
C793   C794    1.397   .     A
C793   C1259   1.381   1_545 S
C794   C802    1.447   .     S
C794   C795    1.399   .     A
C795   H813    1.084   .     S
C795   C1264   1.390   1_545 S
C796   O831    1.383   .     S
C796   C797    1.412   .     A
C796   C1029   1.390   .     S
C798   N822    1.392   .     A
C798   C836    1.487   .     S
C798   C877    1.419   .     S
C799   H814    1.082   .     S
C799   N821    1.352   .     A
C800   N821    1.374   .     A
C800   O839    1.384   .     S
C801   O844    1.384   .     S
C801   N822    1.369   .     A
C801   C878    1.440   .     S
C802   O828    1.296   .     A
C802   O827    1.295   .     A
C803   O829    1.302   .     A
C803   O830    1.294   .     A
C803   C805    1.459   .     S
C806   C807    1.385   .     A
C806   H817    1.084   .     S
C807   C106    1.390   1_556 S
C807   H117    1.083   1_556 S
C808   H818    1.075   .     S
Cu809  O829    1.941   .     S
Cu809  O827    1.961   .     S
Cu809  O823    1.962   .     S
Cu809  O825    1.950   .     S
Cu809  Cu810   2.695   .     S
Cu809  N821    2.025   .     S
Cu810  O828    1.962   .     S
Cu810  O830    1.950   .     S
Cu810  O824    1.961   .     S
Cu810  O826    1.941   .     S
Cu810  N822    2.025   .     S
H815   C102    1.083   1_556 S
O831   C832    1.410   .     S
C832   H835    1.113   .     S
C832   H834    1.114   .     S
C832   H833    1.109   .     S
C836   H837    1.071   .     S
C836   O838    1.222   .     D
O839   C840    1.414   .     S
C840   H843    1.108   .     S
C840   H842    1.114   .     S
C840   H841    1.108   .     S
O844   C845    1.414   .     S
C845   H847    1.115   .     S
C845   H846    1.109   .     S
C845   H926    1.109   .     S
O849   C850    1.411   .     S
C850   H851    1.114   .     S
C850   H853    1.109   .     S
C850   H852    1.112   .     S
O854   C855    1.412   .     S
C855   H856    1.113   .     S
C855   H857    1.113   .     S
C855   H858    1.106   .     S
C859   O901    1.294   .     A
C859   O902    1.298   .     A
C859   C875    1.450   .     S
C860   C861    1.418   .     A
C860   C160    1.423   1_556 S
C860   C184    1.420   1_556 S
C861   C865    1.418   .     A
C861   C868    1.416   .     A
C862   C866    1.405   .     A
C863   C864    1.402   .     A
C863   C160    1.425   1_556 S
C863   C180    1.407   1_556 S
C864   O927    1.385   .     S
C864   C865    1.398   .     A
C865   O932    1.384   .     S
C866   H894    1.075   .     S
C866   C883    1.391   .     A
C867   C883    1.397   .     A
C867   C882    1.390   .     A
C867   H889    1.083   .     S
C868   C884    1.401   .     A
C868   C870    1.467   .     S
C869   C875    1.400   .     A
C869   H898    1.083   .     S
C869   C1105   1.381   .     S
C870   O904    1.301   .     A
C870   O903    1.298   .     A
C871   H890    1.082   .     S
C871   C872    1.397   .     A
C871   C1337   1.381   1_545 S
C872   C880    1.447   .     S
C872   C873    1.399   .     A
C873   H891    1.084   .     S
C873   C1342   1.390   1_545 S
C874   O909    1.383   .     S
C874   C875    1.412   .     A
C874   C1107   1.390   .     S
C876   N900    1.392   .     A
C876   C914    1.487   .     S
C876   C721    1.419   1_655 S
C877   H892    1.082   .     S
C877   N899    1.352   .     A
C878   N899    1.374   .     A
C878   O917    1.384   .     S
C879   O922    1.384   .     S
C879   N900    1.369   .     A
C879   C722    1.440   1_655 S
C880   O906    1.296   .     A
C880   O905    1.295   .     A
C881   O907    1.302   .     A
C881   O908    1.294   .     A
C881   C883    1.459   .     S
C884   C885    1.385   .     A
C884   H895    1.084   .     S
C885   C184    1.390   1_556 S
C885   H195    1.083   1_556 S
C886   H896    1.075   .     S
Cu887  O907    1.941   .     S
Cu887  O905    1.961   .     S
Cu887  O901    1.962   .     S
Cu887  O903    1.950   .     S
Cu887  Cu888   2.695   .     S
Cu887  N899    2.025   .     S
Cu888  O906    1.962   .     S
Cu888  O908    1.950   .     S
Cu888  O902    1.961   .     S
Cu888  O904    1.941   .     S
Cu888  N900    2.025   .     S
H893   C180    1.083   1_556 S
O909   C910    1.410   .     S
C910   H913    1.113   .     S
C910   H912    1.114   .     S
C910   H911    1.109   .     S
C914   H915    1.071   .     S
C914   O916    1.222   .     D
O917   C918    1.414   .     S
C918   H921    1.108   .     S
C918   H920    1.114   .     S
C918   H919    1.108   .     S
O922   C923    1.414   .     S
C923   H925    1.115   .     S
C923   H924    1.109   .     S
C923   H770    1.109   1_655 S
O927   C928    1.411   .     S
C928   H929    1.114   .     S
C928   H931    1.109   .     S
C928   H930    1.112   .     S
O932   C933    1.412   .     S
C933   H934    1.113   .     S
C933   H935    1.113   .     S
C933   H936    1.106   .     S
C937   O979    1.294   .     A
C937   O980    1.298   .     A
C937   C953    1.450   .     S
C938   C939    1.418   .     A
C938   C238    1.423   1_556 S
C938   C262    1.420   1_556 S
C939   C943    1.418   .     A
C939   C946    1.416   .     A
C940   C944    1.405   .     A
C941   C942    1.402   .     A
C941   C238    1.425   1_556 S
C941   C258    1.407   1_556 S
C942   O1005   1.385   .     S
C942   C943    1.398   .     A
C943   O1010   1.384   .     S
C944   H972    1.075   .     S
C944   C961    1.391   .     A
C945   C961    1.397   .     A
C945   C960    1.390   .     A
C945   H967    1.083   .     S
C946   C962    1.401   .     A
C946   C948    1.467   .     S
C947   C953    1.400   .     A
C947   H976    1.083   .     S
C947   C1183   1.381   .     S
C948   O982    1.301   .     A
C948   O981    1.298   .     A
C949   H968    1.082   .     S
C949   C950    1.397   .     A
C950   C958    1.447   .     S
C950   C951    1.399   .     A
C951   H969    1.084   .     S
C952   O987    1.383   .     S
C952   C953    1.412   .     A
C952   C1185   1.390   .     S
C954   N978    1.392   .     A
C954   C992    1.487   .     S
C954   C1033   1.419   .     S
C955   H970    1.082   .     S
C955   N977    1.352   .     A
C955   C1110   1.419   1_455 S
C956   N977    1.374   .     A
C956   O995    1.384   .     S
C956   C1113   1.440   1_455 S
C957   O1000   1.384   .     S
C957   N978    1.369   .     A
C957   C1034   1.440   .     S
C958   O984    1.296   .     A
C958   O983    1.295   .     A
C959   O985    1.302   .     A
C959   O986    1.294   .     A
C959   C961    1.459   .     S
C962   C963    1.385   .     A
C962   H973    1.084   .     S
C963   C262    1.390   1_556 S
C963   H273    1.083   1_556 S
C964   H974    1.075   .     S
Cu965  O985    1.941   .     S
Cu965  O983    1.961   .     S
Cu965  O979    1.962   .     S
Cu965  O981    1.950   .     S
Cu965  Cu966   2.695   .     S
Cu965  N977    2.025   .     S
Cu966  O984    1.962   .     S
Cu966  O986    1.950   .     S
Cu966  O980    1.961   .     S
Cu966  O982    1.941   .     S
Cu966  N978    2.025   .     S
H971   C258    1.083   1_556 S
O987   C988    1.410   .     S
C988   H991    1.113   .     S
C988   H990    1.114   .     S
C988   H989    1.109   .     S
C992   H993    1.071   .     S
C992   O994    1.222   .     D
O995   C996    1.414   .     S
C996   H999    1.108   .     S
C996   H998    1.114   .     S
C996   H997    1.108   .     S
O1000  C1001   1.414   .     S
C1001  H1003   1.115   .     S
C1001  H1002   1.109   .     S
C1001  H1082   1.109   .     S
H1004  C1157   1.109   1_455 S
O1005  C1006   1.411   .     S
C1006  H1007   1.114   .     S
C1006  H1009   1.109   .     S
C1006  H1008   1.112   .     S
O1010  C1011   1.412   .     S
C1011  H1012   1.113   .     S
C1011  H1013   1.113   .     S
C1011  H1014   1.106   .     S
C1015  O1057   1.294   .     A
C1015  O1058   1.298   .     A
C1015  C1031   1.450   .     S
C1016  C1017   1.418   .     A
C1016  C316    1.423   1_556 S
C1016  C340    1.420   1_556 S
C1017  C1021   1.418   .     A
C1017  C1024   1.416   .     A
C1018  C1022   1.405   .     A
C1019  C1020   1.402   .     A
C1019  C316    1.425   1_556 S
C1019  C336    1.407   1_556 S
C1020  O1083   1.385   .     S
C1020  C1021   1.398   .     A
C1021  O1088   1.384   .     S
C1022  H1050   1.075   .     S
C1022  C1039   1.391   .     A
C1023  C1039   1.397   .     A
C1023  C1038   1.390   .     A
C1023  H1045   1.083   .     S
C1024  C1040   1.401   .     A
C1024  C1026   1.467   .     S
C1025  C1031   1.400   .     A
C1025  H1054   1.083   .     S
C1025  C1261   1.381   .     S
C1026  O1060   1.301   .     A
C1026  O1059   1.298   .     A
C1027  H1046   1.082   .     S
C1027  C1028   1.397   .     A
C1028  C1036   1.447   .     S
C1028  C1029   1.399   .     A
C1029  H1047   1.084   .     S
C1030  O1065   1.383   .     S
C1030  C1031   1.412   .     A
C1030  C1263   1.390   .     S
C1032  N1056   1.392   .     A
C1032  C1070   1.487   .     S
C1032  C1111   1.419   .     S
C1033  H1048   1.082   .     S
C1033  N1055   1.352   .     A
C1034  N1055   1.374   .     A
C1034  O1073   1.384   .     S
C1035  O1078   1.384   .     S
C1035  N1056   1.369   .     A
C1035  C1112   1.440   .     S
C1036  O1062   1.296   .     A
C1036  O1061   1.295   .     A
C1037  O1063   1.302   .     A
C1037  O1064   1.294   .     A
C1037  C1039   1.459   .     S
C1040  C1041   1.385   .     A
C1040  H1051   1.084   .     S
C1041  C340    1.390   1_556 S
C1041  H351    1.083   1_556 S
C1042  H1052   1.075   .     S
Cu1043 O1063   1.941   .     S
Cu1043 O1061   1.961   .     S
Cu1043 O1057   1.962   .     S
Cu1043 O1059   1.950   .     S
Cu1043 Cu1044  2.695   .     S
Cu1043 N1055   2.025   .     S
Cu1044 O1062   1.962   .     S
Cu1044 O1064   1.950   .     S
Cu1044 O1058   1.961   .     S
Cu1044 O1060   1.941   .     S
Cu1044 N1056   2.025   .     S
H1049  C336    1.083   1_556 S
O1065  C1066   1.410   .     S
C1066  H1069   1.113   .     S
C1066  H1068   1.114   .     S
C1066  H1067   1.109   .     S
C1070  H1071   1.071   .     S
C1070  O1072   1.222   .     D
O1073  C1074   1.414   .     S
C1074  H1077   1.108   .     S
C1074  H1076   1.114   .     S
C1074  H1075   1.108   .     S
O1078  C1079   1.414   .     S
C1079  H1081   1.115   .     S
C1079  H1080   1.109   .     S
C1079  H1160   1.109   .     S
O1083  C1084   1.411   .     S
C1084  H1085   1.114   .     S
C1084  H1087   1.109   .     S
C1084  H1086   1.112   .     S
O1088  C1089   1.412   .     S
C1089  H1090   1.113   .     S
C1089  H1091   1.113   .     S
C1089  H1092   1.106   .     S
C1093  O1135   1.294   .     A
C1093  O1136   1.298   .     A
C1093  C1109   1.450   .     S
C1094  C1095   1.418   .     A
C1094  C394    1.423   1_556 S
C1094  C418    1.420   1_556 S
C1095  C1099   1.418   .     A
C1095  C1102   1.416   .     A
C1096  C1100   1.405   .     A
C1097  C1098   1.402   .     A
C1097  C394    1.425   1_556 S
C1097  C414    1.407   1_556 S
C1098  O1161   1.385   .     S
C1098  C1099   1.398   .     A
C1099  O1166   1.384   .     S
C1100  H1128   1.075   .     S
C1100  C1117   1.391   .     A
C1101  C1117   1.397   .     A
C1101  C1116   1.390   .     A
C1101  H1123   1.083   .     S
C1102  C1118   1.401   .     A
C1102  C1104   1.467   .     S
C1103  C1109   1.400   .     A
C1103  H1132   1.083   .     S
C1103  C1339   1.381   .     S
C1104  O1138   1.301   .     A
C1104  O1137   1.298   .     A
C1105  H1124   1.082   .     S
C1105  C1106   1.397   .     A
C1106  C1114   1.447   .     S
C1106  C1107   1.399   .     A
C1107  H1125   1.084   .     S
C1108  O1143   1.383   .     S
C1108  C1109   1.412   .     A
C1108  C1341   1.390   .     S
C1110  N1134   1.392   .     A
C1110  C1148   1.487   .     S
C1110  C955    1.419   1_655 S
C1111  H1126   1.082   .     S
C1111  N1133   1.352   .     A
C1112  N1133   1.374   .     A
C1112  O1151   1.384   .     S
C1113  O1156   1.384   .     S
C1113  N1134   1.369   .     A
C1113  C956    1.440   1_655 S
C1114  O1140   1.296   .     A
C1114  O1139   1.295   .     A
C1115  O1141   1.302   .     A
C1115  O1142   1.294   .     A
C1115  C1117   1.459   .     S
C1118  C1119   1.385   .     A
C1118  H1129   1.084   .     S
C1119  C418    1.390   1_556 S
C1119  H429    1.083   1_556 S
C1120  H1130   1.075   .     S
Cu1121 O1141   1.941   .     S
Cu1121 O1139   1.961   .     S
Cu1121 O1135   1.962   .     S
Cu1121 O1137   1.950   .     S
Cu1121 Cu1122  2.695   .     S
Cu1121 N1133   2.025   .     S
Cu1122 O1140   1.962   .     S
Cu1122 O1142   1.950   .     S
Cu1122 O1136   1.961   .     S
Cu1122 O1138   1.941   .     S
Cu1122 N1134   2.025   .     S
H1127  C414    1.083   1_556 S
O1143  C1144   1.410   .     S
C1144  H1147   1.113   .     S
C1144  H1146   1.114   .     S
C1144  H1145   1.109   .     S
C1148  H1149   1.071   .     S
C1148  O1150   1.222   .     D
O1151  C1152   1.414   .     S
C1152  H1155   1.108   .     S
C1152  H1154   1.114   .     S
C1152  H1153   1.108   .     S
O1156  C1157   1.414   .     S
C1157  H1159   1.115   .     S
C1157  H1158   1.109   .     S
C1157  H1004   1.109   1_655 S
O1161  C1162   1.411   .     S
C1162  H1163   1.114   .     S
C1162  H1165   1.109   .     S
C1162  H1164   1.112   .     S
O1166  C1167   1.412   .     S
C1167  H1168   1.113   .     S
C1167  H1169   1.113   .     S
C1167  H1170   1.106   .     S
C1171  O1213   1.294   .     A
C1171  O1214   1.298   .     A
C1171  C1187   1.450   .     S
C1172  C1173   1.418   .     A
C1172  C472    1.423   1_556 S
C1172  C496    1.420   1_556 S
C1173  C1177   1.418   .     A
C1173  C1180   1.416   .     A
C1174  C1178   1.405   .     A
C1175  C1176   1.402   .     A
C1175  C472    1.425   1_556 S
C1175  C492    1.407   1_556 S
C1176  O1239   1.385   .     S
C1176  C1177   1.398   .     A
C1177  O1244   1.384   .     S
C1178  H1206   1.075   .     S
C1178  C1195   1.391   .     A
C1179  C1195   1.397   .     A
C1179  C1194   1.390   .     A
C1179  H1201   1.083   .     S
C1180  C1196   1.401   .     A
C1180  C1182   1.467   .     S
C1181  C1187   1.400   .     A
C1181  H1210   1.083   .     S
C1181  C715    1.381   1_565 S
C1182  O1216   1.301   .     A
C1182  O1215   1.298   .     A
C1183  H1202   1.082   .     S
C1183  C1184   1.397   .     A
C1184  C1192   1.447   .     S
C1184  C1185   1.399   .     A
C1185  H1203   1.084   .     S
C1186  O1221   1.383   .     S
C1186  C1187   1.412   .     A
C1186  C717    1.390   1_565 S
C1188  N1212   1.392   .     A
C1188  C1226   1.487   .     S
C1188  C1267   1.419   .     S
C1189  H1204   1.082   .     S
C1189  N1211   1.352   .     A
C1189  C1344   1.419   1_455 S
C1190  N1211   1.374   .     A
C1190  O1229   1.384   .     S
C1190  C1347   1.440   1_455 S
C1191  O1234   1.384   .     S
C1191  N1212   1.369   .     A
C1191  C1268   1.440   .     S
C1192  O1218   1.296   .     A
C1192  O1217   1.295   .     A
C1193  O1219   1.302   .     A
C1193  O1220   1.294   .     A
C1193  C1195   1.459   .     S
C1196  C1197   1.385   .     A
C1196  H1207   1.084   .     S
C1197  C496    1.390   1_556 S
C1197  H507    1.083   1_556 S
C1198  H1208   1.075   .     S
Cu1199 O1219   1.941   .     S
Cu1199 O1217   1.961   .     S
Cu1199 O1213   1.962   .     S
Cu1199 O1215   1.950   .     S
Cu1199 Cu1200  2.695   .     S
Cu1199 N1211   2.025   .     S
Cu1200 O1218   1.962   .     S
Cu1200 O1220   1.950   .     S
Cu1200 O1214   1.961   .     S
Cu1200 O1216   1.941   .     S
Cu1200 N1212   2.025   .     S
H1205  C492    1.083   1_556 S
O1221  C1222   1.410   .     S
C1222  H1225   1.113   .     S
C1222  H1224   1.114   .     S
C1222  H1223   1.109   .     S
C1226  H1227   1.071   .     S
C1226  O1228   1.222   .     D
O1229  C1230   1.414   .     S
C1230  H1233   1.108   .     S
C1230  H1232   1.114   .     S
C1230  H1231   1.108   .     S
O1234  C1235   1.414   .     S
C1235  H1237   1.115   .     S
C1235  H1236   1.109   .     S
C1235  H1316   1.109   .     S
H1238  C1391   1.109   1_455 S
O1239  C1240   1.411   .     S
C1240  H1241   1.114   .     S
C1240  H1243   1.109   .     S
C1240  H1242   1.112   .     S
O1244  C1245   1.412   .     S
C1245  H1246   1.113   .     S
C1245  H1247   1.113   .     S
C1245  H1248   1.106   .     S
C1249  O1291   1.294   .     A
C1249  O1292   1.298   .     A
C1249  C1265   1.450   .     S
C1250  C1251   1.418   .     A
C1250  C550    1.423   1_556 S
C1250  C574    1.420   1_556 S
C1251  C1255   1.418   .     A
C1251  C1258   1.416   .     A
C1252  C1256   1.405   .     A
C1253  C1254   1.402   .     A
C1253  C550    1.425   1_556 S
C1253  C570    1.407   1_556 S
C1254  O1317   1.385   .     S
C1254  C1255   1.398   .     A
C1255  O1322   1.384   .     S
C1256  H1284   1.075   .     S
C1256  C1273   1.391   .     A
C1257  C1273   1.397   .     A
C1257  C1272   1.390   .     A
C1257  H1279   1.083   .     S
C1258  C1274   1.401   .     A
C1258  C1260   1.467   .     S
C1259  C1265   1.400   .     A
C1259  H1288   1.083   .     S
C1259  C793    1.381   1_565 S
C1260  O1294   1.301   .     A
C1260  O1293   1.298   .     A
C1261  H1280   1.082   .     S
C1261  C1262   1.397   .     A
C1262  C1270   1.447   .     S
C1262  C1263   1.399   .     A
C1263  H1281   1.084   .     S
C1264  O1299   1.383   .     S
C1264  C1265   1.412   .     A
C1264  C795    1.390   1_565 S
C1266  N1290   1.392   .     A
C1266  C1304   1.487   .     S
C1266  C1345   1.419   .     S
C1267  H1282   1.082   .     S
C1267  N1289   1.352   .     A
C1268  N1289   1.374   .     A
C1268  O1307   1.384   .     S
C1269  O1312   1.384   .     S
C1269  N1290   1.369   .     A
C1269  C1346   1.440   .     S
C1270  O1296   1.296   .     A
C1270  O1295   1.295   .     A
C1271  O1297   1.302   .     A
C1271  O1298   1.294   .     A
C1271  C1273   1.459   .     S
C1274  C1275   1.385   .     A
C1274  H1285   1.084   .     S
C1275  C574    1.390   1_556 S
C1275  H585    1.083   1_556 S
C1276  H1286   1.075   .     S
Cu1277 O1297   1.941   .     S
Cu1277 O1295   1.961   .     S
Cu1277 O1291   1.962   .     S
Cu1277 O1293   1.950   .     S
Cu1277 Cu1278  2.695   .     S
Cu1277 N1289   2.025   .     S
Cu1278 O1296   1.962   .     S
Cu1278 O1298   1.950   .     S
Cu1278 O1292   1.961   .     S
Cu1278 O1294   1.941   .     S
Cu1278 N1290   2.025   .     S
H1283  C570    1.083   1_556 S
O1299  C1300   1.410   .     S
C1300  H1303   1.113   .     S
C1300  H1302   1.114   .     S
C1300  H1301   1.109   .     S
C1304  H1305   1.071   .     S
C1304  O1306   1.222   .     D
O1307  C1308   1.414   .     S
C1308  H1311   1.108   .     S
C1308  H1310   1.114   .     S
C1308  H1309   1.108   .     S
O1312  C1313   1.414   .     S
C1313  H1315   1.115   .     S
C1313  H1314   1.109   .     S
C1313  H1394   1.109   .     S
O1317  C1318   1.411   .     S
C1318  H1319   1.114   .     S
C1318  H1321   1.109   .     S
C1318  H1320   1.112   .     S
O1322  C1323   1.412   .     S
C1323  H1324   1.113   .     S
C1323  H1325   1.113   .     S
C1323  H1326   1.106   .     S
C1327  O1369   1.294   .     A
C1327  O1370   1.298   .     A
C1327  C1343   1.450   .     S
C1328  C1329   1.418   .     A
C1328  C628    1.423   1_556 S
C1328  C652    1.420   1_556 S
C1329  C1333   1.418   .     A
C1329  C1336   1.416   .     A
C1330  C1334   1.405   .     A
C1331  C1332   1.402   .     A
C1331  C628    1.425   1_556 S
C1331  C648    1.407   1_556 S
C1332  O1395   1.385   .     S
C1332  C1333   1.398   .     A
C1333  O1400   1.384   .     S
C1334  H1362   1.075   .     S
C1334  C1351   1.391   .     A
C1335  C1351   1.397   .     A
C1335  C1350   1.390   .     A
C1335  H1357   1.083   .     S
C1336  C1352   1.401   .     A
C1336  C1338   1.467   .     S
C1337  C1343   1.400   .     A
C1337  H1366   1.083   .     S
C1337  C871    1.381   1_565 S
C1338  O1372   1.301   .     A
C1338  O1371   1.298   .     A
C1339  H1358   1.082   .     S
C1339  C1340   1.397   .     A
C1340  C1348   1.447   .     S
C1340  C1341   1.399   .     A
C1341  H1359   1.084   .     S
C1342  O1377   1.383   .     S
C1342  C1343   1.412   .     A
C1342  C873    1.390   1_565 S
C1344  N1368   1.392   .     A
C1344  C1382   1.487   .     S
C1344  C1189   1.419   1_655 S
C1345  H1360   1.082   .     S
C1345  N1367   1.352   .     A
C1346  N1367   1.374   .     A
C1346  O1385   1.384   .     S
C1347  O1390   1.384   .     S
C1347  N1368   1.369   .     A
C1347  C1190   1.440   1_655 S
C1348  O1374   1.296   .     A
C1348  O1373   1.295   .     A
C1349  O1375   1.302   .     A
C1349  O1376   1.294   .     A
C1349  C1351   1.459   .     S
C1352  C1353   1.385   .     A
C1352  H1363   1.084   .     S
C1353  C652    1.390   1_556 S
C1353  H663    1.083   1_556 S
C1354  H1364   1.075   .     S
Cu1355 O1375   1.941   .     S
Cu1355 O1373   1.961   .     S
Cu1355 O1369   1.962   .     S
Cu1355 O1371   1.950   .     S
Cu1355 Cu1356  2.695   .     S
Cu1355 N1367   2.025   .     S
Cu1356 O1374   1.962   .     S
Cu1356 O1376   1.950   .     S
Cu1356 O1370   1.961   .     S
Cu1356 O1372   1.941   .     S
Cu1356 N1368   2.025   .     S
H1361  C648    1.083   1_556 S
O1377  C1378   1.410   .     S
C1378  H1381   1.113   .     S
C1378  H1380   1.114   .     S
C1378  H1379   1.109   .     S
C1382  H1383   1.071   .     S
C1382  O1384   1.222   .     D
O1385  C1386   1.414   .     S
C1386  H1389   1.108   .     S
C1386  H1388   1.114   .     S
C1386  H1387   1.108   .     S
O1390  C1391   1.414   .     S
C1391  H1393   1.115   .     S
C1391  H1392   1.109   .     S
C1391  H1238   1.109   1_655 S
O1395  C1396   1.411   .     S
C1396  H1397   1.114   .     S
C1396  H1399   1.109   .     S
C1396  H1398   1.112   .     S
O1400  C1401   1.412   .     S
C1401  H1402   1.113   .     S
C1401  H1403   1.113   .     S
C1401  H1404   1.106   .     S
