data_str_m2_o1_o2_pcu_sym.112
_audit_creation_date              2020-01-03
_audit_creation_method            'Materials Studio'
_symmetry_space_group_name_H-M    'P1'
_symmetry_Int_Tables_number       1
_symmetry_cell_setting            triclinic
loop_
_symmetry_equiv_pos_as_xyz
  x,y,z
_cell_length_a                    32.9701
_cell_length_b                    28.6712
_cell_length_c                    31.2808
_cell_angle_alpha                 90.8349
_cell_angle_beta                  91.8132
_cell_angle_gamma                 90.1215
loop_
_atom_site_label
_atom_site_type_symbol
_atom_site_fract_x
_atom_site_fract_y
_atom_site_fract_z
_atom_site_U_iso_or_equiv
_atom_site_adp_type
_atom_site_occupancy
O1     O     0.10655   0.20625   0.24999   0.00000  Uiso   1.00
O2     O     0.22679   0.12709   0.25000   0.00000  Uiso   1.00
O3     O     0.22679   0.20625   0.25000   0.00000  Uiso   1.00
O4     O     0.10655   0.12709   0.24999   0.00000  Uiso   1.00
N5     N     0.16667   0.28402   0.25000   0.00000  Uiso   1.00
N6     N     0.16667   0.04931   0.25000   0.00000  Uiso   1.00
C7     C     0.08747   0.16688   0.24953   0.00000  Uiso   1.00
C8     C     0.24606   0.16672   0.24984   0.00000  Uiso   1.00
O9     O     0.16666   0.20626   0.18573   0.00000  Uiso   1.00
O10    O     0.16667   0.12707   0.31427   0.00000  Uiso   1.00
O11    O     0.16667   0.20626   0.31427   0.00000  Uiso   1.00
O12    O     0.16666   0.12707   0.18573   0.00000  Uiso   1.00
C13    C     0.16700   0.16622   0.16491   0.00000  Uiso   1.00
C14    C     0.16771   0.16686   0.33483   0.00000  Uiso   1.00
Cu15   Cu    0.16667   0.21355   0.25000   0.00000  Uiso   1.00
Cu16   Cu    0.16667   0.11978   0.25000   0.00000  Uiso   1.00
C17    C     0.13987   0.02434   0.22441   0.00000  Uiso   1.00
C18    C     0.19285   0.30918   0.27587   0.00000  Uiso   1.00
C19    C     0.19068   0.02510   0.27824   0.00000  Uiso   1.00
C20    C     0.13861   0.30827   0.22597   0.00000  Uiso   1.00
C21    C     0.02102   0.12843   0.23415   0.00000  Uiso   1.00
C22    C     0.31270   0.20968   0.25370   0.00000  Uiso   1.00
C23    C     0.31299   0.12564   0.24127   0.00000  Uiso   1.00
C24    C     0.02156   0.20888   0.25859   0.00000  Uiso   1.00
C25    C     0.19402   0.19723   0.05149   0.00000  Uiso   1.00
C26    C     0.17183   0.12091   0.44796   0.00000  Uiso   1.00
C27    C     0.18062   0.20467   0.45215   0.00000  Uiso   1.00
C28    C     0.16072   0.12279   0.04815   0.00000  Uiso   1.00
C29    C     0.17849   0.20439   0.09249   0.00000  Uiso   1.00
C30    C     0.15946   0.12541   0.40467   0.00000  Uiso   1.00
C31    C     0.18321   0.20484   0.40736   0.00000  Uiso   1.00
C32    C     0.16396   0.12199   0.09332   0.00000  Uiso   1.00
C33    C     0.16901   0.16455   0.11670   0.00000  Uiso   1.00
C34    C     0.16948   0.16627   0.38267   0.00000  Uiso   1.00
C35    C     0.17872   0.15970   0.02484   0.00000  Uiso   1.00
C36    C     0.17773   0.16159   0.47500   0.00000  Uiso   1.00
C37    C     0.29091   0.16710   0.24924   0.00000  Uiso   1.00
C38    C     0.04295   0.16782   0.24850   0.00000  Uiso   1.00
F39    F     0.11304   0.04696   0.19850   0.00000  Uiso   1.00
F40    F     0.22088   0.28682   0.29987   0.00000  Uiso   1.00
F41    F     0.21114   0.04803   0.31027   0.00000  Uiso   1.00
F42    F     0.10738   0.28524   0.20593   0.00000  Uiso   1.00
O43    O     0.22198   0.22950   0.03847   0.00000  Uiso   1.00
C44    C     0.25961   0.20759   0.03223   0.00000  Uiso   1.00
H45    H     0.25809   0.18663   0.00203   0.00000  Uiso   1.00
H46    H     0.26837   0.18445   0.05936   0.00000  Uiso   1.00
C47    C     0.29188   0.24569   0.02913   0.00000  Uiso   1.00
H48    H     0.27996   0.27352   0.00798   0.00000  Uiso   1.00
H49    H     0.29747   0.26216   0.06109   0.00000  Uiso   1.00
C50    C     0.33185   0.22743   0.01186   0.00000  Uiso   1.00
H51    H     0.32960   0.19056   0.00057   0.00000  Uiso   1.00
H52    H     0.02309   0.23020   0.03683   0.00000  Uiso   1.00
H53    H     0.00731   0.24918   0.48465   0.00000  Uiso   1.00
O54    O     0.17647   0.07583   0.46217   0.00000  Uiso   1.00
C55    C     0.21782   0.06624   0.47122   0.00000  Uiso   1.00
H56    H     0.21862   0.04110   0.49762   0.00000  Uiso   1.00
H57    H     0.23603   0.09732   0.48209   0.00000  Uiso   1.00
C58    C     0.23737   0.04222   0.43310   0.00000  Uiso   1.00
H59    H     0.22018   0.00982   0.42453   0.00000  Uiso   1.00
H60    H     0.23637   0.06560   0.40506   0.00000  Uiso   1.00
C61    C     0.28145   0.02971   0.44425   0.00000  Uiso   1.00
H62    H     0.30046   0.06171   0.44593   0.00000  Uiso   1.00
H63    H     0.29331   0.00554   0.41974   0.00000  Uiso   1.00
H64    H     0.28391   0.01207   0.47550   0.00000  Uiso   1.00
O65    O     0.18544   0.24775   0.47172   0.00000  Uiso   1.00
C66    C     0.14920   0.26185   0.49062   0.00000  Uiso   1.00
H67    H     0.15826   0.28793   0.01549   0.00000  Uiso   1.00
H68    H     0.13297   0.23261   0.00556   0.00000  Uiso   1.00
C69    C     0.12024   0.28463   0.45872   0.00000  Uiso   1.00
H70    H     0.13696   0.31066   0.44002   0.00000  Uiso   1.00
H71    H     0.10707   0.25663   0.43778   0.00000  Uiso   1.00
C72    C     0.08569   0.30861   0.48132   0.00000  Uiso   1.00
H73    H     0.06873   0.28298   0.49987   0.00000  Uiso   1.00
H74    H     0.06459   0.32503   0.45773   0.00000  Uiso   1.00
H75    H     0.09807   0.00218   0.00374   0.00000  Uiso   1.00
O76    O     0.14098   0.08582   0.02828   0.00000  Uiso   1.00
C77    C     0.10063   0.09841   0.01751   0.00000  Uiso   1.00
H78    H     0.09207   0.07843   0.48834   0.00000  Uiso   1.00
H79    H     0.09654   0.13606   0.00976   0.00000  Uiso   1.00
C80    C     0.07252   0.08434   0.05287   0.00000  Uiso   1.00
H81    H     0.08421   0.05248   0.06840   0.00000  Uiso   1.00
H82    H     0.07297   0.11258   0.07729   0.00000  Uiso   1.00
C83    C     0.02926   0.07507   0.03576   0.00000  Uiso   1.00
H84    H     0.01754   0.10540   0.01752   0.00000  Uiso   1.00
H85    H     0.00926   0.06849   0.06291   0.00000  Uiso   1.00
H86    H     0.02841   0.04382   0.01439   0.00000  Uiso   1.00
O87    O     0.17945   0.24956   0.10905   0.00000  Uiso   1.00
C88    C     0.14054   0.26444   0.12221   0.00000  Uiso   1.00
H89    H     0.14649   0.29303   0.14546   0.00000  Uiso   1.00
H90    H     0.12231   0.23678   0.13698   0.00000  Uiso   1.00
C91    C     0.11339   0.28454   0.08695   0.00000  Uiso   1.00
H92    H     0.12867   0.31464   0.07252   0.00000  Uiso   1.00
H93    H     0.10616   0.25663   0.06331   0.00000  Uiso   1.00
C94    C     0.07311   0.30098   0.10467   0.00000  Uiso   1.00
H95    H     0.05786   0.27219   0.12126   0.00000  Uiso   1.00
H96    H     0.05258   0.31239   0.07804   0.00000  Uiso   1.00
H97    H     0.07819   0.33056   0.12755   0.00000  Uiso   1.00
O98    O     0.14083   0.08738   0.38402   0.00000  Uiso   1.00
C99    C     0.10058   0.09897   0.37005   0.00000  Uiso   1.00
H100   H     0.08953   0.07133   0.34732   0.00000  Uiso   1.00
H101   H     0.09893   0.13201   0.35200   0.00000  Uiso   1.00
C102   C     0.07163   0.10175   0.40728   0.00000  Uiso   1.00
H103   H     0.06897   0.06671   0.42151   0.00000  Uiso   1.00
H104   H     0.08363   0.12729   0.43148   0.00000  Uiso   1.00
C105   C     0.02959   0.11827   0.39301   0.00000  Uiso   1.00
H106   H     0.03186   0.15029   0.37376   0.00000  Uiso   1.00
H107   H     0.01140   0.12582   0.42155   0.00000  Uiso   1.00
H108   H     0.01381   0.09090   0.37379   0.00000  Uiso   1.00
O109   O     0.19746   0.24499   0.38891   0.00000  Uiso   1.00
C110   C     0.23819   0.23895   0.37639   0.00000  Uiso   1.00
H111   H     0.24914   0.27371   0.36679   0.00000  Uiso   1.00
H112   H     0.23972   0.21499   0.34823   0.00000  Uiso   1.00
C113   C     0.26799   0.22291   0.41189   0.00000  Uiso   1.00
H114   H     0.26460   0.24553   0.44050   0.00000  Uiso   1.00
H115   H     0.26170   0.18610   0.42024   0.00000  Uiso   1.00
C116   C     0.31148   0.22619   0.39701   0.00000  Uiso   1.00
H117   H     0.31419   0.20816   0.36558   0.00000  Uiso   1.00
H118   H     0.33245   0.20943   0.42040   0.00000  Uiso   1.00
H119   H     0.32057   0.26326   0.39411   0.00000  Uiso   1.00
O120   O     0.15664   0.08020   0.11341   0.00000  Uiso   1.00
C121   C     0.19405   0.05989   0.12711   0.00000  Uiso   1.00
H122   H     0.18725   0.03535   0.15301   0.00000  Uiso   1.00
H123   H     0.21570   0.08573   0.14209   0.00000  Uiso   1.00
C124   C     0.21423   0.03175   0.09142   0.00000  Uiso   1.00
H125   H     0.22312   0.33031   0.10373   0.00000  Uiso   1.00
H126   H     0.19256   0.02557   0.06410   0.00000  Uiso   1.00
C127   C     0.25247   0.05600   0.07637   0.00000  Uiso   1.00
H128   H     0.24477   0.08996   0.06166   0.00000  Uiso   1.00
H129   H     0.26777   0.03343   0.05272   0.00000  Uiso   1.00
H130   H     0.27413   0.06236   0.10362   0.00000  Uiso   1.00
O131   O     0.03696   0.09632   0.20578   0.00000  Uiso   1.00
C132   C     0.04385   0.11782   0.16576   0.00000  Uiso   1.00
H133   H     0.05105   0.08951   0.14275   0.00000  Uiso   1.00
H134   H     0.07121   0.14049   0.16845   0.00000  Uiso   1.00
C135   C     0.00706   0.14551   0.14681   0.00000  Uiso   1.00
H136   H     0.31516   0.12120   0.13799   0.00000  Uiso   1.00
H137   H     0.32890   0.17099   0.17032   0.00000  Uiso   1.00
C138   C     0.01788   0.17466   0.10846   0.00000  Uiso   1.00
H139   H     0.33120   0.20569   0.10698   0.00000  Uiso   1.00
H140   H     0.01258   0.15452   0.07849   0.00000  Uiso   1.00
H141   H     0.04980   0.18712   0.11078   0.00000  Uiso   1.00
O142   O     0.29363   0.25264   0.25461   0.00000  Uiso   1.00
C143   C     0.28347   0.26664   0.21223   0.00000  Uiso   1.00
H144   H     0.25930   0.29338   0.21460   0.00000  Uiso   1.00
H145   H     0.27026   0.23780   0.19188   0.00000  Uiso   1.00
C146   C     0.31984   0.28768   0.18979   0.00000  Uiso   1.00
H147   H     0.00496   0.30954   0.21230   0.00000  Uiso   1.00
H148   H     0.00614   0.25925   0.17779   0.00000  Uiso   1.00
C149   C     0.30575   0.31781   0.15249   0.00000  Uiso   1.00
H150   H     0.28785   0.29649   0.12879   0.00000  Uiso   1.00
H151   H     0.33228   0.33299   0.13674   0.00000  Uiso   1.00
H152   H     0.28671   0.01357   0.16426   0.00000  Uiso   1.00
O153   O     0.29429   0.08342   0.23228   0.00000  Uiso   1.00
C154   C     0.28855   0.06001   0.27105   0.00000  Uiso   1.00
H155   H     0.26890   0.02955   0.26324   0.00000  Uiso   1.00
H156   H     0.27334   0.08282   0.29469   0.00000  Uiso   1.00
C157   C     0.32760   0.04164   0.29235   0.00000  Uiso   1.00
H158   H     0.01079   0.01934   0.26978   0.00000  Uiso   1.00
H159   H     0.01445   0.07105   0.30240   0.00000  Uiso   1.00
C160   C     0.31704   0.01382   0.33170   0.00000  Uiso   1.00
H161   H     0.29598   0.03408   0.35171   0.00000  Uiso   1.00
H162   H     0.01146   0.00660   0.35134   0.00000  Uiso   1.00
H163   H     0.30206   0.31382   0.32194   0.00000  Uiso   1.00
O164   O     0.04160   0.25054   0.26614   0.00000  Uiso   1.00
C165   C     0.05211   0.25439   0.31002   0.00000  Uiso   1.00
H166   H     0.06641   0.22185   0.32259   0.00000  Uiso   1.00
H167   H     0.02476   0.26200   0.32845   0.00000  Uiso   1.00
C168   C     0.08249   0.29418   0.31576   0.00000  Uiso   1.00
H169   H     0.10863   0.28598   0.29642   0.00000  Uiso   1.00
H170   H     0.06932   0.32763   0.30488   0.00000  Uiso   1.00
C171   C     0.09827   0.29902   0.36128   0.00000  Uiso   1.00
H172   H     0.07275   0.30463   0.38302   0.00000  Uiso   1.00
H173   H     0.11962   0.32893   0.36422   0.00000  Uiso   1.00
H174   H     0.11521   0.26684   0.36950   0.00000  Uiso   1.00
O175   O     0.43988   0.20625   0.24999   0.00000  Uiso   1.00
O176   O     0.56012   0.12709   0.25000   0.00000  Uiso   1.00
O177   O     0.56012   0.20625   0.25000   0.00000  Uiso   1.00
O178   O     0.43988   0.12709   0.24999   0.00000  Uiso   1.00
N179   N     0.50000   0.28402   0.25000   0.00000  Uiso   1.00
N180   N     0.50000   0.04931   0.25000   0.00000  Uiso   1.00
C181   C     0.42080   0.16688   0.24953   0.00000  Uiso   1.00
C182   C     0.57939   0.16672   0.24984   0.00000  Uiso   1.00
O183   O     0.50000   0.20626   0.18573   0.00000  Uiso   1.00
O184   O     0.50000   0.12707   0.31427   0.00000  Uiso   1.00
O185   O     0.50000   0.20626   0.31427   0.00000  Uiso   1.00
O186   O     0.50000   0.12707   0.18573   0.00000  Uiso   1.00
C187   C     0.50033   0.16622   0.16491   0.00000  Uiso   1.00
C188   C     0.50104   0.16686   0.33483   0.00000  Uiso   1.00
Cu189  Cu    0.50000   0.21355   0.25000   0.00000  Uiso   1.00
Cu190  Cu    0.50000   0.11978   0.25000   0.00000  Uiso   1.00
C191   C     0.47320   0.02434   0.22441   0.00000  Uiso   1.00
C192   C     0.52618   0.30918   0.27587   0.00000  Uiso   1.00
C193   C     0.52401   0.02510   0.27824   0.00000  Uiso   1.00
C194   C     0.47195   0.30827   0.22597   0.00000  Uiso   1.00
C195   C     0.35435   0.12843   0.23415   0.00000  Uiso   1.00
C196   C     0.64603   0.20968   0.25370   0.00000  Uiso   1.00
C197   C     0.64632   0.12564   0.24127   0.00000  Uiso   1.00
C198   C     0.35489   0.20888   0.25859   0.00000  Uiso   1.00
C199   C     0.52736   0.19723   0.05149   0.00000  Uiso   1.00
C200   C     0.50516   0.12091   0.44796   0.00000  Uiso   1.00
C201   C     0.51395   0.20467   0.45215   0.00000  Uiso   1.00
C202   C     0.49405   0.12279   0.04815   0.00000  Uiso   1.00
C203   C     0.51182   0.20439   0.09249   0.00000  Uiso   1.00
C204   C     0.49280   0.12541   0.40467   0.00000  Uiso   1.00
C205   C     0.51654   0.20484   0.40736   0.00000  Uiso   1.00
C206   C     0.49730   0.12199   0.09332   0.00000  Uiso   1.00
C207   C     0.50234   0.16455   0.11670   0.00000  Uiso   1.00
C208   C     0.50282   0.16627   0.38267   0.00000  Uiso   1.00
C209   C     0.51206   0.15970   0.02484   0.00000  Uiso   1.00
C210   C     0.51107   0.16159   0.47500   0.00000  Uiso   1.00
C211   C     0.62424   0.16710   0.24924   0.00000  Uiso   1.00
C212   C     0.37629   0.16782   0.24850   0.00000  Uiso   1.00
F213   F     0.44638   0.04696   0.19850   0.00000  Uiso   1.00
F214   F     0.55421   0.28682   0.29987   0.00000  Uiso   1.00
F215   F     0.54448   0.04803   0.31027   0.00000  Uiso   1.00
F216   F     0.44071   0.28524   0.20593   0.00000  Uiso   1.00
O217   O     0.55532   0.22950   0.03847   0.00000  Uiso   1.00
C218   C     0.59294   0.20759   0.03223   0.00000  Uiso   1.00
H219   H     0.59142   0.18663   0.00203   0.00000  Uiso   1.00
H220   H     0.60171   0.18445   0.05936   0.00000  Uiso   1.00
C221   C     0.62521   0.24569   0.02913   0.00000  Uiso   1.00
H222   H     0.61329   0.27352   0.00798   0.00000  Uiso   1.00
H223   H     0.63081   0.26216   0.06109   0.00000  Uiso   1.00
C224   C     0.66518   0.22743   0.01186   0.00000  Uiso   1.00
H225   H     0.66293   0.19056   0.00057   0.00000  Uiso   1.00
H226   H     0.35642   0.23020   0.03683   0.00000  Uiso   1.00
H227   H     0.34065   0.24918   0.48465   0.00000  Uiso   1.00
O228   O     0.50980   0.07583   0.46217   0.00000  Uiso   1.00
C229   C     0.55116   0.06624   0.47122   0.00000  Uiso   1.00
H230   H     0.55196   0.04110   0.49762   0.00000  Uiso   1.00
H231   H     0.56937   0.09732   0.48209   0.00000  Uiso   1.00
C232   C     0.57070   0.04222   0.43310   0.00000  Uiso   1.00
H233   H     0.55351   0.00982   0.42453   0.00000  Uiso   1.00
H234   H     0.56971   0.06560   0.40506   0.00000  Uiso   1.00
C235   C     0.61478   0.02971   0.44425   0.00000  Uiso   1.00
H236   H     0.63380   0.06171   0.44593   0.00000  Uiso   1.00
H237   H     0.62664   0.00554   0.41974   0.00000  Uiso   1.00
H238   H     0.61725   0.01207   0.47550   0.00000  Uiso   1.00
O239   O     0.51877   0.24775   0.47172   0.00000  Uiso   1.00
C240   C     0.48254   0.26185   0.49062   0.00000  Uiso   1.00
H241   H     0.49159   0.28793   0.01549   0.00000  Uiso   1.00
H242   H     0.46631   0.23261   0.00556   0.00000  Uiso   1.00
C243   C     0.45357   0.28463   0.45872   0.00000  Uiso   1.00
H244   H     0.47030   0.31066   0.44002   0.00000  Uiso   1.00
H245   H     0.44041   0.25663   0.43778   0.00000  Uiso   1.00
C246   C     0.41902   0.30861   0.48132   0.00000  Uiso   1.00
H247   H     0.40207   0.28298   0.49987   0.00000  Uiso   1.00
H248   H     0.39792   0.32503   0.45773   0.00000  Uiso   1.00
H249   H     0.43140   0.00218   0.00374   0.00000  Uiso   1.00
O250   O     0.47431   0.08582   0.02828   0.00000  Uiso   1.00
C251   C     0.43396   0.09841   0.01751   0.00000  Uiso   1.00
H252   H     0.42540   0.07843   0.48834   0.00000  Uiso   1.00
H253   H     0.42987   0.13606   0.00976   0.00000  Uiso   1.00
C254   C     0.40585   0.08434   0.05287   0.00000  Uiso   1.00
H255   H     0.41755   0.05248   0.06840   0.00000  Uiso   1.00
H256   H     0.40630   0.11258   0.07729   0.00000  Uiso   1.00
C257   C     0.36259   0.07507   0.03576   0.00000  Uiso   1.00
H258   H     0.35087   0.10540   0.01752   0.00000  Uiso   1.00
H259   H     0.34259   0.06849   0.06291   0.00000  Uiso   1.00
H260   H     0.36175   0.04382   0.01439   0.00000  Uiso   1.00
O261   O     0.51278   0.24956   0.10905   0.00000  Uiso   1.00
C262   C     0.47388   0.26444   0.12221   0.00000  Uiso   1.00
H263   H     0.47983   0.29303   0.14546   0.00000  Uiso   1.00
H264   H     0.45565   0.23678   0.13698   0.00000  Uiso   1.00
C265   C     0.44672   0.28454   0.08695   0.00000  Uiso   1.00
H266   H     0.46201   0.31464   0.07252   0.00000  Uiso   1.00
H267   H     0.43950   0.25663   0.06331   0.00000  Uiso   1.00
C268   C     0.40645   0.30098   0.10467   0.00000  Uiso   1.00
H269   H     0.39120   0.27219   0.12126   0.00000  Uiso   1.00
H270   H     0.38591   0.31239   0.07804   0.00000  Uiso   1.00
H271   H     0.41153   0.33056   0.12755   0.00000  Uiso   1.00
O272   O     0.47416   0.08738   0.38402   0.00000  Uiso   1.00
C273   C     0.43391   0.09897   0.37005   0.00000  Uiso   1.00
H274   H     0.42286   0.07133   0.34732   0.00000  Uiso   1.00
H275   H     0.43226   0.13201   0.35200   0.00000  Uiso   1.00
C276   C     0.40496   0.10175   0.40728   0.00000  Uiso   1.00
H277   H     0.40231   0.06671   0.42151   0.00000  Uiso   1.00
H278   H     0.41697   0.12729   0.43148   0.00000  Uiso   1.00
C279   C     0.36293   0.11827   0.39301   0.00000  Uiso   1.00
H280   H     0.36520   0.15029   0.37376   0.00000  Uiso   1.00
H281   H     0.34473   0.12582   0.42155   0.00000  Uiso   1.00
H282   H     0.34714   0.09090   0.37379   0.00000  Uiso   1.00
O283   O     0.53079   0.24499   0.38891   0.00000  Uiso   1.00
C284   C     0.57152   0.23895   0.37639   0.00000  Uiso   1.00
H285   H     0.58247   0.27371   0.36679   0.00000  Uiso   1.00
H286   H     0.57306   0.21499   0.34823   0.00000  Uiso   1.00
C287   C     0.60132   0.22291   0.41189   0.00000  Uiso   1.00
H288   H     0.59793   0.24553   0.44050   0.00000  Uiso   1.00
H289   H     0.59503   0.18610   0.42024   0.00000  Uiso   1.00
C290   C     0.64481   0.22619   0.39701   0.00000  Uiso   1.00
H291   H     0.64752   0.20816   0.36558   0.00000  Uiso   1.00
H292   H     0.66579   0.20943   0.42040   0.00000  Uiso   1.00
H293   H     0.65391   0.26326   0.39411   0.00000  Uiso   1.00
O294   O     0.48997   0.08020   0.11341   0.00000  Uiso   1.00
C295   C     0.52738   0.05989   0.12711   0.00000  Uiso   1.00
H296   H     0.52058   0.03535   0.15301   0.00000  Uiso   1.00
H297   H     0.54903   0.08573   0.14209   0.00000  Uiso   1.00
C298   C     0.54756   0.03175   0.09142   0.00000  Uiso   1.00
H299   H     0.55645   0.33031   0.10373   0.00000  Uiso   1.00
H300   H     0.52589   0.02557   0.06410   0.00000  Uiso   1.00
C301   C     0.58581   0.05600   0.07637   0.00000  Uiso   1.00
H302   H     0.57810   0.08996   0.06166   0.00000  Uiso   1.00
H303   H     0.60110   0.03343   0.05272   0.00000  Uiso   1.00
H304   H     0.60747   0.06236   0.10362   0.00000  Uiso   1.00
O305   O     0.37029   0.09632   0.20578   0.00000  Uiso   1.00
C306   C     0.37718   0.11782   0.16576   0.00000  Uiso   1.00
H307   H     0.38439   0.08951   0.14275   0.00000  Uiso   1.00
H308   H     0.40455   0.14049   0.16845   0.00000  Uiso   1.00
C309   C     0.34040   0.14551   0.14681   0.00000  Uiso   1.00
H310   H     0.64850   0.12120   0.13799   0.00000  Uiso   1.00
H311   H     0.66224   0.17099   0.17032   0.00000  Uiso   1.00
C312   C     0.35121   0.17466   0.10846   0.00000  Uiso   1.00
H313   H     0.66453   0.20569   0.10698   0.00000  Uiso   1.00
H314   H     0.34592   0.15452   0.07849   0.00000  Uiso   1.00
H315   H     0.38313   0.18712   0.11078   0.00000  Uiso   1.00
O316   O     0.62696   0.25264   0.25461   0.00000  Uiso   1.00
C317   C     0.61680   0.26664   0.21223   0.00000  Uiso   1.00
H318   H     0.59263   0.29338   0.21460   0.00000  Uiso   1.00
H319   H     0.60360   0.23780   0.19188   0.00000  Uiso   1.00
C320   C     0.65317   0.28768   0.18979   0.00000  Uiso   1.00
H321   H     0.33829   0.30954   0.21230   0.00000  Uiso   1.00
H322   H     0.33947   0.25925   0.17779   0.00000  Uiso   1.00
C323   C     0.63908   0.31781   0.15249   0.00000  Uiso   1.00
H324   H     0.62118   0.29649   0.12879   0.00000  Uiso   1.00
H325   H     0.66561   0.33299   0.13674   0.00000  Uiso   1.00
H326   H     0.62004   0.01357   0.16426   0.00000  Uiso   1.00
O327   O     0.62763   0.08342   0.23228   0.00000  Uiso   1.00
C328   C     0.62189   0.06001   0.27105   0.00000  Uiso   1.00
H329   H     0.60223   0.02955   0.26324   0.00000  Uiso   1.00
H330   H     0.60668   0.08282   0.29469   0.00000  Uiso   1.00
C331   C     0.66094   0.04164   0.29235   0.00000  Uiso   1.00
H332   H     0.34412   0.01934   0.26978   0.00000  Uiso   1.00
H333   H     0.34778   0.07105   0.30240   0.00000  Uiso   1.00
C334   C     0.65037   0.01382   0.33170   0.00000  Uiso   1.00
H335   H     0.62931   0.03408   0.35171   0.00000  Uiso   1.00
H336   H     0.34479   0.00660   0.35134   0.00000  Uiso   1.00
H337   H     0.63539   0.31382   0.32194   0.00000  Uiso   1.00
O338   O     0.37493   0.25054   0.26614   0.00000  Uiso   1.00
C339   C     0.38544   0.25439   0.31002   0.00000  Uiso   1.00
H340   H     0.39974   0.22185   0.32259   0.00000  Uiso   1.00
H341   H     0.35809   0.26200   0.32845   0.00000  Uiso   1.00
C342   C     0.41582   0.29418   0.31576   0.00000  Uiso   1.00
H343   H     0.44197   0.28598   0.29642   0.00000  Uiso   1.00
H344   H     0.40266   0.32763   0.30488   0.00000  Uiso   1.00
C345   C     0.43160   0.29902   0.36128   0.00000  Uiso   1.00
H346   H     0.40608   0.30463   0.38302   0.00000  Uiso   1.00
H347   H     0.45295   0.32893   0.36422   0.00000  Uiso   1.00
H348   H     0.44854   0.26684   0.36950   0.00000  Uiso   1.00
O349   O     0.77321   0.20625   0.24999   0.00000  Uiso   1.00
O350   O     0.89345   0.12709   0.25000   0.00000  Uiso   1.00
O351   O     0.89345   0.20625   0.25000   0.00000  Uiso   1.00
O352   O     0.77321   0.12709   0.24999   0.00000  Uiso   1.00
N353   N     0.83333   0.28402   0.25000   0.00000  Uiso   1.00
N354   N     0.83333   0.04931   0.25000   0.00000  Uiso   1.00
C355   C     0.75414   0.16688   0.24953   0.00000  Uiso   1.00
C356   C     0.91273   0.16672   0.24984   0.00000  Uiso   1.00
O357   O     0.83333   0.20626   0.18573   0.00000  Uiso   1.00
O358   O     0.83334   0.12707   0.31427   0.00000  Uiso   1.00
O359   O     0.83334   0.20626   0.31427   0.00000  Uiso   1.00
O360   O     0.83333   0.12707   0.18573   0.00000  Uiso   1.00
C361   C     0.83367   0.16622   0.16491   0.00000  Uiso   1.00
C362   C     0.83438   0.16686   0.33483   0.00000  Uiso   1.00
Cu363  Cu    0.83333   0.21355   0.25000   0.00000  Uiso   1.00
Cu364  Cu    0.83333   0.11978   0.25000   0.00000  Uiso   1.00
C365   C     0.80653   0.02434   0.22441   0.00000  Uiso   1.00
C366   C     0.85952   0.30918   0.27587   0.00000  Uiso   1.00
C367   C     0.85734   0.02510   0.27824   0.00000  Uiso   1.00
C368   C     0.80528   0.30827   0.22597   0.00000  Uiso   1.00
C369   C     0.68768   0.12843   0.23415   0.00000  Uiso   1.00
C370   C     0.97936   0.20968   0.25370   0.00000  Uiso   1.00
C371   C     0.97966   0.12564   0.24127   0.00000  Uiso   1.00
C372   C     0.68823   0.20888   0.25859   0.00000  Uiso   1.00
C373   C     0.86069   0.19723   0.05149   0.00000  Uiso   1.00
C374   C     0.83849   0.12091   0.44796   0.00000  Uiso   1.00
C375   C     0.84728   0.20467   0.45215   0.00000  Uiso   1.00
C376   C     0.82739   0.12279   0.04815   0.00000  Uiso   1.00
C377   C     0.84515   0.20439   0.09249   0.00000  Uiso   1.00
C378   C     0.82613   0.12541   0.40467   0.00000  Uiso   1.00
C379   C     0.84988   0.20484   0.40736   0.00000  Uiso   1.00
C380   C     0.83063   0.12199   0.09332   0.00000  Uiso   1.00
C381   C     0.83567   0.16455   0.11670   0.00000  Uiso   1.00
C382   C     0.83615   0.16627   0.38267   0.00000  Uiso   1.00
C383   C     0.84539   0.15970   0.02484   0.00000  Uiso   1.00
C384   C     0.84440   0.16159   0.47500   0.00000  Uiso   1.00
C385   C     0.95758   0.16710   0.24924   0.00000  Uiso   1.00
C386   C     0.70962   0.16782   0.24850   0.00000  Uiso   1.00
F387   F     0.77971   0.04696   0.19850   0.00000  Uiso   1.00
F388   F     0.88755   0.28682   0.29987   0.00000  Uiso   1.00
F389   F     0.87781   0.04803   0.31027   0.00000  Uiso   1.00
F390   F     0.77404   0.28524   0.20593   0.00000  Uiso   1.00
O391   O     0.88865   0.22950   0.03847   0.00000  Uiso   1.00
C392   C     0.92628   0.20759   0.03223   0.00000  Uiso   1.00
H393   H     0.92476   0.18663   0.00203   0.00000  Uiso   1.00
H394   H     0.93504   0.18445   0.05936   0.00000  Uiso   1.00
C395   C     0.95854   0.24569   0.02913   0.00000  Uiso   1.00
H396   H     0.94662   0.27352   0.00798   0.00000  Uiso   1.00
H397   H     0.96414   0.26216   0.06109   0.00000  Uiso   1.00
C398   C     0.99852   0.22743   0.01186   0.00000  Uiso   1.00
H399   H     0.99627   0.19056   0.00057   0.00000  Uiso   1.00
H400   H     0.68975   0.23020   0.03683   0.00000  Uiso   1.00
H401   H     0.67398   0.24918   0.48465   0.00000  Uiso   1.00
O402   O     0.84314   0.07583   0.46217   0.00000  Uiso   1.00
C403   C     0.88449   0.06624   0.47122   0.00000  Uiso   1.00
H404   H     0.88529   0.04110   0.49762   0.00000  Uiso   1.00
H405   H     0.90270   0.09732   0.48209   0.00000  Uiso   1.00
C406   C     0.90403   0.04222   0.43310   0.00000  Uiso   1.00
H407   H     0.88685   0.00982   0.42453   0.00000  Uiso   1.00
H408   H     0.90304   0.06560   0.40506   0.00000  Uiso   1.00
C409   C     0.94812   0.02971   0.44425   0.00000  Uiso   1.00
H410   H     0.96713   0.06171   0.44593   0.00000  Uiso   1.00
H411   H     0.95997   0.00554   0.41974   0.00000  Uiso   1.00
H412   H     0.95058   0.01207   0.47550   0.00000  Uiso   1.00
O413   O     0.85210   0.24775   0.47172   0.00000  Uiso   1.00
C414   C     0.81587   0.26185   0.49062   0.00000  Uiso   1.00
H415   H     0.82492   0.28793   0.01549   0.00000  Uiso   1.00
H416   H     0.79964   0.23261   0.00556   0.00000  Uiso   1.00
C417   C     0.78690   0.28463   0.45872   0.00000  Uiso   1.00
H418   H     0.80363   0.31066   0.44002   0.00000  Uiso   1.00
H419   H     0.77374   0.25663   0.43778   0.00000  Uiso   1.00
C420   C     0.75235   0.30861   0.48132   0.00000  Uiso   1.00
H421   H     0.73540   0.28298   0.49987   0.00000  Uiso   1.00
H422   H     0.73125   0.32503   0.45773   0.00000  Uiso   1.00
H423   H     0.76473   0.00218   0.00374   0.00000  Uiso   1.00
O424   O     0.80764   0.08582   0.02828   0.00000  Uiso   1.00
C425   C     0.76730   0.09841   0.01751   0.00000  Uiso   1.00
H426   H     0.75873   0.07843   0.48834   0.00000  Uiso   1.00
H427   H     0.76321   0.13606   0.00976   0.00000  Uiso   1.00
C428   C     0.73919   0.08434   0.05287   0.00000  Uiso   1.00
H429   H     0.75088   0.05248   0.06840   0.00000  Uiso   1.00
H430   H     0.73963   0.11258   0.07729   0.00000  Uiso   1.00
C431   C     0.69593   0.07507   0.03576   0.00000  Uiso   1.00
H432   H     0.68421   0.10540   0.01752   0.00000  Uiso   1.00
H433   H     0.67593   0.06849   0.06291   0.00000  Uiso   1.00
H434   H     0.69508   0.04382   0.01439   0.00000  Uiso   1.00
O435   O     0.84611   0.24956   0.10905   0.00000  Uiso   1.00
C436   C     0.80721   0.26444   0.12221   0.00000  Uiso   1.00
H437   H     0.81316   0.29303   0.14546   0.00000  Uiso   1.00
H438   H     0.78898   0.23678   0.13698   0.00000  Uiso   1.00
C439   C     0.78006   0.28454   0.08695   0.00000  Uiso   1.00
H440   H     0.79534   0.31464   0.07252   0.00000  Uiso   1.00
H441   H     0.77283   0.25663   0.06331   0.00000  Uiso   1.00
C442   C     0.73978   0.30098   0.10467   0.00000  Uiso   1.00
H443   H     0.72453   0.27219   0.12126   0.00000  Uiso   1.00
H444   H     0.71925   0.31239   0.07804   0.00000  Uiso   1.00
H445   H     0.74486   0.33056   0.12755   0.00000  Uiso   1.00
O446   O     0.80749   0.08738   0.38402   0.00000  Uiso   1.00
C447   C     0.76725   0.09897   0.37005   0.00000  Uiso   1.00
H448   H     0.75620   0.07133   0.34732   0.00000  Uiso   1.00
H449   H     0.76560   0.13201   0.35200   0.00000  Uiso   1.00
C450   C     0.73830   0.10175   0.40728   0.00000  Uiso   1.00
H451   H     0.73564   0.06671   0.42151   0.00000  Uiso   1.00
H452   H     0.75030   0.12729   0.43148   0.00000  Uiso   1.00
C453   C     0.69626   0.11827   0.39301   0.00000  Uiso   1.00
H454   H     0.69853   0.15029   0.37376   0.00000  Uiso   1.00
H455   H     0.67807   0.12582   0.42155   0.00000  Uiso   1.00
H456   H     0.68047   0.09090   0.37379   0.00000  Uiso   1.00
O457   O     0.86413   0.24499   0.38891   0.00000  Uiso   1.00
C458   C     0.90486   0.23895   0.37639   0.00000  Uiso   1.00
H459   H     0.91581   0.27371   0.36679   0.00000  Uiso   1.00
H460   H     0.90639   0.21499   0.34823   0.00000  Uiso   1.00
C461   C     0.93466   0.22291   0.41189   0.00000  Uiso   1.00
H462   H     0.93127   0.24553   0.44050   0.00000  Uiso   1.00
H463   H     0.92837   0.18610   0.42024   0.00000  Uiso   1.00
C464   C     0.97815   0.22619   0.39701   0.00000  Uiso   1.00
H465   H     0.98085   0.20816   0.36558   0.00000  Uiso   1.00
H466   H     0.99912   0.20943   0.42040   0.00000  Uiso   1.00
H467   H     0.98724   0.26326   0.39411   0.00000  Uiso   1.00
O468   O     0.82330   0.08020   0.11341   0.00000  Uiso   1.00
C469   C     0.86072   0.05989   0.12711   0.00000  Uiso   1.00
H470   H     0.85392   0.03535   0.15301   0.00000  Uiso   1.00
H471   H     0.88236   0.08573   0.14209   0.00000  Uiso   1.00
C472   C     0.88090   0.03175   0.09142   0.00000  Uiso   1.00
H473   H     0.88979   0.33031   0.10373   0.00000  Uiso   1.00
H474   H     0.85923   0.02557   0.06410   0.00000  Uiso   1.00
C475   C     0.91914   0.05600   0.07637   0.00000  Uiso   1.00
H476   H     0.91144   0.08996   0.06166   0.00000  Uiso   1.00
H477   H     0.93444   0.03343   0.05272   0.00000  Uiso   1.00
H478   H     0.94080   0.06236   0.10362   0.00000  Uiso   1.00
O479   O     0.70362   0.09632   0.20578   0.00000  Uiso   1.00
C480   C     0.71052   0.11782   0.16576   0.00000  Uiso   1.00
H481   H     0.71772   0.08951   0.14275   0.00000  Uiso   1.00
H482   H     0.73788   0.14049   0.16845   0.00000  Uiso   1.00
C483   C     0.67373   0.14551   0.14681   0.00000  Uiso   1.00
H484   H     0.98183   0.12120   0.13799   0.00000  Uiso   1.00
H485   H     0.99557   0.17099   0.17032   0.00000  Uiso   1.00
C486   C     0.68455   0.17466   0.10846   0.00000  Uiso   1.00
H487   H     0.99786   0.20569   0.10698   0.00000  Uiso   1.00
H488   H     0.67925   0.15452   0.07849   0.00000  Uiso   1.00
H489   H     0.71647   0.18712   0.11078   0.00000  Uiso   1.00
O490   O     0.96029   0.25264   0.25461   0.00000  Uiso   1.00
C491   C     0.95014   0.26664   0.21223   0.00000  Uiso   1.00
H492   H     0.92596   0.29338   0.21460   0.00000  Uiso   1.00
H493   H     0.93693   0.23780   0.19188   0.00000  Uiso   1.00
C494   C     0.98651   0.28768   0.18979   0.00000  Uiso   1.00
H495   H     0.67163   0.30954   0.21230   0.00000  Uiso   1.00
H496   H     0.67281   0.25925   0.17779   0.00000  Uiso   1.00
C497   C     0.97241   0.31781   0.15249   0.00000  Uiso   1.00
H498   H     0.95452   0.29649   0.12879   0.00000  Uiso   1.00
H499   H     0.99894   0.33299   0.13674   0.00000  Uiso   1.00
H500   H     0.95338   0.01357   0.16426   0.00000  Uiso   1.00
O501   O     0.96096   0.08342   0.23228   0.00000  Uiso   1.00
C502   C     0.95522   0.06001   0.27105   0.00000  Uiso   1.00
H503   H     0.93556   0.02955   0.26324   0.00000  Uiso   1.00
H504   H     0.94001   0.08282   0.29469   0.00000  Uiso   1.00
C505   C     0.99427   0.04164   0.29235   0.00000  Uiso   1.00
H506   H     0.67746   0.01934   0.26978   0.00000  Uiso   1.00
H507   H     0.68111   0.07105   0.30240   0.00000  Uiso   1.00
C508   C     0.98370   0.01382   0.33170   0.00000  Uiso   1.00
H509   H     0.96265   0.03408   0.35171   0.00000  Uiso   1.00
H510   H     0.67812   0.00660   0.35134   0.00000  Uiso   1.00
H511   H     0.96872   0.31382   0.32194   0.00000  Uiso   1.00
O512   O     0.70827   0.25054   0.26614   0.00000  Uiso   1.00
C513   C     0.71878   0.25439   0.31002   0.00000  Uiso   1.00
H514   H     0.73307   0.22185   0.32259   0.00000  Uiso   1.00
H515   H     0.69143   0.26200   0.32845   0.00000  Uiso   1.00
C516   C     0.74915   0.29418   0.31576   0.00000  Uiso   1.00
H517   H     0.77530   0.28598   0.29642   0.00000  Uiso   1.00
H518   H     0.73599   0.32763   0.30488   0.00000  Uiso   1.00
C519   C     0.76494   0.29902   0.36128   0.00000  Uiso   1.00
H520   H     0.73942   0.30463   0.38302   0.00000  Uiso   1.00
H521   H     0.78628   0.32893   0.36422   0.00000  Uiso   1.00
H522   H     0.78188   0.26684   0.36950   0.00000  Uiso   1.00
O523   O     0.10655   0.53958   0.24999   0.00000  Uiso   1.00
O524   O     0.22679   0.46042   0.25000   0.00000  Uiso   1.00
O525   O     0.22679   0.53958   0.25000   0.00000  Uiso   1.00
O526   O     0.10655   0.46042   0.24999   0.00000  Uiso   1.00
N527   N     0.16667   0.61736   0.25000   0.00000  Uiso   1.00
N528   N     0.16667   0.38264   0.25000   0.00000  Uiso   1.00
C529   C     0.08747   0.50021   0.24953   0.00000  Uiso   1.00
C530   C     0.24606   0.50005   0.24984   0.00000  Uiso   1.00
O531   O     0.16666   0.53959   0.18573   0.00000  Uiso   1.00
O532   O     0.16667   0.46041   0.31427   0.00000  Uiso   1.00
O533   O     0.16667   0.53959   0.31427   0.00000  Uiso   1.00
O534   O     0.16666   0.46041   0.18573   0.00000  Uiso   1.00
C535   C     0.16700   0.49955   0.16491   0.00000  Uiso   1.00
C536   C     0.16771   0.50020   0.33483   0.00000  Uiso   1.00
Cu537  Cu    0.16667   0.54689   0.25000   0.00000  Uiso   1.00
Cu538  Cu    0.16667   0.45311   0.25000   0.00000  Uiso   1.00
C539   C     0.13987   0.35767   0.22441   0.00000  Uiso   1.00
C540   C     0.19285   0.64251   0.27587   0.00000  Uiso   1.00
C541   C     0.19068   0.35843   0.27824   0.00000  Uiso   1.00
C542   C     0.13861   0.64161   0.22597   0.00000  Uiso   1.00
C543   C     0.02102   0.46176   0.23415   0.00000  Uiso   1.00
C544   C     0.31270   0.54301   0.25370   0.00000  Uiso   1.00
C545   C     0.31299   0.45897   0.24127   0.00000  Uiso   1.00
C546   C     0.02156   0.54221   0.25859   0.00000  Uiso   1.00
C547   C     0.19402   0.53057   0.05149   0.00000  Uiso   1.00
C548   C     0.17183   0.45424   0.44796   0.00000  Uiso   1.00
C549   C     0.18062   0.53800   0.45215   0.00000  Uiso   1.00
C550   C     0.16072   0.45613   0.04815   0.00000  Uiso   1.00
C551   C     0.17849   0.53772   0.09249   0.00000  Uiso   1.00
C552   C     0.15946   0.45874   0.40467   0.00000  Uiso   1.00
C553   C     0.18321   0.53817   0.40736   0.00000  Uiso   1.00
C554   C     0.16396   0.45532   0.09332   0.00000  Uiso   1.00
C555   C     0.16901   0.49788   0.11670   0.00000  Uiso   1.00
C556   C     0.16948   0.49961   0.38267   0.00000  Uiso   1.00
C557   C     0.17872   0.49303   0.02484   0.00000  Uiso   1.00
C558   C     0.17773   0.49492   0.47500   0.00000  Uiso   1.00
C559   C     0.29091   0.50043   0.24924   0.00000  Uiso   1.00
C560   C     0.04295   0.50115   0.24850   0.00000  Uiso   1.00
F561   F     0.11304   0.38030   0.19850   0.00000  Uiso   1.00
F562   F     0.22088   0.62015   0.29987   0.00000  Uiso   1.00
F563   F     0.21114   0.38136   0.31027   0.00000  Uiso   1.00
F564   F     0.10738   0.61857   0.20593   0.00000  Uiso   1.00
O565   O     0.22198   0.56284   0.03847   0.00000  Uiso   1.00
C566   C     0.25961   0.54093   0.03223   0.00000  Uiso   1.00
H567   H     0.25809   0.51997   0.00203   0.00000  Uiso   1.00
H568   H     0.26837   0.51779   0.05936   0.00000  Uiso   1.00
C569   C     0.29188   0.57903   0.02913   0.00000  Uiso   1.00
H570   H     0.27996   0.60685   0.00798   0.00000  Uiso   1.00
H571   H     0.29747   0.59549   0.06109   0.00000  Uiso   1.00
C572   C     0.33185   0.56076   0.01186   0.00000  Uiso   1.00
H573   H     0.32960   0.52389   0.00057   0.00000  Uiso   1.00
H574   H     0.02309   0.56353   0.03683   0.00000  Uiso   1.00
H575   H     0.00731   0.58251   0.48465   0.00000  Uiso   1.00
O576   O     0.17647   0.40916   0.46217   0.00000  Uiso   1.00
C577   C     0.21782   0.39957   0.47122   0.00000  Uiso   1.00
H578   H     0.21862   0.37443   0.49762   0.00000  Uiso   1.00
H579   H     0.23603   0.43065   0.48209   0.00000  Uiso   1.00
C580   C     0.23737   0.37555   0.43310   0.00000  Uiso   1.00
H581   H     0.22018   0.34315   0.42453   0.00000  Uiso   1.00
H582   H     0.23637   0.39893   0.40506   0.00000  Uiso   1.00
C583   C     0.28145   0.36304   0.44425   0.00000  Uiso   1.00
H584   H     0.30046   0.39504   0.44593   0.00000  Uiso   1.00
H585   H     0.29331   0.33888   0.41974   0.00000  Uiso   1.00
H586   H     0.28391   0.34540   0.47550   0.00000  Uiso   1.00
O587   O     0.18544   0.58109   0.47172   0.00000  Uiso   1.00
C588   C     0.14920   0.59518   0.49062   0.00000  Uiso   1.00
H589   H     0.15826   0.62126   0.01549   0.00000  Uiso   1.00
H590   H     0.13297   0.56595   0.00556   0.00000  Uiso   1.00
C591   C     0.12024   0.61796   0.45872   0.00000  Uiso   1.00
H592   H     0.13696   0.64399   0.44002   0.00000  Uiso   1.00
H593   H     0.10707   0.58997   0.43778   0.00000  Uiso   1.00
C594   C     0.08569   0.64195   0.48132   0.00000  Uiso   1.00
H595   H     0.06873   0.61632   0.49987   0.00000  Uiso   1.00
H596   H     0.06459   0.65836   0.45773   0.00000  Uiso   1.00
H597   H     0.09807   0.33552   0.00374   0.00000  Uiso   1.00
O598   O     0.14098   0.41915   0.02828   0.00000  Uiso   1.00
C599   C     0.10063   0.43174   0.01751   0.00000  Uiso   1.00
H600   H     0.09207   0.41177   0.48834   0.00000  Uiso   1.00
H601   H     0.09654   0.46940   0.00976   0.00000  Uiso   1.00
C602   C     0.07252   0.41767   0.05287   0.00000  Uiso   1.00
H603   H     0.08421   0.38582   0.06840   0.00000  Uiso   1.00
H604   H     0.07297   0.44591   0.07729   0.00000  Uiso   1.00
C605   C     0.02926   0.40840   0.03576   0.00000  Uiso   1.00
H606   H     0.01754   0.43873   0.01752   0.00000  Uiso   1.00
H607   H     0.00926   0.40182   0.06291   0.00000  Uiso   1.00
H608   H     0.02841   0.37716   0.01439   0.00000  Uiso   1.00
O609   O     0.17945   0.58289   0.10905   0.00000  Uiso   1.00
C610   C     0.14054   0.59777   0.12221   0.00000  Uiso   1.00
H611   H     0.14649   0.62637   0.14546   0.00000  Uiso   1.00
H612   H     0.12231   0.57012   0.13698   0.00000  Uiso   1.00
C613   C     0.11339   0.61787   0.08695   0.00000  Uiso   1.00
H614   H     0.12867   0.64798   0.07252   0.00000  Uiso   1.00
H615   H     0.10616   0.58996   0.06331   0.00000  Uiso   1.00
C616   C     0.07311   0.63431   0.10467   0.00000  Uiso   1.00
H617   H     0.05786   0.60553   0.12126   0.00000  Uiso   1.00
H618   H     0.05258   0.64572   0.07804   0.00000  Uiso   1.00
H619   H     0.07819   0.66389   0.12755   0.00000  Uiso   1.00
O620   O     0.14083   0.42072   0.38402   0.00000  Uiso   1.00
C621   C     0.10058   0.43231   0.37005   0.00000  Uiso   1.00
H622   H     0.08953   0.40466   0.34732   0.00000  Uiso   1.00
H623   H     0.09893   0.46534   0.35200   0.00000  Uiso   1.00
C624   C     0.07163   0.43508   0.40728   0.00000  Uiso   1.00
H625   H     0.06897   0.40004   0.42151   0.00000  Uiso   1.00
H626   H     0.08363   0.46062   0.43148   0.00000  Uiso   1.00
C627   C     0.02959   0.45160   0.39301   0.00000  Uiso   1.00
H628   H     0.03186   0.48363   0.37376   0.00000  Uiso   1.00
H629   H     0.01140   0.45915   0.42155   0.00000  Uiso   1.00
H630   H     0.01381   0.42423   0.37379   0.00000  Uiso   1.00
O631   O     0.19746   0.57832   0.38891   0.00000  Uiso   1.00
C632   C     0.23819   0.57228   0.37639   0.00000  Uiso   1.00
H633   H     0.24914   0.60704   0.36679   0.00000  Uiso   1.00
H634   H     0.23972   0.54832   0.34823   0.00000  Uiso   1.00
C635   C     0.26799   0.55624   0.41189   0.00000  Uiso   1.00
H636   H     0.26460   0.57887   0.44050   0.00000  Uiso   1.00
H637   H     0.26170   0.51943   0.42024   0.00000  Uiso   1.00
C638   C     0.31148   0.55953   0.39701   0.00000  Uiso   1.00
H639   H     0.31419   0.54149   0.36558   0.00000  Uiso   1.00
H640   H     0.33245   0.54276   0.42040   0.00000  Uiso   1.00
H641   H     0.32057   0.59660   0.39411   0.00000  Uiso   1.00
O642   O     0.15664   0.41353   0.11341   0.00000  Uiso   1.00
C643   C     0.19405   0.39322   0.12711   0.00000  Uiso   1.00
H644   H     0.18725   0.36868   0.15301   0.00000  Uiso   1.00
H645   H     0.21570   0.41906   0.14209   0.00000  Uiso   1.00
C646   C     0.21423   0.36508   0.09142   0.00000  Uiso   1.00
H647   H     0.22312   0.66364   0.10373   0.00000  Uiso   1.00
H648   H     0.19256   0.35890   0.06410   0.00000  Uiso   1.00
C649   C     0.25247   0.38933   0.07637   0.00000  Uiso   1.00
H650   H     0.24477   0.42329   0.06166   0.00000  Uiso   1.00
H651   H     0.26777   0.36677   0.05272   0.00000  Uiso   1.00
H652   H     0.27413   0.39569   0.10362   0.00000  Uiso   1.00
O653   O     0.03696   0.42965   0.20578   0.00000  Uiso   1.00
C654   C     0.04385   0.45115   0.16576   0.00000  Uiso   1.00
H655   H     0.05105   0.42284   0.14275   0.00000  Uiso   1.00
H656   H     0.07121   0.47382   0.16845   0.00000  Uiso   1.00
C657   C     0.00706   0.47884   0.14681   0.00000  Uiso   1.00
H658   H     0.31516   0.45453   0.13799   0.00000  Uiso   1.00
H659   H     0.32890   0.50432   0.17032   0.00000  Uiso   1.00
C660   C     0.01788   0.50800   0.10846   0.00000  Uiso   1.00
H661   H     0.33120   0.53903   0.10698   0.00000  Uiso   1.00
H662   H     0.01258   0.48785   0.07849   0.00000  Uiso   1.00
H663   H     0.04980   0.52046   0.11078   0.00000  Uiso   1.00
O664   O     0.29363   0.58597   0.25461   0.00000  Uiso   1.00
C665   C     0.28347   0.59997   0.21223   0.00000  Uiso   1.00
H666   H     0.25930   0.62672   0.21460   0.00000  Uiso   1.00
H667   H     0.27026   0.57114   0.19188   0.00000  Uiso   1.00
C668   C     0.31984   0.62102   0.18979   0.00000  Uiso   1.00
H669   H     0.00496   0.64287   0.21230   0.00000  Uiso   1.00
H670   H     0.00614   0.59258   0.17779   0.00000  Uiso   1.00
C671   C     0.30575   0.65115   0.15249   0.00000  Uiso   1.00
H672   H     0.28785   0.62983   0.12879   0.00000  Uiso   1.00
H673   H     0.33228   0.66632   0.13674   0.00000  Uiso   1.00
H674   H     0.28671   0.34691   0.16426   0.00000  Uiso   1.00
O675   O     0.29429   0.41676   0.23228   0.00000  Uiso   1.00
C676   C     0.28855   0.39334   0.27105   0.00000  Uiso   1.00
H677   H     0.26890   0.36288   0.26324   0.00000  Uiso   1.00
H678   H     0.27334   0.41615   0.29469   0.00000  Uiso   1.00
C679   C     0.32760   0.37497   0.29235   0.00000  Uiso   1.00
H680   H     0.01079   0.35267   0.26978   0.00000  Uiso   1.00
H681   H     0.01445   0.40438   0.30240   0.00000  Uiso   1.00
C682   C     0.31704   0.34715   0.33170   0.00000  Uiso   1.00
H683   H     0.29598   0.36741   0.35171   0.00000  Uiso   1.00
H684   H     0.01146   0.33993   0.35134   0.00000  Uiso   1.00
H685   H     0.30206   0.64715   0.32194   0.00000  Uiso   1.00
O686   O     0.04160   0.58388   0.26614   0.00000  Uiso   1.00
C687   C     0.05211   0.58772   0.31002   0.00000  Uiso   1.00
H688   H     0.06641   0.55518   0.32259   0.00000  Uiso   1.00
H689   H     0.02476   0.59533   0.32845   0.00000  Uiso   1.00
C690   C     0.08249   0.62752   0.31576   0.00000  Uiso   1.00
H691   H     0.10863   0.61932   0.29642   0.00000  Uiso   1.00
H692   H     0.06932   0.66096   0.30488   0.00000  Uiso   1.00
C693   C     0.09827   0.63235   0.36128   0.00000  Uiso   1.00
H694   H     0.07275   0.63796   0.38302   0.00000  Uiso   1.00
H695   H     0.11962   0.66226   0.36422   0.00000  Uiso   1.00
H696   H     0.11521   0.60018   0.36950   0.00000  Uiso   1.00
O697   O     0.43988   0.53958   0.24999   0.00000  Uiso   1.00
O698   O     0.56012   0.46042   0.25000   0.00000  Uiso   1.00
O699   O     0.56012   0.53958   0.25000   0.00000  Uiso   1.00
O700   O     0.43988   0.46042   0.24999   0.00000  Uiso   1.00
N701   N     0.50000   0.61736   0.25000   0.00000  Uiso   1.00
N702   N     0.50000   0.38264   0.25000   0.00000  Uiso   1.00
C703   C     0.42080   0.50021   0.24953   0.00000  Uiso   1.00
C704   C     0.57939   0.50005   0.24984   0.00000  Uiso   1.00
O705   O     0.50000   0.53959   0.18573   0.00000  Uiso   1.00
O706   O     0.50000   0.46041   0.31427   0.00000  Uiso   1.00
O707   O     0.50000   0.53959   0.31427   0.00000  Uiso   1.00
O708   O     0.50000   0.46041   0.18573   0.00000  Uiso   1.00
C709   C     0.50033   0.49955   0.16491   0.00000  Uiso   1.00
C710   C     0.50104   0.50020   0.33483   0.00000  Uiso   1.00
Cu711  Cu    0.50000   0.54689   0.25000   0.00000  Uiso   1.00
Cu712  Cu    0.50000   0.45311   0.25000   0.00000  Uiso   1.00
C713   C     0.47320   0.35767   0.22441   0.00000  Uiso   1.00
C714   C     0.52618   0.64251   0.27587   0.00000  Uiso   1.00
C715   C     0.52401   0.35843   0.27824   0.00000  Uiso   1.00
C716   C     0.47195   0.64161   0.22597   0.00000  Uiso   1.00
C717   C     0.35435   0.46176   0.23415   0.00000  Uiso   1.00
C718   C     0.64603   0.54301   0.25370   0.00000  Uiso   1.00
C719   C     0.64632   0.45897   0.24127   0.00000  Uiso   1.00
C720   C     0.35489   0.54221   0.25859   0.00000  Uiso   1.00
C721   C     0.52736   0.53057   0.05149   0.00000  Uiso   1.00
C722   C     0.50516   0.45424   0.44796   0.00000  Uiso   1.00
C723   C     0.51395   0.53800   0.45215   0.00000  Uiso   1.00
C724   C     0.49405   0.45613   0.04815   0.00000  Uiso   1.00
C725   C     0.51182   0.53772   0.09249   0.00000  Uiso   1.00
C726   C     0.49280   0.45874   0.40467   0.00000  Uiso   1.00
C727   C     0.51654   0.53817   0.40736   0.00000  Uiso   1.00
C728   C     0.49730   0.45532   0.09332   0.00000  Uiso   1.00
C729   C     0.50234   0.49788   0.11670   0.00000  Uiso   1.00
C730   C     0.50282   0.49961   0.38267   0.00000  Uiso   1.00
C731   C     0.51206   0.49303   0.02484   0.00000  Uiso   1.00
C732   C     0.51107   0.49492   0.47500   0.00000  Uiso   1.00
C733   C     0.62424   0.50043   0.24924   0.00000  Uiso   1.00
C734   C     0.37629   0.50115   0.24850   0.00000  Uiso   1.00
F735   F     0.44638   0.38030   0.19850   0.00000  Uiso   1.00
F736   F     0.55421   0.62015   0.29987   0.00000  Uiso   1.00
F737   F     0.54448   0.38136   0.31027   0.00000  Uiso   1.00
F738   F     0.44071   0.61857   0.20593   0.00000  Uiso   1.00
O739   O     0.55532   0.56284   0.03847   0.00000  Uiso   1.00
C740   C     0.59294   0.54093   0.03223   0.00000  Uiso   1.00
H741   H     0.59142   0.51997   0.00203   0.00000  Uiso   1.00
H742   H     0.60171   0.51779   0.05936   0.00000  Uiso   1.00
C743   C     0.62521   0.57903   0.02913   0.00000  Uiso   1.00
H744   H     0.61329   0.60685   0.00798   0.00000  Uiso   1.00
H745   H     0.63081   0.59549   0.06109   0.00000  Uiso   1.00
C746   C     0.66518   0.56076   0.01186   0.00000  Uiso   1.00
H747   H     0.66293   0.52389   0.00057   0.00000  Uiso   1.00
H748   H     0.35642   0.56353   0.03683   0.00000  Uiso   1.00
H749   H     0.34065   0.58251   0.48465   0.00000  Uiso   1.00
O750   O     0.50980   0.40916   0.46217   0.00000  Uiso   1.00
C751   C     0.55116   0.39957   0.47122   0.00000  Uiso   1.00
H752   H     0.55196   0.37443   0.49762   0.00000  Uiso   1.00
H753   H     0.56937   0.43065   0.48209   0.00000  Uiso   1.00
C754   C     0.57070   0.37555   0.43310   0.00000  Uiso   1.00
H755   H     0.55351   0.34315   0.42453   0.00000  Uiso   1.00
H756   H     0.56971   0.39893   0.40506   0.00000  Uiso   1.00
C757   C     0.61478   0.36304   0.44425   0.00000  Uiso   1.00
H758   H     0.63380   0.39504   0.44593   0.00000  Uiso   1.00
H759   H     0.62664   0.33888   0.41974   0.00000  Uiso   1.00
H760   H     0.61725   0.34540   0.47550   0.00000  Uiso   1.00
O761   O     0.51877   0.58109   0.47172   0.00000  Uiso   1.00
C762   C     0.48254   0.59518   0.49062   0.00000  Uiso   1.00
H763   H     0.49159   0.62126   0.01549   0.00000  Uiso   1.00
H764   H     0.46631   0.56595   0.00556   0.00000  Uiso   1.00
C765   C     0.45357   0.61796   0.45872   0.00000  Uiso   1.00
H766   H     0.47030   0.64399   0.44002   0.00000  Uiso   1.00
H767   H     0.44041   0.58997   0.43778   0.00000  Uiso   1.00
C768   C     0.41902   0.64195   0.48132   0.00000  Uiso   1.00
H769   H     0.40207   0.61632   0.49987   0.00000  Uiso   1.00
H770   H     0.39792   0.65836   0.45773   0.00000  Uiso   1.00
H771   H     0.43140   0.33552   0.00374   0.00000  Uiso   1.00
O772   O     0.47431   0.41915   0.02828   0.00000  Uiso   1.00
C773   C     0.43396   0.43174   0.01751   0.00000  Uiso   1.00
H774   H     0.42540   0.41177   0.48834   0.00000  Uiso   1.00
H775   H     0.42987   0.46940   0.00976   0.00000  Uiso   1.00
C776   C     0.40585   0.41767   0.05287   0.00000  Uiso   1.00
H777   H     0.41755   0.38582   0.06840   0.00000  Uiso   1.00
H778   H     0.40630   0.44591   0.07729   0.00000  Uiso   1.00
C779   C     0.36259   0.40840   0.03576   0.00000  Uiso   1.00
H780   H     0.35087   0.43873   0.01752   0.00000  Uiso   1.00
H781   H     0.34259   0.40182   0.06291   0.00000  Uiso   1.00
H782   H     0.36175   0.37716   0.01439   0.00000  Uiso   1.00
O783   O     0.51278   0.58289   0.10905   0.00000  Uiso   1.00
C784   C     0.47388   0.59777   0.12221   0.00000  Uiso   1.00
H785   H     0.47983   0.62637   0.14546   0.00000  Uiso   1.00
H786   H     0.45565   0.57012   0.13698   0.00000  Uiso   1.00
C787   C     0.44672   0.61787   0.08695   0.00000  Uiso   1.00
H788   H     0.46201   0.64798   0.07252   0.00000  Uiso   1.00
H789   H     0.43950   0.58996   0.06331   0.00000  Uiso   1.00
C790   C     0.40645   0.63431   0.10467   0.00000  Uiso   1.00
H791   H     0.39120   0.60553   0.12126   0.00000  Uiso   1.00
H792   H     0.38591   0.64572   0.07804   0.00000  Uiso   1.00
H793   H     0.41153   0.66389   0.12755   0.00000  Uiso   1.00
O794   O     0.47416   0.42072   0.38402   0.00000  Uiso   1.00
C795   C     0.43391   0.43231   0.37005   0.00000  Uiso   1.00
H796   H     0.42286   0.40466   0.34732   0.00000  Uiso   1.00
H797   H     0.43226   0.46534   0.35200   0.00000  Uiso   1.00
C798   C     0.40496   0.43508   0.40728   0.00000  Uiso   1.00
H799   H     0.40231   0.40004   0.42151   0.00000  Uiso   1.00
H800   H     0.41697   0.46062   0.43148   0.00000  Uiso   1.00
C801   C     0.36293   0.45160   0.39301   0.00000  Uiso   1.00
H802   H     0.36520   0.48363   0.37376   0.00000  Uiso   1.00
H803   H     0.34473   0.45915   0.42155   0.00000  Uiso   1.00
H804   H     0.34714   0.42423   0.37379   0.00000  Uiso   1.00
O805   O     0.53079   0.57832   0.38891   0.00000  Uiso   1.00
C806   C     0.57152   0.57228   0.37639   0.00000  Uiso   1.00
H807   H     0.58247   0.60704   0.36679   0.00000  Uiso   1.00
H808   H     0.57306   0.54832   0.34823   0.00000  Uiso   1.00
C809   C     0.60132   0.55624   0.41189   0.00000  Uiso   1.00
H810   H     0.59793   0.57887   0.44050   0.00000  Uiso   1.00
H811   H     0.59503   0.51943   0.42024   0.00000  Uiso   1.00
C812   C     0.64481   0.55953   0.39701   0.00000  Uiso   1.00
H813   H     0.64752   0.54149   0.36558   0.00000  Uiso   1.00
H814   H     0.66579   0.54276   0.42040   0.00000  Uiso   1.00
H815   H     0.65391   0.59660   0.39411   0.00000  Uiso   1.00
O816   O     0.48997   0.41353   0.11341   0.00000  Uiso   1.00
C817   C     0.52738   0.39322   0.12711   0.00000  Uiso   1.00
H818   H     0.52058   0.36868   0.15301   0.00000  Uiso   1.00
H819   H     0.54903   0.41906   0.14209   0.00000  Uiso   1.00
C820   C     0.54756   0.36508   0.09142   0.00000  Uiso   1.00
H821   H     0.55645   0.66364   0.10373   0.00000  Uiso   1.00
H822   H     0.52589   0.35890   0.06410   0.00000  Uiso   1.00
C823   C     0.58581   0.38933   0.07637   0.00000  Uiso   1.00
H824   H     0.57810   0.42329   0.06166   0.00000  Uiso   1.00
H825   H     0.60110   0.36677   0.05272   0.00000  Uiso   1.00
H826   H     0.60747   0.39569   0.10362   0.00000  Uiso   1.00
O827   O     0.37029   0.42965   0.20578   0.00000  Uiso   1.00
C828   C     0.37718   0.45115   0.16576   0.00000  Uiso   1.00
H829   H     0.38439   0.42284   0.14275   0.00000  Uiso   1.00
H830   H     0.40455   0.47382   0.16845   0.00000  Uiso   1.00
C831   C     0.34040   0.47884   0.14681   0.00000  Uiso   1.00
H832   H     0.64850   0.45453   0.13799   0.00000  Uiso   1.00
H833   H     0.66224   0.50432   0.17032   0.00000  Uiso   1.00
C834   C     0.35121   0.50800   0.10846   0.00000  Uiso   1.00
H835   H     0.66453   0.53903   0.10698   0.00000  Uiso   1.00
H836   H     0.34592   0.48785   0.07849   0.00000  Uiso   1.00
H837   H     0.38313   0.52046   0.11078   0.00000  Uiso   1.00
O838   O     0.62696   0.58597   0.25461   0.00000  Uiso   1.00
C839   C     0.61680   0.59997   0.21223   0.00000  Uiso   1.00
H840   H     0.59263   0.62672   0.21460   0.00000  Uiso   1.00
H841   H     0.60360   0.57114   0.19188   0.00000  Uiso   1.00
C842   C     0.65317   0.62102   0.18979   0.00000  Uiso   1.00
H843   H     0.33829   0.64287   0.21230   0.00000  Uiso   1.00
H844   H     0.33947   0.59258   0.17779   0.00000  Uiso   1.00
C845   C     0.63908   0.65115   0.15249   0.00000  Uiso   1.00
H846   H     0.62118   0.62983   0.12879   0.00000  Uiso   1.00
H847   H     0.66561   0.66632   0.13674   0.00000  Uiso   1.00
H848   H     0.62004   0.34691   0.16426   0.00000  Uiso   1.00
O849   O     0.62763   0.41676   0.23228   0.00000  Uiso   1.00
C850   C     0.62189   0.39334   0.27105   0.00000  Uiso   1.00
H851   H     0.60223   0.36288   0.26324   0.00000  Uiso   1.00
H852   H     0.60668   0.41615   0.29469   0.00000  Uiso   1.00
C853   C     0.66094   0.37497   0.29235   0.00000  Uiso   1.00
H854   H     0.34412   0.35267   0.26978   0.00000  Uiso   1.00
H855   H     0.34778   0.40438   0.30240   0.00000  Uiso   1.00
C856   C     0.65037   0.34715   0.33170   0.00000  Uiso   1.00
H857   H     0.62931   0.36741   0.35171   0.00000  Uiso   1.00
H858   H     0.34479   0.33993   0.35134   0.00000  Uiso   1.00
H859   H     0.63539   0.64715   0.32194   0.00000  Uiso   1.00
O860   O     0.37493   0.58388   0.26614   0.00000  Uiso   1.00
C861   C     0.38544   0.58772   0.31002   0.00000  Uiso   1.00
H862   H     0.39974   0.55518   0.32259   0.00000  Uiso   1.00
H863   H     0.35809   0.59533   0.32845   0.00000  Uiso   1.00
C864   C     0.41582   0.62752   0.31576   0.00000  Uiso   1.00
H865   H     0.44197   0.61932   0.29642   0.00000  Uiso   1.00
H866   H     0.40266   0.66096   0.30488   0.00000  Uiso   1.00
C867   C     0.43160   0.63235   0.36128   0.00000  Uiso   1.00
H868   H     0.40608   0.63796   0.38302   0.00000  Uiso   1.00
H869   H     0.45295   0.66226   0.36422   0.00000  Uiso   1.00
H870   H     0.44854   0.60018   0.36950   0.00000  Uiso   1.00
O871   O     0.77321   0.53958   0.24999   0.00000  Uiso   1.00
O872   O     0.89345   0.46042   0.25000   0.00000  Uiso   1.00
O873   O     0.89345   0.53958   0.25000   0.00000  Uiso   1.00
O874   O     0.77321   0.46042   0.24999   0.00000  Uiso   1.00
N875   N     0.83333   0.61736   0.25000   0.00000  Uiso   1.00
N876   N     0.83333   0.38264   0.25000   0.00000  Uiso   1.00
C877   C     0.75414   0.50021   0.24953   0.00000  Uiso   1.00
C878   C     0.91273   0.50005   0.24984   0.00000  Uiso   1.00
O879   O     0.83333   0.53959   0.18573   0.00000  Uiso   1.00
O880   O     0.83334   0.46041   0.31427   0.00000  Uiso   1.00
O881   O     0.83334   0.53959   0.31427   0.00000  Uiso   1.00
O882   O     0.83333   0.46041   0.18573   0.00000  Uiso   1.00
C883   C     0.83367   0.49955   0.16491   0.00000  Uiso   1.00
C884   C     0.83438   0.50020   0.33483   0.00000  Uiso   1.00
Cu885  Cu    0.83333   0.54689   0.25000   0.00000  Uiso   1.00
Cu886  Cu    0.83333   0.45311   0.25000   0.00000  Uiso   1.00
C887   C     0.80653   0.35767   0.22441   0.00000  Uiso   1.00
C888   C     0.85952   0.64251   0.27587   0.00000  Uiso   1.00
C889   C     0.85734   0.35843   0.27824   0.00000  Uiso   1.00
C890   C     0.80528   0.64161   0.22597   0.00000  Uiso   1.00
C891   C     0.68768   0.46176   0.23415   0.00000  Uiso   1.00
C892   C     0.97936   0.54301   0.25370   0.00000  Uiso   1.00
C893   C     0.97966   0.45897   0.24127   0.00000  Uiso   1.00
C894   C     0.68823   0.54221   0.25859   0.00000  Uiso   1.00
C895   C     0.86069   0.53057   0.05149   0.00000  Uiso   1.00
C896   C     0.83849   0.45424   0.44796   0.00000  Uiso   1.00
C897   C     0.84728   0.53800   0.45215   0.00000  Uiso   1.00
C898   C     0.82739   0.45613   0.04815   0.00000  Uiso   1.00
C899   C     0.84515   0.53772   0.09249   0.00000  Uiso   1.00
C900   C     0.82613   0.45874   0.40467   0.00000  Uiso   1.00
C901   C     0.84988   0.53817   0.40736   0.00000  Uiso   1.00
C902   C     0.83063   0.45532   0.09332   0.00000  Uiso   1.00
C903   C     0.83567   0.49788   0.11670   0.00000  Uiso   1.00
C904   C     0.83615   0.49961   0.38267   0.00000  Uiso   1.00
C905   C     0.84539   0.49303   0.02484   0.00000  Uiso   1.00
C906   C     0.84440   0.49492   0.47500   0.00000  Uiso   1.00
C907   C     0.95758   0.50043   0.24924   0.00000  Uiso   1.00
C908   C     0.70962   0.50115   0.24850   0.00000  Uiso   1.00
F909   F     0.77971   0.38030   0.19850   0.00000  Uiso   1.00
F910   F     0.88755   0.62015   0.29987   0.00000  Uiso   1.00
F911   F     0.87781   0.38136   0.31027   0.00000  Uiso   1.00
F912   F     0.77404   0.61857   0.20593   0.00000  Uiso   1.00
O913   O     0.88865   0.56284   0.03847   0.00000  Uiso   1.00
C914   C     0.92628   0.54093   0.03223   0.00000  Uiso   1.00
H915   H     0.92476   0.51997   0.00203   0.00000  Uiso   1.00
H916   H     0.93504   0.51779   0.05936   0.00000  Uiso   1.00
C917   C     0.95854   0.57903   0.02913   0.00000  Uiso   1.00
H918   H     0.94662   0.60685   0.00798   0.00000  Uiso   1.00
H919   H     0.96414   0.59549   0.06109   0.00000  Uiso   1.00
C920   C     0.99852   0.56076   0.01186   0.00000  Uiso   1.00
H921   H     0.99627   0.52389   0.00057   0.00000  Uiso   1.00
H922   H     0.68975   0.56353   0.03683   0.00000  Uiso   1.00
H923   H     0.67398   0.58251   0.48465   0.00000  Uiso   1.00
O924   O     0.84314   0.40916   0.46217   0.00000  Uiso   1.00
C925   C     0.88449   0.39957   0.47122   0.00000  Uiso   1.00
H926   H     0.88529   0.37443   0.49762   0.00000  Uiso   1.00
H927   H     0.90270   0.43065   0.48209   0.00000  Uiso   1.00
C928   C     0.90403   0.37555   0.43310   0.00000  Uiso   1.00
H929   H     0.88685   0.34315   0.42453   0.00000  Uiso   1.00
H930   H     0.90304   0.39893   0.40506   0.00000  Uiso   1.00
C931   C     0.94812   0.36304   0.44425   0.00000  Uiso   1.00
H932   H     0.96713   0.39504   0.44593   0.00000  Uiso   1.00
H933   H     0.95997   0.33888   0.41974   0.00000  Uiso   1.00
H934   H     0.95058   0.34540   0.47550   0.00000  Uiso   1.00
O935   O     0.85210   0.58109   0.47172   0.00000  Uiso   1.00
C936   C     0.81587   0.59518   0.49062   0.00000  Uiso   1.00
H937   H     0.82492   0.62126   0.01549   0.00000  Uiso   1.00
H938   H     0.79964   0.56595   0.00556   0.00000  Uiso   1.00
C939   C     0.78690   0.61796   0.45872   0.00000  Uiso   1.00
H940   H     0.80363   0.64399   0.44002   0.00000  Uiso   1.00
H941   H     0.77374   0.58997   0.43778   0.00000  Uiso   1.00
C942   C     0.75235   0.64195   0.48132   0.00000  Uiso   1.00
H943   H     0.73540   0.61632   0.49987   0.00000  Uiso   1.00
H944   H     0.73125   0.65836   0.45773   0.00000  Uiso   1.00
H945   H     0.76473   0.33552   0.00374   0.00000  Uiso   1.00
O946   O     0.80764   0.41915   0.02828   0.00000  Uiso   1.00
C947   C     0.76730   0.43174   0.01751   0.00000  Uiso   1.00
H948   H     0.75873   0.41177   0.48834   0.00000  Uiso   1.00
H949   H     0.76321   0.46940   0.00976   0.00000  Uiso   1.00
C950   C     0.73919   0.41767   0.05287   0.00000  Uiso   1.00
H951   H     0.75088   0.38582   0.06840   0.00000  Uiso   1.00
H952   H     0.73963   0.44591   0.07729   0.00000  Uiso   1.00
C953   C     0.69593   0.40840   0.03576   0.00000  Uiso   1.00
H954   H     0.68421   0.43873   0.01752   0.00000  Uiso   1.00
H955   H     0.67593   0.40182   0.06291   0.00000  Uiso   1.00
H956   H     0.69508   0.37716   0.01439   0.00000  Uiso   1.00
O957   O     0.84611   0.58289   0.10905   0.00000  Uiso   1.00
C958   C     0.80721   0.59777   0.12221   0.00000  Uiso   1.00
H959   H     0.81316   0.62637   0.14546   0.00000  Uiso   1.00
H960   H     0.78898   0.57012   0.13698   0.00000  Uiso   1.00
C961   C     0.78006   0.61787   0.08695   0.00000  Uiso   1.00
H962   H     0.79534   0.64798   0.07252   0.00000  Uiso   1.00
H963   H     0.77283   0.58996   0.06331   0.00000  Uiso   1.00
C964   C     0.73978   0.63431   0.10467   0.00000  Uiso   1.00
H965   H     0.72453   0.60553   0.12126   0.00000  Uiso   1.00
H966   H     0.71925   0.64572   0.07804   0.00000  Uiso   1.00
H967   H     0.74486   0.66389   0.12755   0.00000  Uiso   1.00
O968   O     0.80749   0.42072   0.38402   0.00000  Uiso   1.00
C969   C     0.76725   0.43231   0.37005   0.00000  Uiso   1.00
H970   H     0.75620   0.40466   0.34732   0.00000  Uiso   1.00
H971   H     0.76560   0.46534   0.35200   0.00000  Uiso   1.00
C972   C     0.73830   0.43508   0.40728   0.00000  Uiso   1.00
H973   H     0.73564   0.40004   0.42151   0.00000  Uiso   1.00
H974   H     0.75030   0.46062   0.43148   0.00000  Uiso   1.00
C975   C     0.69626   0.45160   0.39301   0.00000  Uiso   1.00
H976   H     0.69853   0.48363   0.37376   0.00000  Uiso   1.00
H977   H     0.67807   0.45915   0.42155   0.00000  Uiso   1.00
H978   H     0.68047   0.42423   0.37379   0.00000  Uiso   1.00
O979   O     0.86413   0.57832   0.38891   0.00000  Uiso   1.00
C980   C     0.90486   0.57228   0.37639   0.00000  Uiso   1.00
H981   H     0.91581   0.60704   0.36679   0.00000  Uiso   1.00
H982   H     0.90639   0.54832   0.34823   0.00000  Uiso   1.00
C983   C     0.93466   0.55624   0.41189   0.00000  Uiso   1.00
H984   H     0.93127   0.57887   0.44050   0.00000  Uiso   1.00
H985   H     0.92837   0.51943   0.42024   0.00000  Uiso   1.00
C986   C     0.97815   0.55953   0.39701   0.00000  Uiso   1.00
H987   H     0.98085   0.54149   0.36558   0.00000  Uiso   1.00
H988   H     0.99912   0.54276   0.42040   0.00000  Uiso   1.00
H989   H     0.98724   0.59660   0.39411   0.00000  Uiso   1.00
O990   O     0.82330   0.41353   0.11341   0.00000  Uiso   1.00
C991   C     0.86072   0.39322   0.12711   0.00000  Uiso   1.00
H992   H     0.85392   0.36868   0.15301   0.00000  Uiso   1.00
H993   H     0.88236   0.41906   0.14209   0.00000  Uiso   1.00
C994   C     0.88090   0.36508   0.09142   0.00000  Uiso   1.00
H995   H     0.88979   0.66364   0.10373   0.00000  Uiso   1.00
H996   H     0.85923   0.35890   0.06410   0.00000  Uiso   1.00
C997   C     0.91914   0.38933   0.07637   0.00000  Uiso   1.00
H998   H     0.91144   0.42329   0.06166   0.00000  Uiso   1.00
H999   H     0.93444   0.36677   0.05272   0.00000  Uiso   1.00
H1000  H     0.94080   0.39569   0.10362   0.00000  Uiso   1.00
O1001  O     0.70362   0.42965   0.20578   0.00000  Uiso   1.00
C1002  C     0.71052   0.45115   0.16576   0.00000  Uiso   1.00
H1003  H     0.71772   0.42284   0.14275   0.00000  Uiso   1.00
H1004  H     0.73788   0.47382   0.16845   0.00000  Uiso   1.00
C1005  C     0.67373   0.47884   0.14681   0.00000  Uiso   1.00
H1006  H     0.98183   0.45453   0.13799   0.00000  Uiso   1.00
H1007  H     0.99557   0.50432   0.17032   0.00000  Uiso   1.00
C1008  C     0.68455   0.50800   0.10846   0.00000  Uiso   1.00
H1009  H     0.99786   0.53903   0.10698   0.00000  Uiso   1.00
H1010  H     0.67925   0.48785   0.07849   0.00000  Uiso   1.00
H1011  H     0.71647   0.52046   0.11078   0.00000  Uiso   1.00
O1012  O     0.96029   0.58597   0.25461   0.00000  Uiso   1.00
C1013  C     0.95014   0.59997   0.21223   0.00000  Uiso   1.00
H1014  H     0.92596   0.62672   0.21460   0.00000  Uiso   1.00
H1015  H     0.93693   0.57114   0.19188   0.00000  Uiso   1.00
C1016  C     0.98651   0.62102   0.18979   0.00000  Uiso   1.00
H1017  H     0.67163   0.64287   0.21230   0.00000  Uiso   1.00
H1018  H     0.67281   0.59258   0.17779   0.00000  Uiso   1.00
C1019  C     0.97241   0.65115   0.15249   0.00000  Uiso   1.00
H1020  H     0.95452   0.62983   0.12879   0.00000  Uiso   1.00
H1021  H     0.99894   0.66632   0.13674   0.00000  Uiso   1.00
H1022  H     0.95338   0.34691   0.16426   0.00000  Uiso   1.00
O1023  O     0.96096   0.41676   0.23228   0.00000  Uiso   1.00
C1024  C     0.95522   0.39334   0.27105   0.00000  Uiso   1.00
H1025  H     0.93556   0.36288   0.26324   0.00000  Uiso   1.00
H1026  H     0.94001   0.41615   0.29469   0.00000  Uiso   1.00
C1027  C     0.99427   0.37497   0.29235   0.00000  Uiso   1.00
H1028  H     0.67746   0.35267   0.26978   0.00000  Uiso   1.00
H1029  H     0.68111   0.40438   0.30240   0.00000  Uiso   1.00
C1030  C     0.98370   0.34715   0.33170   0.00000  Uiso   1.00
H1031  H     0.96265   0.36741   0.35171   0.00000  Uiso   1.00
H1032  H     0.67812   0.33993   0.35134   0.00000  Uiso   1.00
H1033  H     0.96872   0.64715   0.32194   0.00000  Uiso   1.00
O1034  O     0.70827   0.58388   0.26614   0.00000  Uiso   1.00
C1035  C     0.71878   0.58772   0.31002   0.00000  Uiso   1.00
H1036  H     0.73307   0.55518   0.32259   0.00000  Uiso   1.00
H1037  H     0.69143   0.59533   0.32845   0.00000  Uiso   1.00
C1038  C     0.74915   0.62752   0.31576   0.00000  Uiso   1.00
H1039  H     0.77530   0.61932   0.29642   0.00000  Uiso   1.00
H1040  H     0.73599   0.66096   0.30488   0.00000  Uiso   1.00
C1041  C     0.76494   0.63235   0.36128   0.00000  Uiso   1.00
H1042  H     0.73942   0.63796   0.38302   0.00000  Uiso   1.00
H1043  H     0.78628   0.66226   0.36422   0.00000  Uiso   1.00
H1044  H     0.78188   0.60018   0.36950   0.00000  Uiso   1.00
O1045  O     0.10655   0.87291   0.24999   0.00000  Uiso   1.00
O1046  O     0.22679   0.79375   0.25000   0.00000  Uiso   1.00
O1047  O     0.22679   0.87291   0.25000   0.00000  Uiso   1.00
O1048  O     0.10655   0.79375   0.24999   0.00000  Uiso   1.00
N1049  N     0.16667   0.95069   0.25000   0.00000  Uiso   1.00
N1050  N     0.16667   0.71598   0.25000   0.00000  Uiso   1.00
C1051  C     0.08747   0.83354   0.24953   0.00000  Uiso   1.00
C1052  C     0.24606   0.83339   0.24984   0.00000  Uiso   1.00
O1053  O     0.16666   0.87293   0.18573   0.00000  Uiso   1.00
O1054  O     0.16667   0.79374   0.31427   0.00000  Uiso   1.00
O1055  O     0.16667   0.87293   0.31427   0.00000  Uiso   1.00
O1056  O     0.16666   0.79374   0.18573   0.00000  Uiso   1.00
C1057  C     0.16700   0.83288   0.16491   0.00000  Uiso   1.00
C1058  C     0.16771   0.83353   0.33483   0.00000  Uiso   1.00
Cu1059 Cu    0.16667   0.88022   0.25000   0.00000  Uiso   1.00
Cu1060 Cu    0.16667   0.78645   0.25000   0.00000  Uiso   1.00
C1061  C     0.13987   0.69101   0.22441   0.00000  Uiso   1.00
C1062  C     0.19285   0.97585   0.27587   0.00000  Uiso   1.00
C1063  C     0.19068   0.69176   0.27824   0.00000  Uiso   1.00
C1064  C     0.13861   0.97494   0.22597   0.00000  Uiso   1.00
C1065  C     0.02102   0.79510   0.23415   0.00000  Uiso   1.00
C1066  C     0.31270   0.87635   0.25370   0.00000  Uiso   1.00
C1067  C     0.31299   0.79231   0.24127   0.00000  Uiso   1.00
C1068  C     0.02156   0.87555   0.25859   0.00000  Uiso   1.00
C1069  C     0.19402   0.86390   0.05149   0.00000  Uiso   1.00
C1070  C     0.17183   0.78757   0.44796   0.00000  Uiso   1.00
C1071  C     0.18062   0.87133   0.45215   0.00000  Uiso   1.00
C1072  C     0.16072   0.78946   0.04815   0.00000  Uiso   1.00
C1073  C     0.17849   0.87105   0.09249   0.00000  Uiso   1.00
C1074  C     0.15946   0.79208   0.40467   0.00000  Uiso   1.00
C1075  C     0.18321   0.87150   0.40736   0.00000  Uiso   1.00
C1076  C     0.16396   0.78865   0.09332   0.00000  Uiso   1.00
C1077  C     0.16901   0.83121   0.11670   0.00000  Uiso   1.00
C1078  C     0.16948   0.83294   0.38267   0.00000  Uiso   1.00
C1079  C     0.17872   0.82637   0.02484   0.00000  Uiso   1.00
C1080  C     0.17773   0.82825   0.47500   0.00000  Uiso   1.00
C1081  C     0.29091   0.83377   0.24924   0.00000  Uiso   1.00
C1082  C     0.04295   0.83448   0.24850   0.00000  Uiso   1.00
F1083  F     0.11304   0.71363   0.19850   0.00000  Uiso   1.00
F1084  F     0.22088   0.95349   0.29987   0.00000  Uiso   1.00
F1085  F     0.21114   0.71469   0.31027   0.00000  Uiso   1.00
F1086  F     0.10738   0.95191   0.20593   0.00000  Uiso   1.00
O1087  O     0.22198   0.89617   0.03847   0.00000  Uiso   1.00
C1088  C     0.25961   0.87426   0.03223   0.00000  Uiso   1.00
H1089  H     0.25809   0.85330   0.00203   0.00000  Uiso   1.00
H1090  H     0.26837   0.85112   0.05936   0.00000  Uiso   1.00
C1091  C     0.29188   0.91236   0.02913   0.00000  Uiso   1.00
H1092  H     0.27996   0.94018   0.00798   0.00000  Uiso   1.00
H1093  H     0.29747   0.92883   0.06109   0.00000  Uiso   1.00
C1094  C     0.33185   0.89409   0.01186   0.00000  Uiso   1.00
H1095  H     0.32960   0.85722   0.00057   0.00000  Uiso   1.00
H1096  H     0.02309   0.89686   0.03683   0.00000  Uiso   1.00
H1097  H     0.00731   0.91584   0.48465   0.00000  Uiso   1.00
O1098  O     0.17647   0.74250   0.46217   0.00000  Uiso   1.00
C1099  C     0.21782   0.73291   0.47122   0.00000  Uiso   1.00
H1100  H     0.21862   0.70777   0.49762   0.00000  Uiso   1.00
H1101  H     0.23603   0.76399   0.48209   0.00000  Uiso   1.00
C1102  C     0.23737   0.70889   0.43310   0.00000  Uiso   1.00
H1103  H     0.22018   0.67648   0.42453   0.00000  Uiso   1.00
H1104  H     0.23637   0.73227   0.40506   0.00000  Uiso   1.00
C1105  C     0.28145   0.69637   0.44425   0.00000  Uiso   1.00
H1106  H     0.30046   0.72837   0.44593   0.00000  Uiso   1.00
H1107  H     0.29331   0.67221   0.41974   0.00000  Uiso   1.00
H1108  H     0.28391   0.67873   0.47550   0.00000  Uiso   1.00
O1109  O     0.18544   0.91442   0.47172   0.00000  Uiso   1.00
C1110  C     0.14920   0.92851   0.49062   0.00000  Uiso   1.00
H1111  H     0.15826   0.95459   0.01549   0.00000  Uiso   1.00
H1112  H     0.13297   0.89928   0.00556   0.00000  Uiso   1.00
C1113  C     0.12024   0.95130   0.45872   0.00000  Uiso   1.00
H1114  H     0.13696   0.97732   0.44002   0.00000  Uiso   1.00
H1115  H     0.10707   0.92330   0.43778   0.00000  Uiso   1.00
C1116  C     0.08569   0.97528   0.48132   0.00000  Uiso   1.00
H1117  H     0.06873   0.94965   0.49987   0.00000  Uiso   1.00
H1118  H     0.06459   0.99170   0.45773   0.00000  Uiso   1.00
H1119  H     0.09807   0.66885   0.00374   0.00000  Uiso   1.00
O1120  O     0.14098   0.75249   0.02828   0.00000  Uiso   1.00
C1121  C     0.10063   0.76508   0.01751   0.00000  Uiso   1.00
H1122  H     0.09207   0.74510   0.48834   0.00000  Uiso   1.00
H1123  H     0.09654   0.80273   0.00976   0.00000  Uiso   1.00
C1124  C     0.07252   0.75101   0.05287   0.00000  Uiso   1.00
H1125  H     0.08421   0.71915   0.06840   0.00000  Uiso   1.00
H1126  H     0.07297   0.77924   0.07729   0.00000  Uiso   1.00
C1127  C     0.02926   0.74174   0.03576   0.00000  Uiso   1.00
H1128  H     0.01754   0.77207   0.01752   0.00000  Uiso   1.00
H1129  H     0.00926   0.73516   0.06291   0.00000  Uiso   1.00
H1130  H     0.02841   0.71049   0.01439   0.00000  Uiso   1.00
O1131  O     0.17945   0.91623   0.10905   0.00000  Uiso   1.00
C1132  C     0.14054   0.93110   0.12221   0.00000  Uiso   1.00
H1133  H     0.14649   0.95970   0.14546   0.00000  Uiso   1.00
H1134  H     0.12231   0.90345   0.13698   0.00000  Uiso   1.00
C1135  C     0.11339   0.95120   0.08695   0.00000  Uiso   1.00
H1136  H     0.12867   0.98131   0.07252   0.00000  Uiso   1.00
H1137  H     0.10616   0.92330   0.06331   0.00000  Uiso   1.00
C1138  C     0.07311   0.96765   0.10467   0.00000  Uiso   1.00
H1139  H     0.05786   0.93886   0.12126   0.00000  Uiso   1.00
H1140  H     0.05258   0.97906   0.07804   0.00000  Uiso   1.00
H1141  H     0.07819   0.99722   0.12755   0.00000  Uiso   1.00
O1142  O     0.14083   0.75405   0.38402   0.00000  Uiso   1.00
C1143  C     0.10058   0.76564   0.37005   0.00000  Uiso   1.00
H1144  H     0.08953   0.73799   0.34732   0.00000  Uiso   1.00
H1145  H     0.09893   0.79867   0.35200   0.00000  Uiso   1.00
C1146  C     0.07163   0.76841   0.40728   0.00000  Uiso   1.00
H1147  H     0.06897   0.73337   0.42151   0.00000  Uiso   1.00
H1148  H     0.08363   0.79396   0.43148   0.00000  Uiso   1.00
C1149  C     0.02959   0.78493   0.39301   0.00000  Uiso   1.00
H1150  H     0.03186   0.81696   0.37376   0.00000  Uiso   1.00
H1151  H     0.01140   0.79248   0.42155   0.00000  Uiso   1.00
H1152  H     0.01381   0.75756   0.37379   0.00000  Uiso   1.00
O1153  O     0.19746   0.91166   0.38891   0.00000  Uiso   1.00
C1154  C     0.23819   0.90561   0.37639   0.00000  Uiso   1.00
H1155  H     0.24914   0.94037   0.36679   0.00000  Uiso   1.00
H1156  H     0.23972   0.88165   0.34823   0.00000  Uiso   1.00
C1157  C     0.26799   0.88957   0.41189   0.00000  Uiso   1.00
H1158  H     0.26460   0.91220   0.44050   0.00000  Uiso   1.00
H1159  H     0.26170   0.85276   0.42024   0.00000  Uiso   1.00
C1160  C     0.31148   0.89286   0.39701   0.00000  Uiso   1.00
H1161  H     0.31419   0.87483   0.36558   0.00000  Uiso   1.00
H1162  H     0.33245   0.87610   0.42040   0.00000  Uiso   1.00
H1163  H     0.32057   0.92993   0.39411   0.00000  Uiso   1.00
O1164  O     0.15664   0.74686   0.11341   0.00000  Uiso   1.00
C1165  C     0.19405   0.72656   0.12711   0.00000  Uiso   1.00
H1166  H     0.18725   0.70202   0.15301   0.00000  Uiso   1.00
H1167  H     0.21570   0.75239   0.14209   0.00000  Uiso   1.00
C1168  C     0.21423   0.69841   0.09142   0.00000  Uiso   1.00
H1169  H     0.22312   0.99697   0.10373   0.00000  Uiso   1.00
H1170  H     0.19256   0.69224   0.06410   0.00000  Uiso   1.00
C1171  C     0.25247   0.72267   0.07637   0.00000  Uiso   1.00
H1172  H     0.24477   0.75663   0.06166   0.00000  Uiso   1.00
H1173  H     0.26777   0.70010   0.05272   0.00000  Uiso   1.00
H1174  H     0.27413   0.72902   0.10362   0.00000  Uiso   1.00
O1175  O     0.03696   0.76298   0.20578   0.00000  Uiso   1.00
C1176  C     0.04385   0.78449   0.16576   0.00000  Uiso   1.00
H1177  H     0.05105   0.75617   0.14275   0.00000  Uiso   1.00
H1178  H     0.07121   0.80715   0.16845   0.00000  Uiso   1.00
C1179  C     0.00706   0.81218   0.14681   0.00000  Uiso   1.00
H1180  H     0.31516   0.78787   0.13799   0.00000  Uiso   1.00
H1181  H     0.32890   0.83766   0.17032   0.00000  Uiso   1.00
C1182  C     0.01788   0.84133   0.10846   0.00000  Uiso   1.00
H1183  H     0.33120   0.87236   0.10698   0.00000  Uiso   1.00
H1184  H     0.01258   0.82118   0.07849   0.00000  Uiso   1.00
H1185  H     0.04980   0.85379   0.11078   0.00000  Uiso   1.00
O1186  O     0.29363   0.91930   0.25461   0.00000  Uiso   1.00
C1187  C     0.28347   0.93330   0.21223   0.00000  Uiso   1.00
H1188  H     0.25930   0.96005   0.21460   0.00000  Uiso   1.00
H1189  H     0.27026   0.90447   0.19188   0.00000  Uiso   1.00
C1190  C     0.31984   0.95435   0.18979   0.00000  Uiso   1.00
H1191  H     0.00496   0.97620   0.21230   0.00000  Uiso   1.00
H1192  H     0.00614   0.92591   0.17779   0.00000  Uiso   1.00
C1193  C     0.30575   0.98448   0.15249   0.00000  Uiso   1.00
H1194  H     0.28785   0.96316   0.12879   0.00000  Uiso   1.00
H1195  H     0.33228   0.99965   0.13674   0.00000  Uiso   1.00
H1196  H     0.28671   0.68024   0.16426   0.00000  Uiso   1.00
O1197  O     0.29429   0.75009   0.23228   0.00000  Uiso   1.00
C1198  C     0.28855   0.72667   0.27105   0.00000  Uiso   1.00
H1199  H     0.26890   0.69621   0.26324   0.00000  Uiso   1.00
H1200  H     0.27334   0.74949   0.29469   0.00000  Uiso   1.00
C1201  C     0.32760   0.70830   0.29235   0.00000  Uiso   1.00
H1202  H     0.01079   0.68601   0.26978   0.00000  Uiso   1.00
H1203  H     0.01445   0.73771   0.30240   0.00000  Uiso   1.00
C1204  C     0.31704   0.68048   0.33170   0.00000  Uiso   1.00
H1205  H     0.29598   0.70074   0.35171   0.00000  Uiso   1.00
H1206  H     0.01146   0.67326   0.35134   0.00000  Uiso   1.00
H1207  H     0.30206   0.98049   0.32194   0.00000  Uiso   1.00
O1208  O     0.04160   0.91721   0.26614   0.00000  Uiso   1.00
C1209  C     0.05211   0.92105   0.31002   0.00000  Uiso   1.00
H1210  H     0.06641   0.88852   0.32259   0.00000  Uiso   1.00
H1211  H     0.02476   0.92866   0.32845   0.00000  Uiso   1.00
C1212  C     0.08249   0.96085   0.31576   0.00000  Uiso   1.00
H1213  H     0.10863   0.95265   0.29642   0.00000  Uiso   1.00
H1214  H     0.06932   0.99429   0.30488   0.00000  Uiso   1.00
C1215  C     0.09827   0.96568   0.36128   0.00000  Uiso   1.00
H1216  H     0.07275   0.97130   0.38302   0.00000  Uiso   1.00
H1217  H     0.11962   0.99559   0.36422   0.00000  Uiso   1.00
H1218  H     0.11521   0.93351   0.36950   0.00000  Uiso   1.00
O1219  O     0.43988   0.87291   0.24999   0.00000  Uiso   1.00
O1220  O     0.56012   0.79375   0.25000   0.00000  Uiso   1.00
O1221  O     0.56012   0.87291   0.25000   0.00000  Uiso   1.00
O1222  O     0.43988   0.79375   0.24999   0.00000  Uiso   1.00
N1223  N     0.50000   0.95069   0.25000   0.00000  Uiso   1.00
N1224  N     0.50000   0.71598   0.25000   0.00000  Uiso   1.00
C1225  C     0.42080   0.83354   0.24953   0.00000  Uiso   1.00
C1226  C     0.57939   0.83339   0.24984   0.00000  Uiso   1.00
O1227  O     0.50000   0.87293   0.18573   0.00000  Uiso   1.00
O1228  O     0.50000   0.79374   0.31427   0.00000  Uiso   1.00
O1229  O     0.50000   0.87293   0.31427   0.00000  Uiso   1.00
O1230  O     0.50000   0.79374   0.18573   0.00000  Uiso   1.00
C1231  C     0.50033   0.83288   0.16491   0.00000  Uiso   1.00
C1232  C     0.50104   0.83353   0.33483   0.00000  Uiso   1.00
Cu1233 Cu    0.50000   0.88022   0.25000   0.00000  Uiso   1.00
Cu1234 Cu    0.50000   0.78645   0.25000   0.00000  Uiso   1.00
C1235  C     0.47320   0.69101   0.22441   0.00000  Uiso   1.00
C1236  C     0.52618   0.97585   0.27587   0.00000  Uiso   1.00
C1237  C     0.52401   0.69176   0.27824   0.00000  Uiso   1.00
C1238  C     0.47195   0.97494   0.22597   0.00000  Uiso   1.00
C1239  C     0.35435   0.79510   0.23415   0.00000  Uiso   1.00
C1240  C     0.64603   0.87635   0.25370   0.00000  Uiso   1.00
C1241  C     0.64632   0.79231   0.24127   0.00000  Uiso   1.00
C1242  C     0.35489   0.87555   0.25859   0.00000  Uiso   1.00
C1243  C     0.52736   0.86390   0.05149   0.00000  Uiso   1.00
C1244  C     0.50516   0.78757   0.44796   0.00000  Uiso   1.00
C1245  C     0.51395   0.87133   0.45215   0.00000  Uiso   1.00
C1246  C     0.49405   0.78946   0.04815   0.00000  Uiso   1.00
C1247  C     0.51182   0.87105   0.09249   0.00000  Uiso   1.00
C1248  C     0.49280   0.79208   0.40467   0.00000  Uiso   1.00
C1249  C     0.51654   0.87150   0.40736   0.00000  Uiso   1.00
C1250  C     0.49730   0.78865   0.09332   0.00000  Uiso   1.00
C1251  C     0.50234   0.83121   0.11670   0.00000  Uiso   1.00
C1252  C     0.50282   0.83294   0.38267   0.00000  Uiso   1.00
C1253  C     0.51206   0.82637   0.02484   0.00000  Uiso   1.00
C1254  C     0.51107   0.82825   0.47500   0.00000  Uiso   1.00
C1255  C     0.62424   0.83377   0.24924   0.00000  Uiso   1.00
C1256  C     0.37629   0.83448   0.24850   0.00000  Uiso   1.00
F1257  F     0.44638   0.71363   0.19850   0.00000  Uiso   1.00
F1258  F     0.55421   0.95349   0.29987   0.00000  Uiso   1.00
F1259  F     0.54448   0.71469   0.31027   0.00000  Uiso   1.00
F1260  F     0.44071   0.95191   0.20593   0.00000  Uiso   1.00
O1261  O     0.55532   0.89617   0.03847   0.00000  Uiso   1.00
C1262  C     0.59294   0.87426   0.03223   0.00000  Uiso   1.00
H1263  H     0.59142   0.85330   0.00203   0.00000  Uiso   1.00
H1264  H     0.60171   0.85112   0.05936   0.00000  Uiso   1.00
C1265  C     0.62521   0.91236   0.02913   0.00000  Uiso   1.00
H1266  H     0.61329   0.94018   0.00798   0.00000  Uiso   1.00
H1267  H     0.63081   0.92883   0.06109   0.00000  Uiso   1.00
C1268  C     0.66518   0.89409   0.01186   0.00000  Uiso   1.00
H1269  H     0.66293   0.85722   0.00057   0.00000  Uiso   1.00
H1270  H     0.35642   0.89686   0.03683   0.00000  Uiso   1.00
H1271  H     0.34065   0.91584   0.48465   0.00000  Uiso   1.00
O1272  O     0.50980   0.74250   0.46217   0.00000  Uiso   1.00
C1273  C     0.55116   0.73291   0.47122   0.00000  Uiso   1.00
H1274  H     0.55196   0.70777   0.49762   0.00000  Uiso   1.00
H1275  H     0.56937   0.76399   0.48209   0.00000  Uiso   1.00
C1276  C     0.57070   0.70889   0.43310   0.00000  Uiso   1.00
H1277  H     0.55351   0.67648   0.42453   0.00000  Uiso   1.00
H1278  H     0.56971   0.73227   0.40506   0.00000  Uiso   1.00
C1279  C     0.61478   0.69637   0.44425   0.00000  Uiso   1.00
H1280  H     0.63380   0.72837   0.44593   0.00000  Uiso   1.00
H1281  H     0.62664   0.67221   0.41974   0.00000  Uiso   1.00
H1282  H     0.61725   0.67873   0.47550   0.00000  Uiso   1.00
O1283  O     0.51877   0.91442   0.47172   0.00000  Uiso   1.00
C1284  C     0.48254   0.92851   0.49062   0.00000  Uiso   1.00
H1285  H     0.49159   0.95459   0.01549   0.00000  Uiso   1.00
H1286  H     0.46631   0.89928   0.00556   0.00000  Uiso   1.00
C1287  C     0.45357   0.95130   0.45872   0.00000  Uiso   1.00
H1288  H     0.47030   0.97732   0.44002   0.00000  Uiso   1.00
H1289  H     0.44041   0.92330   0.43778   0.00000  Uiso   1.00
C1290  C     0.41902   0.97528   0.48132   0.00000  Uiso   1.00
H1291  H     0.40207   0.94965   0.49987   0.00000  Uiso   1.00
H1292  H     0.39792   0.99170   0.45773   0.00000  Uiso   1.00
H1293  H     0.43140   0.66885   0.00374   0.00000  Uiso   1.00
O1294  O     0.47431   0.75249   0.02828   0.00000  Uiso   1.00
C1295  C     0.43396   0.76508   0.01751   0.00000  Uiso   1.00
H1296  H     0.42540   0.74510   0.48834   0.00000  Uiso   1.00
H1297  H     0.42987   0.80273   0.00976   0.00000  Uiso   1.00
C1298  C     0.40585   0.75101   0.05287   0.00000  Uiso   1.00
H1299  H     0.41755   0.71915   0.06840   0.00000  Uiso   1.00
H1300  H     0.40630   0.77924   0.07729   0.00000  Uiso   1.00
C1301  C     0.36259   0.74174   0.03576   0.00000  Uiso   1.00
H1302  H     0.35087   0.77207   0.01752   0.00000  Uiso   1.00
H1303  H     0.34259   0.73516   0.06291   0.00000  Uiso   1.00
H1304  H     0.36175   0.71049   0.01439   0.00000  Uiso   1.00
O1305  O     0.51278   0.91623   0.10905   0.00000  Uiso   1.00
C1306  C     0.47388   0.93110   0.12221   0.00000  Uiso   1.00
H1307  H     0.47983   0.95970   0.14546   0.00000  Uiso   1.00
H1308  H     0.45565   0.90345   0.13698   0.00000  Uiso   1.00
C1309  C     0.44672   0.95120   0.08695   0.00000  Uiso   1.00
H1310  H     0.46201   0.98131   0.07252   0.00000  Uiso   1.00
H1311  H     0.43950   0.92330   0.06331   0.00000  Uiso   1.00
C1312  C     0.40645   0.96765   0.10467   0.00000  Uiso   1.00
H1313  H     0.39120   0.93886   0.12126   0.00000  Uiso   1.00
H1314  H     0.38591   0.97906   0.07804   0.00000  Uiso   1.00
H1315  H     0.41153   0.99722   0.12755   0.00000  Uiso   1.00
O1316  O     0.47416   0.75405   0.38402   0.00000  Uiso   1.00
C1317  C     0.43391   0.76564   0.37005   0.00000  Uiso   1.00
H1318  H     0.42286   0.73799   0.34732   0.00000  Uiso   1.00
H1319  H     0.43226   0.79867   0.35200   0.00000  Uiso   1.00
C1320  C     0.40496   0.76841   0.40728   0.00000  Uiso   1.00
H1321  H     0.40231   0.73337   0.42151   0.00000  Uiso   1.00
H1322  H     0.41697   0.79396   0.43148   0.00000  Uiso   1.00
C1323  C     0.36293   0.78493   0.39301   0.00000  Uiso   1.00
H1324  H     0.36520   0.81696   0.37376   0.00000  Uiso   1.00
H1325  H     0.34473   0.79248   0.42155   0.00000  Uiso   1.00
H1326  H     0.34714   0.75756   0.37379   0.00000  Uiso   1.00
O1327  O     0.53079   0.91166   0.38891   0.00000  Uiso   1.00
C1328  C     0.57152   0.90561   0.37639   0.00000  Uiso   1.00
H1329  H     0.58247   0.94037   0.36679   0.00000  Uiso   1.00
H1330  H     0.57306   0.88165   0.34823   0.00000  Uiso   1.00
C1331  C     0.60132   0.88957   0.41189   0.00000  Uiso   1.00
H1332  H     0.59793   0.91220   0.44050   0.00000  Uiso   1.00
H1333  H     0.59503   0.85276   0.42024   0.00000  Uiso   1.00
C1334  C     0.64481   0.89286   0.39701   0.00000  Uiso   1.00
H1335  H     0.64752   0.87483   0.36558   0.00000  Uiso   1.00
H1336  H     0.66579   0.87610   0.42040   0.00000  Uiso   1.00
H1337  H     0.65391   0.92993   0.39411   0.00000  Uiso   1.00
O1338  O     0.48997   0.74686   0.11341   0.00000  Uiso   1.00
C1339  C     0.52738   0.72656   0.12711   0.00000  Uiso   1.00
H1340  H     0.52058   0.70202   0.15301   0.00000  Uiso   1.00
H1341  H     0.54903   0.75239   0.14209   0.00000  Uiso   1.00
C1342  C     0.54756   0.69841   0.09142   0.00000  Uiso   1.00
H1343  H     0.55645   0.99697   0.10373   0.00000  Uiso   1.00
H1344  H     0.52589   0.69224   0.06410   0.00000  Uiso   1.00
C1345  C     0.58581   0.72267   0.07637   0.00000  Uiso   1.00
H1346  H     0.57810   0.75663   0.06166   0.00000  Uiso   1.00
H1347  H     0.60110   0.70010   0.05272   0.00000  Uiso   1.00
H1348  H     0.60747   0.72902   0.10362   0.00000  Uiso   1.00
O1349  O     0.37029   0.76298   0.20578   0.00000  Uiso   1.00
C1350  C     0.37718   0.78449   0.16576   0.00000  Uiso   1.00
H1351  H     0.38439   0.75617   0.14275   0.00000  Uiso   1.00
H1352  H     0.40455   0.80715   0.16845   0.00000  Uiso   1.00
C1353  C     0.34040   0.81218   0.14681   0.00000  Uiso   1.00
H1354  H     0.64850   0.78787   0.13799   0.00000  Uiso   1.00
H1355  H     0.66224   0.83766   0.17032   0.00000  Uiso   1.00
C1356  C     0.35121   0.84133   0.10846   0.00000  Uiso   1.00
H1357  H     0.66453   0.87236   0.10698   0.00000  Uiso   1.00
H1358  H     0.34592   0.82118   0.07849   0.00000  Uiso   1.00
H1359  H     0.38313   0.85379   0.11078   0.00000  Uiso   1.00
O1360  O     0.62696   0.91930   0.25461   0.00000  Uiso   1.00
C1361  C     0.61680   0.93330   0.21223   0.00000  Uiso   1.00
H1362  H     0.59263   0.96005   0.21460   0.00000  Uiso   1.00
H1363  H     0.60360   0.90447   0.19188   0.00000  Uiso   1.00
C1364  C     0.65317   0.95435   0.18979   0.00000  Uiso   1.00
H1365  H     0.33829   0.97620   0.21230   0.00000  Uiso   1.00
H1366  H     0.33947   0.92591   0.17779   0.00000  Uiso   1.00
C1367  C     0.63908   0.98448   0.15249   0.00000  Uiso   1.00
H1368  H     0.62118   0.96316   0.12879   0.00000  Uiso   1.00
H1369  H     0.66561   0.99965   0.13674   0.00000  Uiso   1.00
H1370  H     0.62004   0.68024   0.16426   0.00000  Uiso   1.00
O1371  O     0.62763   0.75009   0.23228   0.00000  Uiso   1.00
C1372  C     0.62189   0.72667   0.27105   0.00000  Uiso   1.00
H1373  H     0.60223   0.69621   0.26324   0.00000  Uiso   1.00
H1374  H     0.60668   0.74949   0.29469   0.00000  Uiso   1.00
C1375  C     0.66094   0.70830   0.29235   0.00000  Uiso   1.00
H1376  H     0.34412   0.68601   0.26978   0.00000  Uiso   1.00
H1377  H     0.34778   0.73771   0.30240   0.00000  Uiso   1.00
C1378  C     0.65037   0.68048   0.33170   0.00000  Uiso   1.00
H1379  H     0.62931   0.70074   0.35171   0.00000  Uiso   1.00
H1380  H     0.34479   0.67326   0.35134   0.00000  Uiso   1.00
H1381  H     0.63539   0.98049   0.32194   0.00000  Uiso   1.00
O1382  O     0.37493   0.91721   0.26614   0.00000  Uiso   1.00
C1383  C     0.38544   0.92105   0.31002   0.00000  Uiso   1.00
H1384  H     0.39974   0.88852   0.32259   0.00000  Uiso   1.00
H1385  H     0.35809   0.92866   0.32845   0.00000  Uiso   1.00
C1386  C     0.41582   0.96085   0.31576   0.00000  Uiso   1.00
H1387  H     0.44197   0.95265   0.29642   0.00000  Uiso   1.00
H1388  H     0.40266   0.99429   0.30488   0.00000  Uiso   1.00
C1389  C     0.43160   0.96568   0.36128   0.00000  Uiso   1.00
H1390  H     0.40608   0.97130   0.38302   0.00000  Uiso   1.00
H1391  H     0.45295   0.99559   0.36422   0.00000  Uiso   1.00
H1392  H     0.44854   0.93351   0.36950   0.00000  Uiso   1.00
O1393  O     0.77321   0.87291   0.24999   0.00000  Uiso   1.00
O1394  O     0.89345   0.79375   0.25000   0.00000  Uiso   1.00
O1395  O     0.89345   0.87291   0.25000   0.00000  Uiso   1.00
O1396  O     0.77321   0.79375   0.24999   0.00000  Uiso   1.00
N1397  N     0.83333   0.95069   0.25000   0.00000  Uiso   1.00
N1398  N     0.83333   0.71598   0.25000   0.00000  Uiso   1.00
C1399  C     0.75414   0.83354   0.24953   0.00000  Uiso   1.00
C1400  C     0.91273   0.83339   0.24984   0.00000  Uiso   1.00
O1401  O     0.83333   0.87293   0.18573   0.00000  Uiso   1.00
O1402  O     0.83334   0.79374   0.31427   0.00000  Uiso   1.00
O1403  O     0.83334   0.87293   0.31427   0.00000  Uiso   1.00
O1404  O     0.83333   0.79374   0.18573   0.00000  Uiso   1.00
C1405  C     0.83367   0.83288   0.16491   0.00000  Uiso   1.00
C1406  C     0.83438   0.83353   0.33483   0.00000  Uiso   1.00
Cu1407 Cu    0.83333   0.88022   0.25000   0.00000  Uiso   1.00
Cu1408 Cu    0.83333   0.78645   0.25000   0.00000  Uiso   1.00
C1409  C     0.80653   0.69101   0.22441   0.00000  Uiso   1.00
C1410  C     0.85952   0.97585   0.27587   0.00000  Uiso   1.00
C1411  C     0.85734   0.69176   0.27824   0.00000  Uiso   1.00
C1412  C     0.80528   0.97494   0.22597   0.00000  Uiso   1.00
C1413  C     0.68768   0.79510   0.23415   0.00000  Uiso   1.00
C1414  C     0.97936   0.87635   0.25370   0.00000  Uiso   1.00
C1415  C     0.97966   0.79231   0.24127   0.00000  Uiso   1.00
C1416  C     0.68823   0.87555   0.25859   0.00000  Uiso   1.00
C1417  C     0.86069   0.86390   0.05149   0.00000  Uiso   1.00
C1418  C     0.83849   0.78757   0.44796   0.00000  Uiso   1.00
C1419  C     0.84728   0.87133   0.45215   0.00000  Uiso   1.00
C1420  C     0.82739   0.78946   0.04815   0.00000  Uiso   1.00
C1421  C     0.84515   0.87105   0.09249   0.00000  Uiso   1.00
C1422  C     0.82613   0.79208   0.40467   0.00000  Uiso   1.00
C1423  C     0.84988   0.87150   0.40736   0.00000  Uiso   1.00
C1424  C     0.83063   0.78865   0.09332   0.00000  Uiso   1.00
C1425  C     0.83567   0.83121   0.11670   0.00000  Uiso   1.00
C1426  C     0.83615   0.83294   0.38267   0.00000  Uiso   1.00
C1427  C     0.84539   0.82637   0.02484   0.00000  Uiso   1.00
C1428  C     0.84440   0.82825   0.47500   0.00000  Uiso   1.00
C1429  C     0.95758   0.83377   0.24924   0.00000  Uiso   1.00
C1430  C     0.70962   0.83448   0.24850   0.00000  Uiso   1.00
F1431  F     0.77971   0.71363   0.19850   0.00000  Uiso   1.00
F1432  F     0.88755   0.95349   0.29987   0.00000  Uiso   1.00
F1433  F     0.87781   0.71469   0.31027   0.00000  Uiso   1.00
F1434  F     0.77404   0.95191   0.20593   0.00000  Uiso   1.00
O1435  O     0.88865   0.89617   0.03847   0.00000  Uiso   1.00
C1436  C     0.92628   0.87426   0.03223   0.00000  Uiso   1.00
H1437  H     0.92476   0.85330   0.00203   0.00000  Uiso   1.00
H1438  H     0.93504   0.85112   0.05936   0.00000  Uiso   1.00
C1439  C     0.95854   0.91236   0.02913   0.00000  Uiso   1.00
H1440  H     0.94662   0.94018   0.00798   0.00000  Uiso   1.00
H1441  H     0.96414   0.92883   0.06109   0.00000  Uiso   1.00
C1442  C     0.99852   0.89409   0.01186   0.00000  Uiso   1.00
H1443  H     0.99627   0.85722   0.00057   0.00000  Uiso   1.00
H1444  H     0.68975   0.89686   0.03683   0.00000  Uiso   1.00
H1445  H     0.67398   0.91584   0.48465   0.00000  Uiso   1.00
O1446  O     0.84314   0.74250   0.46217   0.00000  Uiso   1.00
C1447  C     0.88449   0.73291   0.47122   0.00000  Uiso   1.00
H1448  H     0.88529   0.70777   0.49762   0.00000  Uiso   1.00
H1449  H     0.90270   0.76399   0.48209   0.00000  Uiso   1.00
C1450  C     0.90403   0.70889   0.43310   0.00000  Uiso   1.00
H1451  H     0.88685   0.67648   0.42453   0.00000  Uiso   1.00
H1452  H     0.90304   0.73227   0.40506   0.00000  Uiso   1.00
C1453  C     0.94812   0.69637   0.44425   0.00000  Uiso   1.00
H1454  H     0.96713   0.72837   0.44593   0.00000  Uiso   1.00
H1455  H     0.95997   0.67221   0.41974   0.00000  Uiso   1.00
H1456  H     0.95058   0.67873   0.47550   0.00000  Uiso   1.00
O1457  O     0.85210   0.91442   0.47172   0.00000  Uiso   1.00
C1458  C     0.81587   0.92851   0.49062   0.00000  Uiso   1.00
H1459  H     0.82492   0.95459   0.01549   0.00000  Uiso   1.00
H1460  H     0.79964   0.89928   0.00556   0.00000  Uiso   1.00
C1461  C     0.78690   0.95130   0.45872   0.00000  Uiso   1.00
H1462  H     0.80363   0.97732   0.44002   0.00000  Uiso   1.00
H1463  H     0.77374   0.92330   0.43778   0.00000  Uiso   1.00
C1464  C     0.75235   0.97528   0.48132   0.00000  Uiso   1.00
H1465  H     0.73540   0.94965   0.49987   0.00000  Uiso   1.00
H1466  H     0.73125   0.99170   0.45773   0.00000  Uiso   1.00
H1467  H     0.76473   0.66885   0.00374   0.00000  Uiso   1.00
O1468  O     0.80764   0.75249   0.02828   0.00000  Uiso   1.00
C1469  C     0.76730   0.76508   0.01751   0.00000  Uiso   1.00
H1470  H     0.75873   0.74510   0.48834   0.00000  Uiso   1.00
H1471  H     0.76321   0.80273   0.00976   0.00000  Uiso   1.00
C1472  C     0.73919   0.75101   0.05287   0.00000  Uiso   1.00
H1473  H     0.75088   0.71915   0.06840   0.00000  Uiso   1.00
H1474  H     0.73963   0.77924   0.07729   0.00000  Uiso   1.00
C1475  C     0.69593   0.74174   0.03576   0.00000  Uiso   1.00
H1476  H     0.68421   0.77207   0.01752   0.00000  Uiso   1.00
H1477  H     0.67593   0.73516   0.06291   0.00000  Uiso   1.00
H1478  H     0.69508   0.71049   0.01439   0.00000  Uiso   1.00
O1479  O     0.84611   0.91623   0.10905   0.00000  Uiso   1.00
C1480  C     0.80721   0.93110   0.12221   0.00000  Uiso   1.00
H1481  H     0.81316   0.95970   0.14546   0.00000  Uiso   1.00
H1482  H     0.78898   0.90345   0.13698   0.00000  Uiso   1.00
C1483  C     0.78006   0.95120   0.08695   0.00000  Uiso   1.00
H1484  H     0.79534   0.98131   0.07252   0.00000  Uiso   1.00
H1485  H     0.77283   0.92330   0.06331   0.00000  Uiso   1.00
C1486  C     0.73978   0.96765   0.10467   0.00000  Uiso   1.00
H1487  H     0.72453   0.93886   0.12126   0.00000  Uiso   1.00
H1488  H     0.71925   0.97906   0.07804   0.00000  Uiso   1.00
H1489  H     0.74486   0.99722   0.12755   0.00000  Uiso   1.00
O1490  O     0.80749   0.75405   0.38402   0.00000  Uiso   1.00
C1491  C     0.76725   0.76564   0.37005   0.00000  Uiso   1.00
H1492  H     0.75620   0.73799   0.34732   0.00000  Uiso   1.00
H1493  H     0.76560   0.79867   0.35200   0.00000  Uiso   1.00
C1494  C     0.73830   0.76841   0.40728   0.00000  Uiso   1.00
H1495  H     0.73564   0.73337   0.42151   0.00000  Uiso   1.00
H1496  H     0.75030   0.79396   0.43148   0.00000  Uiso   1.00
C1497  C     0.69626   0.78493   0.39301   0.00000  Uiso   1.00
H1498  H     0.69853   0.81696   0.37376   0.00000  Uiso   1.00
H1499  H     0.67807   0.79248   0.42155   0.00000  Uiso   1.00
H1500  H     0.68047   0.75756   0.37379   0.00000  Uiso   1.00
O1501  O     0.86413   0.91166   0.38891   0.00000  Uiso   1.00
C1502  C     0.90486   0.90561   0.37639   0.00000  Uiso   1.00
H1503  H     0.91581   0.94037   0.36679   0.00000  Uiso   1.00
H1504  H     0.90639   0.88165   0.34823   0.00000  Uiso   1.00
C1505  C     0.93466   0.88957   0.41189   0.00000  Uiso   1.00
H1506  H     0.93127   0.91220   0.44050   0.00000  Uiso   1.00
H1507  H     0.92837   0.85276   0.42024   0.00000  Uiso   1.00
C1508  C     0.97815   0.89286   0.39701   0.00000  Uiso   1.00
H1509  H     0.98085   0.87483   0.36558   0.00000  Uiso   1.00
H1510  H     0.99912   0.87610   0.42040   0.00000  Uiso   1.00
H1511  H     0.98724   0.92993   0.39411   0.00000  Uiso   1.00
O1512  O     0.82330   0.74686   0.11341   0.00000  Uiso   1.00
C1513  C     0.86072   0.72656   0.12711   0.00000  Uiso   1.00
H1514  H     0.85392   0.70202   0.15301   0.00000  Uiso   1.00
H1515  H     0.88236   0.75239   0.14209   0.00000  Uiso   1.00
C1516  C     0.88090   0.69841   0.09142   0.00000  Uiso   1.00
H1517  H     0.88979   0.99697   0.10373   0.00000  Uiso   1.00
H1518  H     0.85923   0.69224   0.06410   0.00000  Uiso   1.00
C1519  C     0.91914   0.72267   0.07637   0.00000  Uiso   1.00
H1520  H     0.91144   0.75663   0.06166   0.00000  Uiso   1.00
H1521  H     0.93444   0.70010   0.05272   0.00000  Uiso   1.00
H1522  H     0.94080   0.72902   0.10362   0.00000  Uiso   1.00
O1523  O     0.70362   0.76298   0.20578   0.00000  Uiso   1.00
C1524  C     0.71052   0.78449   0.16576   0.00000  Uiso   1.00
H1525  H     0.71772   0.75617   0.14275   0.00000  Uiso   1.00
H1526  H     0.73788   0.80715   0.16845   0.00000  Uiso   1.00
C1527  C     0.67373   0.81218   0.14681   0.00000  Uiso   1.00
H1528  H     0.98183   0.78787   0.13799   0.00000  Uiso   1.00
H1529  H     0.99557   0.83766   0.17032   0.00000  Uiso   1.00
C1530  C     0.68455   0.84133   0.10846   0.00000  Uiso   1.00
H1531  H     0.99786   0.87236   0.10698   0.00000  Uiso   1.00
H1532  H     0.67925   0.82118   0.07849   0.00000  Uiso   1.00
H1533  H     0.71647   0.85379   0.11078   0.00000  Uiso   1.00
O1534  O     0.96029   0.91930   0.25461   0.00000  Uiso   1.00
C1535  C     0.95014   0.93330   0.21223   0.00000  Uiso   1.00
H1536  H     0.92596   0.96005   0.21460   0.00000  Uiso   1.00
H1537  H     0.93693   0.90447   0.19188   0.00000  Uiso   1.00
C1538  C     0.98651   0.95435   0.18979   0.00000  Uiso   1.00
H1539  H     0.67163   0.97620   0.21230   0.00000  Uiso   1.00
H1540  H     0.67281   0.92591   0.17779   0.00000  Uiso   1.00
C1541  C     0.97241   0.98448   0.15249   0.00000  Uiso   1.00
H1542  H     0.95452   0.96316   0.12879   0.00000  Uiso   1.00
H1543  H     0.99894   0.99965   0.13674   0.00000  Uiso   1.00
H1544  H     0.95338   0.68024   0.16426   0.00000  Uiso   1.00
O1545  O     0.96096   0.75009   0.23228   0.00000  Uiso   1.00
C1546  C     0.95522   0.72667   0.27105   0.00000  Uiso   1.00
H1547  H     0.93556   0.69621   0.26324   0.00000  Uiso   1.00
H1548  H     0.94001   0.74949   0.29469   0.00000  Uiso   1.00
C1549  C     0.99427   0.70830   0.29235   0.00000  Uiso   1.00
H1550  H     0.67746   0.68601   0.26978   0.00000  Uiso   1.00
H1551  H     0.68111   0.73771   0.30240   0.00000  Uiso   1.00
C1552  C     0.98370   0.68048   0.33170   0.00000  Uiso   1.00
H1553  H     0.96265   0.70074   0.35171   0.00000  Uiso   1.00
H1554  H     0.67812   0.67326   0.35134   0.00000  Uiso   1.00
H1555  H     0.96872   0.98049   0.32194   0.00000  Uiso   1.00
O1556  O     0.70827   0.91721   0.26614   0.00000  Uiso   1.00
C1557  C     0.71878   0.92105   0.31002   0.00000  Uiso   1.00
H1558  H     0.73307   0.88852   0.32259   0.00000  Uiso   1.00
H1559  H     0.69143   0.92866   0.32845   0.00000  Uiso   1.00
C1560  C     0.74915   0.96085   0.31576   0.00000  Uiso   1.00
H1561  H     0.77530   0.95265   0.29642   0.00000  Uiso   1.00
H1562  H     0.73599   0.99429   0.30488   0.00000  Uiso   1.00
C1563  C     0.76494   0.96568   0.36128   0.00000  Uiso   1.00
H1564  H     0.73942   0.97130   0.38302   0.00000  Uiso   1.00
H1565  H     0.78628   0.99559   0.36422   0.00000  Uiso   1.00
H1566  H     0.78188   0.93351   0.36950   0.00000  Uiso   1.00
O1567  O     0.10655   0.20625   0.74999   0.00000  Uiso   1.00
O1568  O     0.22679   0.12709   0.75000   0.00000  Uiso   1.00
O1569  O     0.22679   0.20625   0.75000   0.00000  Uiso   1.00
O1570  O     0.10655   0.12709   0.74999   0.00000  Uiso   1.00
N1571  N     0.16667   0.28402   0.75000   0.00000  Uiso   1.00
N1572  N     0.16667   0.04931   0.75000   0.00000  Uiso   1.00
C1573  C     0.08747   0.16688   0.74953   0.00000  Uiso   1.00
C1574  C     0.24606   0.16672   0.74984   0.00000  Uiso   1.00
O1575  O     0.16666   0.20626   0.68573   0.00000  Uiso   1.00
O1576  O     0.16667   0.12707   0.81427   0.00000  Uiso   1.00
O1577  O     0.16667   0.20626   0.81427   0.00000  Uiso   1.00
O1578  O     0.16666   0.12707   0.68573   0.00000  Uiso   1.00
C1579  C     0.16700   0.16622   0.66491   0.00000  Uiso   1.00
C1580  C     0.16771   0.16686   0.83483   0.00000  Uiso   1.00
Cu1581 Cu    0.16667   0.21355   0.75000   0.00000  Uiso   1.00
Cu1582 Cu    0.16667   0.11978   0.75000   0.00000  Uiso   1.00
C1583  C     0.13987   0.02434   0.72441   0.00000  Uiso   1.00
C1584  C     0.19285   0.30918   0.77587   0.00000  Uiso   1.00
C1585  C     0.19068   0.02510   0.77824   0.00000  Uiso   1.00
C1586  C     0.13861   0.30827   0.72597   0.00000  Uiso   1.00
C1587  C     0.02102   0.12843   0.73415   0.00000  Uiso   1.00
C1588  C     0.31270   0.20968   0.75370   0.00000  Uiso   1.00
C1589  C     0.31299   0.12564   0.74127   0.00000  Uiso   1.00
C1590  C     0.02156   0.20888   0.75859   0.00000  Uiso   1.00
C1591  C     0.19402   0.19723   0.55149   0.00000  Uiso   1.00
C1592  C     0.17183   0.12091   0.94796   0.00000  Uiso   1.00
C1593  C     0.18062   0.20467   0.95215   0.00000  Uiso   1.00
C1594  C     0.16072   0.12279   0.54815   0.00000  Uiso   1.00
C1595  C     0.17849   0.20439   0.59249   0.00000  Uiso   1.00
C1596  C     0.15946   0.12541   0.90467   0.00000  Uiso   1.00
C1597  C     0.18321   0.20484   0.90736   0.00000  Uiso   1.00
C1598  C     0.16396   0.12199   0.59332   0.00000  Uiso   1.00
C1599  C     0.16901   0.16455   0.61670   0.00000  Uiso   1.00
C1600  C     0.16948   0.16627   0.88267   0.00000  Uiso   1.00
C1601  C     0.17872   0.15970   0.52484   0.00000  Uiso   1.00
C1602  C     0.17773   0.16159   0.97500   0.00000  Uiso   1.00
C1603  C     0.29091   0.16710   0.74924   0.00000  Uiso   1.00
C1604  C     0.04295   0.16782   0.74850   0.00000  Uiso   1.00
F1605  F     0.11304   0.04696   0.69850   0.00000  Uiso   1.00
F1606  F     0.22088   0.28682   0.79987   0.00000  Uiso   1.00
F1607  F     0.21114   0.04803   0.81027   0.00000  Uiso   1.00
F1608  F     0.10738   0.28524   0.70593   0.00000  Uiso   1.00
O1609  O     0.22198   0.22950   0.53847   0.00000  Uiso   1.00
C1610  C     0.25961   0.20759   0.53223   0.00000  Uiso   1.00
H1611  H     0.25809   0.18663   0.50203   0.00000  Uiso   1.00
H1612  H     0.26837   0.18445   0.55936   0.00000  Uiso   1.00
C1613  C     0.29188   0.24569   0.52913   0.00000  Uiso   1.00
H1614  H     0.27996   0.27352   0.50798   0.00000  Uiso   1.00
H1615  H     0.29747   0.26216   0.56109   0.00000  Uiso   1.00
C1616  C     0.33185   0.22743   0.51186   0.00000  Uiso   1.00
H1617  H     0.32960   0.19056   0.50057   0.00000  Uiso   1.00
H1618  H     0.02309   0.23020   0.53683   0.00000  Uiso   1.00
H1619  H     0.00731   0.24918   0.98465   0.00000  Uiso   1.00
O1620  O     0.17647   0.07583   0.96217   0.00000  Uiso   1.00
C1621  C     0.21782   0.06624   0.97122   0.00000  Uiso   1.00
H1622  H     0.21862   0.04110   0.99762   0.00000  Uiso   1.00
H1623  H     0.23603   0.09732   0.98209   0.00000  Uiso   1.00
C1624  C     0.23737   0.04222   0.93310   0.00000  Uiso   1.00
H1625  H     0.22018   0.00982   0.92453   0.00000  Uiso   1.00
H1626  H     0.23637   0.06560   0.90506   0.00000  Uiso   1.00
C1627  C     0.28145   0.02971   0.94425   0.00000  Uiso   1.00
H1628  H     0.30046   0.06171   0.94593   0.00000  Uiso   1.00
H1629  H     0.29331   0.00554   0.91974   0.00000  Uiso   1.00
H1630  H     0.28391   0.01207   0.97550   0.00000  Uiso   1.00
O1631  O     0.18544   0.24775   0.97172   0.00000  Uiso   1.00
C1632  C     0.14920   0.26185   0.99062   0.00000  Uiso   1.00
H1633  H     0.15826   0.28793   0.51549   0.00000  Uiso   1.00
H1634  H     0.13297   0.23261   0.50556   0.00000  Uiso   1.00
C1635  C     0.12024   0.28463   0.95872   0.00000  Uiso   1.00
H1636  H     0.13696   0.31066   0.94002   0.00000  Uiso   1.00
H1637  H     0.10707   0.25663   0.93778   0.00000  Uiso   1.00
C1638  C     0.08569   0.30861   0.98132   0.00000  Uiso   1.00
H1639  H     0.06873   0.28298   0.99987   0.00000  Uiso   1.00
H1640  H     0.06459   0.32503   0.95773   0.00000  Uiso   1.00
H1641  H     0.09807   0.00218   0.50374   0.00000  Uiso   1.00
O1642  O     0.14098   0.08582   0.52828   0.00000  Uiso   1.00
C1643  C     0.10063   0.09841   0.51751   0.00000  Uiso   1.00
H1644  H     0.09207   0.07843   0.98834   0.00000  Uiso   1.00
H1645  H     0.09654   0.13606   0.50976   0.00000  Uiso   1.00
C1646  C     0.07252   0.08434   0.55287   0.00000  Uiso   1.00
H1647  H     0.08421   0.05248   0.56840   0.00000  Uiso   1.00
H1648  H     0.07297   0.11258   0.57729   0.00000  Uiso   1.00
C1649  C     0.02926   0.07507   0.53576   0.00000  Uiso   1.00
H1650  H     0.01754   0.10540   0.51752   0.00000  Uiso   1.00
H1651  H     0.00926   0.06849   0.56291   0.00000  Uiso   1.00
H1652  H     0.02841   0.04382   0.51439   0.00000  Uiso   1.00
O1653  O     0.17945   0.24956   0.60905   0.00000  Uiso   1.00
C1654  C     0.14054   0.26444   0.62221   0.00000  Uiso   1.00
H1655  H     0.14649   0.29303   0.64546   0.00000  Uiso   1.00
H1656  H     0.12231   0.23678   0.63698   0.00000  Uiso   1.00
C1657  C     0.11339   0.28454   0.58695   0.00000  Uiso   1.00
H1658  H     0.12867   0.31464   0.57252   0.00000  Uiso   1.00
H1659  H     0.10616   0.25663   0.56331   0.00000  Uiso   1.00
C1660  C     0.07311   0.30098   0.60467   0.00000  Uiso   1.00
H1661  H     0.05786   0.27219   0.62126   0.00000  Uiso   1.00
H1662  H     0.05258   0.31239   0.57804   0.00000  Uiso   1.00
H1663  H     0.07819   0.33056   0.62755   0.00000  Uiso   1.00
O1664  O     0.14083   0.08738   0.88402   0.00000  Uiso   1.00
C1665  C     0.10058   0.09897   0.87005   0.00000  Uiso   1.00
H1666  H     0.08953   0.07133   0.84732   0.00000  Uiso   1.00
H1667  H     0.09893   0.13201   0.85200   0.00000  Uiso   1.00
C1668  C     0.07163   0.10175   0.90728   0.00000  Uiso   1.00
H1669  H     0.06897   0.06671   0.92151   0.00000  Uiso   1.00
H1670  H     0.08363   0.12729   0.93148   0.00000  Uiso   1.00
C1671  C     0.02959   0.11827   0.89301   0.00000  Uiso   1.00
H1672  H     0.03186   0.15029   0.87376   0.00000  Uiso   1.00
H1673  H     0.01140   0.12582   0.92155   0.00000  Uiso   1.00
H1674  H     0.01381   0.09090   0.87379   0.00000  Uiso   1.00
O1675  O     0.19746   0.24499   0.88891   0.00000  Uiso   1.00
C1676  C     0.23819   0.23895   0.87639   0.00000  Uiso   1.00
H1677  H     0.24914   0.27371   0.86679   0.00000  Uiso   1.00
H1678  H     0.23972   0.21499   0.84823   0.00000  Uiso   1.00
C1679  C     0.26799   0.22291   0.91189   0.00000  Uiso   1.00
H1680  H     0.26460   0.24553   0.94050   0.00000  Uiso   1.00
H1681  H     0.26170   0.18610   0.92024   0.00000  Uiso   1.00
C1682  C     0.31148   0.22619   0.89701   0.00000  Uiso   1.00
H1683  H     0.31419   0.20816   0.86558   0.00000  Uiso   1.00
H1684  H     0.33245   0.20943   0.92040   0.00000  Uiso   1.00
H1685  H     0.32057   0.26326   0.89411   0.00000  Uiso   1.00
O1686  O     0.15664   0.08020   0.61341   0.00000  Uiso   1.00
C1687  C     0.19405   0.05989   0.62711   0.00000  Uiso   1.00
H1688  H     0.18725   0.03535   0.65301   0.00000  Uiso   1.00
H1689  H     0.21570   0.08573   0.64209   0.00000  Uiso   1.00
C1690  C     0.21423   0.03175   0.59142   0.00000  Uiso   1.00
H1691  H     0.22312   0.33031   0.60373   0.00000  Uiso   1.00
H1692  H     0.19256   0.02557   0.56410   0.00000  Uiso   1.00
C1693  C     0.25247   0.05600   0.57637   0.00000  Uiso   1.00
H1694  H     0.24477   0.08996   0.56166   0.00000  Uiso   1.00
H1695  H     0.26777   0.03343   0.55272   0.00000  Uiso   1.00
H1696  H     0.27413   0.06236   0.60362   0.00000  Uiso   1.00
O1697  O     0.03696   0.09632   0.70578   0.00000  Uiso   1.00
C1698  C     0.04385   0.11782   0.66576   0.00000  Uiso   1.00
H1699  H     0.05105   0.08951   0.64275   0.00000  Uiso   1.00
H1700  H     0.07121   0.14049   0.66845   0.00000  Uiso   1.00
C1701  C     0.00706   0.14551   0.64681   0.00000  Uiso   1.00
H1702  H     0.31516   0.12120   0.63799   0.00000  Uiso   1.00
H1703  H     0.32890   0.17099   0.67032   0.00000  Uiso   1.00
C1704  C     0.01788   0.17466   0.60846   0.00000  Uiso   1.00
H1705  H     0.33120   0.20569   0.60698   0.00000  Uiso   1.00
H1706  H     0.01258   0.15452   0.57849   0.00000  Uiso   1.00
H1707  H     0.04980   0.18712   0.61078   0.00000  Uiso   1.00
O1708  O     0.29363   0.25264   0.75461   0.00000  Uiso   1.00
C1709  C     0.28347   0.26664   0.71223   0.00000  Uiso   1.00
H1710  H     0.25930   0.29338   0.71460   0.00000  Uiso   1.00
H1711  H     0.27026   0.23780   0.69188   0.00000  Uiso   1.00
C1712  C     0.31984   0.28768   0.68979   0.00000  Uiso   1.00
H1713  H     0.00496   0.30954   0.71230   0.00000  Uiso   1.00
H1714  H     0.00614   0.25925   0.67779   0.00000  Uiso   1.00
C1715  C     0.30575   0.31781   0.65249   0.00000  Uiso   1.00
H1716  H     0.28785   0.29649   0.62879   0.00000  Uiso   1.00
H1717  H     0.33228   0.33299   0.63674   0.00000  Uiso   1.00
H1718  H     0.28671   0.01357   0.66426   0.00000  Uiso   1.00
O1719  O     0.29429   0.08342   0.73228   0.00000  Uiso   1.00
C1720  C     0.28855   0.06001   0.77105   0.00000  Uiso   1.00
H1721  H     0.26890   0.02955   0.76324   0.00000  Uiso   1.00
H1722  H     0.27334   0.08282   0.79469   0.00000  Uiso   1.00
C1723  C     0.32760   0.04164   0.79235   0.00000  Uiso   1.00
H1724  H     0.01079   0.01934   0.76978   0.00000  Uiso   1.00
H1725  H     0.01445   0.07105   0.80240   0.00000  Uiso   1.00
C1726  C     0.31704   0.01382   0.83170   0.00000  Uiso   1.00
H1727  H     0.29598   0.03408   0.85171   0.00000  Uiso   1.00
H1728  H     0.01146   0.00660   0.85134   0.00000  Uiso   1.00
H1729  H     0.30206   0.31382   0.82194   0.00000  Uiso   1.00
O1730  O     0.04160   0.25054   0.76614   0.00000  Uiso   1.00
C1731  C     0.05211   0.25439   0.81002   0.00000  Uiso   1.00
H1732  H     0.06641   0.22185   0.82259   0.00000  Uiso   1.00
H1733  H     0.02476   0.26200   0.82845   0.00000  Uiso   1.00
C1734  C     0.08249   0.29418   0.81576   0.00000  Uiso   1.00
H1735  H     0.10863   0.28598   0.79642   0.00000  Uiso   1.00
H1736  H     0.06932   0.32763   0.80488   0.00000  Uiso   1.00
C1737  C     0.09827   0.29902   0.86128   0.00000  Uiso   1.00
H1738  H     0.07275   0.30463   0.88302   0.00000  Uiso   1.00
H1739  H     0.11962   0.32893   0.86422   0.00000  Uiso   1.00
H1740  H     0.11521   0.26684   0.86950   0.00000  Uiso   1.00
O1741  O     0.43988   0.20625   0.74999   0.00000  Uiso   1.00
O1742  O     0.56012   0.12709   0.75000   0.00000  Uiso   1.00
O1743  O     0.56012   0.20625   0.75000   0.00000  Uiso   1.00
O1744  O     0.43988   0.12709   0.74999   0.00000  Uiso   1.00
N1745  N     0.50000   0.28402   0.75000   0.00000  Uiso   1.00
N1746  N     0.50000   0.04931   0.75000   0.00000  Uiso   1.00
C1747  C     0.42080   0.16688   0.74953   0.00000  Uiso   1.00
C1748  C     0.57939   0.16672   0.74984   0.00000  Uiso   1.00
O1749  O     0.50000   0.20626   0.68573   0.00000  Uiso   1.00
O1750  O     0.50000   0.12707   0.81427   0.00000  Uiso   1.00
O1751  O     0.50000   0.20626   0.81427   0.00000  Uiso   1.00
O1752  O     0.50000   0.12707   0.68573   0.00000  Uiso   1.00
C1753  C     0.50033   0.16622   0.66491   0.00000  Uiso   1.00
C1754  C     0.50104   0.16686   0.83483   0.00000  Uiso   1.00
Cu1755 Cu    0.50000   0.21355   0.75000   0.00000  Uiso   1.00
Cu1756 Cu    0.50000   0.11978   0.75000   0.00000  Uiso   1.00
C1757  C     0.47320   0.02434   0.72441   0.00000  Uiso   1.00
C1758  C     0.52618   0.30918   0.77587   0.00000  Uiso   1.00
C1759  C     0.52401   0.02510   0.77824   0.00000  Uiso   1.00
C1760  C     0.47195   0.30827   0.72597   0.00000  Uiso   1.00
C1761  C     0.35435   0.12843   0.73415   0.00000  Uiso   1.00
C1762  C     0.64603   0.20968   0.75370   0.00000  Uiso   1.00
C1763  C     0.64632   0.12564   0.74127   0.00000  Uiso   1.00
C1764  C     0.35489   0.20888   0.75859   0.00000  Uiso   1.00
C1765  C     0.52736   0.19723   0.55149   0.00000  Uiso   1.00
C1766  C     0.50516   0.12091   0.94796   0.00000  Uiso   1.00
C1767  C     0.51395   0.20467   0.95215   0.00000  Uiso   1.00
C1768  C     0.49405   0.12279   0.54815   0.00000  Uiso   1.00
C1769  C     0.51182   0.20439   0.59249   0.00000  Uiso   1.00
C1770  C     0.49280   0.12541   0.90467   0.00000  Uiso   1.00
C1771  C     0.51654   0.20484   0.90736   0.00000  Uiso   1.00
C1772  C     0.49730   0.12199   0.59332   0.00000  Uiso   1.00
C1773  C     0.50234   0.16455   0.61670   0.00000  Uiso   1.00
C1774  C     0.50282   0.16627   0.88267   0.00000  Uiso   1.00
C1775  C     0.51206   0.15970   0.52484   0.00000  Uiso   1.00
C1776  C     0.51107   0.16159   0.97500   0.00000  Uiso   1.00
C1777  C     0.62424   0.16710   0.74924   0.00000  Uiso   1.00
C1778  C     0.37629   0.16782   0.74850   0.00000  Uiso   1.00
F1779  F     0.44638   0.04696   0.69850   0.00000  Uiso   1.00
F1780  F     0.55421   0.28682   0.79987   0.00000  Uiso   1.00
F1781  F     0.54448   0.04803   0.81027   0.00000  Uiso   1.00
F1782  F     0.44071   0.28524   0.70593   0.00000  Uiso   1.00
O1783  O     0.55532   0.22950   0.53847   0.00000  Uiso   1.00
C1784  C     0.59294   0.20759   0.53223   0.00000  Uiso   1.00
H1785  H     0.59142   0.18663   0.50203   0.00000  Uiso   1.00
H1786  H     0.60171   0.18445   0.55936   0.00000  Uiso   1.00
C1787  C     0.62521   0.24569   0.52913   0.00000  Uiso   1.00
H1788  H     0.61329   0.27352   0.50798   0.00000  Uiso   1.00
H1789  H     0.63081   0.26216   0.56109   0.00000  Uiso   1.00
C1790  C     0.66518   0.22743   0.51186   0.00000  Uiso   1.00
H1791  H     0.66293   0.19056   0.50057   0.00000  Uiso   1.00
H1792  H     0.35642   0.23020   0.53683   0.00000  Uiso   1.00
H1793  H     0.34065   0.24918   0.98465   0.00000  Uiso   1.00
O1794  O     0.50980   0.07583   0.96217   0.00000  Uiso   1.00
C1795  C     0.55116   0.06624   0.97122   0.00000  Uiso   1.00
H1796  H     0.55196   0.04110   0.99762   0.00000  Uiso   1.00
H1797  H     0.56937   0.09732   0.98209   0.00000  Uiso   1.00
C1798  C     0.57070   0.04222   0.93310   0.00000  Uiso   1.00
H1799  H     0.55351   0.00982   0.92453   0.00000  Uiso   1.00
H1800  H     0.56971   0.06560   0.90506   0.00000  Uiso   1.00
C1801  C     0.61478   0.02971   0.94425   0.00000  Uiso   1.00
H1802  H     0.63380   0.06171   0.94593   0.00000  Uiso   1.00
H1803  H     0.62664   0.00554   0.91974   0.00000  Uiso   1.00
H1804  H     0.61725   0.01207   0.97550   0.00000  Uiso   1.00
O1805  O     0.51877   0.24775   0.97172   0.00000  Uiso   1.00
C1806  C     0.48254   0.26185   0.99062   0.00000  Uiso   1.00
H1807  H     0.49159   0.28793   0.51549   0.00000  Uiso   1.00
H1808  H     0.46631   0.23261   0.50556   0.00000  Uiso   1.00
C1809  C     0.45357   0.28463   0.95872   0.00000  Uiso   1.00
H1810  H     0.47030   0.31066   0.94002   0.00000  Uiso   1.00
H1811  H     0.44041   0.25663   0.93778   0.00000  Uiso   1.00
C1812  C     0.41902   0.30861   0.98132   0.00000  Uiso   1.00
H1813  H     0.40207   0.28298   0.99987   0.00000  Uiso   1.00
H1814  H     0.39792   0.32503   0.95773   0.00000  Uiso   1.00
H1815  H     0.43140   0.00218   0.50374   0.00000  Uiso   1.00
O1816  O     0.47431   0.08582   0.52828   0.00000  Uiso   1.00
C1817  C     0.43396   0.09841   0.51751   0.00000  Uiso   1.00
H1818  H     0.42540   0.07843   0.98834   0.00000  Uiso   1.00
H1819  H     0.42987   0.13606   0.50976   0.00000  Uiso   1.00
C1820  C     0.40585   0.08434   0.55287   0.00000  Uiso   1.00
H1821  H     0.41755   0.05248   0.56840   0.00000  Uiso   1.00
H1822  H     0.40630   0.11258   0.57729   0.00000  Uiso   1.00
C1823  C     0.36259   0.07507   0.53576   0.00000  Uiso   1.00
H1824  H     0.35087   0.10540   0.51752   0.00000  Uiso   1.00
H1825  H     0.34259   0.06849   0.56291   0.00000  Uiso   1.00
H1826  H     0.36175   0.04382   0.51439   0.00000  Uiso   1.00
O1827  O     0.51278   0.24956   0.60905   0.00000  Uiso   1.00
C1828  C     0.47388   0.26444   0.62221   0.00000  Uiso   1.00
H1829  H     0.47983   0.29303   0.64546   0.00000  Uiso   1.00
H1830  H     0.45565   0.23678   0.63698   0.00000  Uiso   1.00
C1831  C     0.44672   0.28454   0.58695   0.00000  Uiso   1.00
H1832  H     0.46201   0.31464   0.57252   0.00000  Uiso   1.00
H1833  H     0.43950   0.25663   0.56331   0.00000  Uiso   1.00
C1834  C     0.40645   0.30098   0.60467   0.00000  Uiso   1.00
H1835  H     0.39120   0.27219   0.62126   0.00000  Uiso   1.00
H1836  H     0.38591   0.31239   0.57804   0.00000  Uiso   1.00
H1837  H     0.41153   0.33056   0.62755   0.00000  Uiso   1.00
O1838  O     0.47416   0.08738   0.88402   0.00000  Uiso   1.00
C1839  C     0.43391   0.09897   0.87005   0.00000  Uiso   1.00
H1840  H     0.42286   0.07133   0.84732   0.00000  Uiso   1.00
H1841  H     0.43226   0.13201   0.85200   0.00000  Uiso   1.00
C1842  C     0.40496   0.10175   0.90728   0.00000  Uiso   1.00
H1843  H     0.40231   0.06671   0.92151   0.00000  Uiso   1.00
H1844  H     0.41697   0.12729   0.93148   0.00000  Uiso   1.00
C1845  C     0.36293   0.11827   0.89301   0.00000  Uiso   1.00
H1846  H     0.36520   0.15029   0.87376   0.00000  Uiso   1.00
H1847  H     0.34473   0.12582   0.92155   0.00000  Uiso   1.00
H1848  H     0.34714   0.09090   0.87379   0.00000  Uiso   1.00
O1849  O     0.53079   0.24499   0.88891   0.00000  Uiso   1.00
C1850  C     0.57152   0.23895   0.87639   0.00000  Uiso   1.00
H1851  H     0.58247   0.27371   0.86679   0.00000  Uiso   1.00
H1852  H     0.57306   0.21499   0.84823   0.00000  Uiso   1.00
C1853  C     0.60132   0.22291   0.91189   0.00000  Uiso   1.00
H1854  H     0.59793   0.24553   0.94050   0.00000  Uiso   1.00
H1855  H     0.59503   0.18610   0.92024   0.00000  Uiso   1.00
C1856  C     0.64481   0.22619   0.89701   0.00000  Uiso   1.00
H1857  H     0.64752   0.20816   0.86558   0.00000  Uiso   1.00
H1858  H     0.66579   0.20943   0.92040   0.00000  Uiso   1.00
H1859  H     0.65391   0.26326   0.89411   0.00000  Uiso   1.00
O1860  O     0.48997   0.08020   0.61341   0.00000  Uiso   1.00
C1861  C     0.52738   0.05989   0.62711   0.00000  Uiso   1.00
H1862  H     0.52058   0.03535   0.65301   0.00000  Uiso   1.00
H1863  H     0.54903   0.08573   0.64209   0.00000  Uiso   1.00
C1864  C     0.54756   0.03175   0.59142   0.00000  Uiso   1.00
H1865  H     0.55645   0.33031   0.60373   0.00000  Uiso   1.00
H1866  H     0.52589   0.02557   0.56410   0.00000  Uiso   1.00
C1867  C     0.58581   0.05600   0.57637   0.00000  Uiso   1.00
H1868  H     0.57810   0.08996   0.56166   0.00000  Uiso   1.00
H1869  H     0.60110   0.03343   0.55272   0.00000  Uiso   1.00
H1870  H     0.60747   0.06236   0.60362   0.00000  Uiso   1.00
O1871  O     0.37029   0.09632   0.70578   0.00000  Uiso   1.00
C1872  C     0.37718   0.11782   0.66576   0.00000  Uiso   1.00
H1873  H     0.38439   0.08951   0.64275   0.00000  Uiso   1.00
H1874  H     0.40455   0.14049   0.66845   0.00000  Uiso   1.00
C1875  C     0.34040   0.14551   0.64681   0.00000  Uiso   1.00
H1876  H     0.64850   0.12120   0.63799   0.00000  Uiso   1.00
H1877  H     0.66224   0.17099   0.67032   0.00000  Uiso   1.00
C1878  C     0.35121   0.17466   0.60846   0.00000  Uiso   1.00
H1879  H     0.66453   0.20569   0.60698   0.00000  Uiso   1.00
H1880  H     0.34592   0.15452   0.57849   0.00000  Uiso   1.00
H1881  H     0.38313   0.18712   0.61078   0.00000  Uiso   1.00
O1882  O     0.62696   0.25264   0.75461   0.00000  Uiso   1.00
C1883  C     0.61680   0.26664   0.71223   0.00000  Uiso   1.00
H1884  H     0.59263   0.29338   0.71460   0.00000  Uiso   1.00
H1885  H     0.60360   0.23780   0.69188   0.00000  Uiso   1.00
C1886  C     0.65317   0.28768   0.68979   0.00000  Uiso   1.00
H1887  H     0.33829   0.30954   0.71230   0.00000  Uiso   1.00
H1888  H     0.33947   0.25925   0.67779   0.00000  Uiso   1.00
C1889  C     0.63908   0.31781   0.65249   0.00000  Uiso   1.00
H1890  H     0.62118   0.29649   0.62879   0.00000  Uiso   1.00
H1891  H     0.66561   0.33299   0.63674   0.00000  Uiso   1.00
H1892  H     0.62004   0.01357   0.66426   0.00000  Uiso   1.00
O1893  O     0.62763   0.08342   0.73228   0.00000  Uiso   1.00
C1894  C     0.62189   0.06001   0.77105   0.00000  Uiso   1.00
H1895  H     0.60223   0.02955   0.76324   0.00000  Uiso   1.00
H1896  H     0.60668   0.08282   0.79469   0.00000  Uiso   1.00
C1897  C     0.66094   0.04164   0.79235   0.00000  Uiso   1.00
H1898  H     0.34412   0.01934   0.76978   0.00000  Uiso   1.00
H1899  H     0.34778   0.07105   0.80240   0.00000  Uiso   1.00
C1900  C     0.65037   0.01382   0.83170   0.00000  Uiso   1.00
H1901  H     0.62931   0.03408   0.85171   0.00000  Uiso   1.00
H1902  H     0.34479   0.00660   0.85134   0.00000  Uiso   1.00
H1903  H     0.63539   0.31382   0.82194   0.00000  Uiso   1.00
O1904  O     0.37493   0.25054   0.76614   0.00000  Uiso   1.00
C1905  C     0.38544   0.25439   0.81002   0.00000  Uiso   1.00
H1906  H     0.39974   0.22185   0.82259   0.00000  Uiso   1.00
H1907  H     0.35809   0.26200   0.82845   0.00000  Uiso   1.00
C1908  C     0.41582   0.29418   0.81576   0.00000  Uiso   1.00
H1909  H     0.44197   0.28598   0.79642   0.00000  Uiso   1.00
H1910  H     0.40266   0.32763   0.80488   0.00000  Uiso   1.00
C1911  C     0.43160   0.29902   0.86128   0.00000  Uiso   1.00
H1912  H     0.40608   0.30463   0.88302   0.00000  Uiso   1.00
H1913  H     0.45295   0.32893   0.86422   0.00000  Uiso   1.00
H1914  H     0.44854   0.26684   0.86950   0.00000  Uiso   1.00
O1915  O     0.77321   0.20625   0.74999   0.00000  Uiso   1.00
O1916  O     0.89345   0.12709   0.75000   0.00000  Uiso   1.00
O1917  O     0.89345   0.20625   0.75000   0.00000  Uiso   1.00
O1918  O     0.77321   0.12709   0.74999   0.00000  Uiso   1.00
N1919  N     0.83333   0.28402   0.75000   0.00000  Uiso   1.00
N1920  N     0.83333   0.04931   0.75000   0.00000  Uiso   1.00
C1921  C     0.75414   0.16688   0.74953   0.00000  Uiso   1.00
C1922  C     0.91273   0.16672   0.74984   0.00000  Uiso   1.00
O1923  O     0.83333   0.20626   0.68573   0.00000  Uiso   1.00
O1924  O     0.83334   0.12707   0.81427   0.00000  Uiso   1.00
O1925  O     0.83334   0.20626   0.81427   0.00000  Uiso   1.00
O1926  O     0.83333   0.12707   0.68573   0.00000  Uiso   1.00
C1927  C     0.83367   0.16622   0.66491   0.00000  Uiso   1.00
C1928  C     0.83438   0.16686   0.83483   0.00000  Uiso   1.00
Cu1929 Cu    0.83333   0.21355   0.75000   0.00000  Uiso   1.00
Cu1930 Cu    0.83333   0.11978   0.75000   0.00000  Uiso   1.00
C1931  C     0.80653   0.02434   0.72441   0.00000  Uiso   1.00
C1932  C     0.85952   0.30918   0.77587   0.00000  Uiso   1.00
C1933  C     0.85734   0.02510   0.77824   0.00000  Uiso   1.00
C1934  C     0.80528   0.30827   0.72597   0.00000  Uiso   1.00
C1935  C     0.68768   0.12843   0.73415   0.00000  Uiso   1.00
C1936  C     0.97936   0.20968   0.75370   0.00000  Uiso   1.00
C1937  C     0.97966   0.12564   0.74127   0.00000  Uiso   1.00
C1938  C     0.68823   0.20888   0.75859   0.00000  Uiso   1.00
C1939  C     0.86069   0.19723   0.55149   0.00000  Uiso   1.00
C1940  C     0.83849   0.12091   0.94796   0.00000  Uiso   1.00
C1941  C     0.84728   0.20467   0.95215   0.00000  Uiso   1.00
C1942  C     0.82739   0.12279   0.54815   0.00000  Uiso   1.00
C1943  C     0.84515   0.20439   0.59249   0.00000  Uiso   1.00
C1944  C     0.82613   0.12541   0.90467   0.00000  Uiso   1.00
C1945  C     0.84988   0.20484   0.90736   0.00000  Uiso   1.00
C1946  C     0.83063   0.12199   0.59332   0.00000  Uiso   1.00
C1947  C     0.83567   0.16455   0.61670   0.00000  Uiso   1.00
C1948  C     0.83615   0.16627   0.88267   0.00000  Uiso   1.00
C1949  C     0.84539   0.15970   0.52484   0.00000  Uiso   1.00
C1950  C     0.84440   0.16159   0.97500   0.00000  Uiso   1.00
C1951  C     0.95758   0.16710   0.74924   0.00000  Uiso   1.00
C1952  C     0.70962   0.16782   0.74850   0.00000  Uiso   1.00
F1953  F     0.77971   0.04696   0.69850   0.00000  Uiso   1.00
F1954  F     0.88755   0.28682   0.79987   0.00000  Uiso   1.00
F1955  F     0.87781   0.04803   0.81027   0.00000  Uiso   1.00
F1956  F     0.77404   0.28524   0.70593   0.00000  Uiso   1.00
O1957  O     0.88865   0.22950   0.53847   0.00000  Uiso   1.00
C1958  C     0.92628   0.20759   0.53223   0.00000  Uiso   1.00
H1959  H     0.92476   0.18663   0.50203   0.00000  Uiso   1.00
H1960  H     0.93504   0.18445   0.55936   0.00000  Uiso   1.00
C1961  C     0.95854   0.24569   0.52913   0.00000  Uiso   1.00
H1962  H     0.94662   0.27352   0.50798   0.00000  Uiso   1.00
H1963  H     0.96414   0.26216   0.56109   0.00000  Uiso   1.00
C1964  C     0.99852   0.22743   0.51186   0.00000  Uiso   1.00
H1965  H     0.99627   0.19056   0.50057   0.00000  Uiso   1.00
H1966  H     0.68975   0.23020   0.53683   0.00000  Uiso   1.00
H1967  H     0.67398   0.24918   0.98465   0.00000  Uiso   1.00
O1968  O     0.84314   0.07583   0.96217   0.00000  Uiso   1.00
C1969  C     0.88449   0.06624   0.97122   0.00000  Uiso   1.00
H1970  H     0.88529   0.04110   0.99762   0.00000  Uiso   1.00
H1971  H     0.90270   0.09732   0.98209   0.00000  Uiso   1.00
C1972  C     0.90403   0.04222   0.93310   0.00000  Uiso   1.00
H1973  H     0.88685   0.00982   0.92453   0.00000  Uiso   1.00
H1974  H     0.90304   0.06560   0.90506   0.00000  Uiso   1.00
C1975  C     0.94812   0.02971   0.94425   0.00000  Uiso   1.00
H1976  H     0.96713   0.06171   0.94593   0.00000  Uiso   1.00
H1977  H     0.95997   0.00554   0.91974   0.00000  Uiso   1.00
H1978  H     0.95058   0.01207   0.97550   0.00000  Uiso   1.00
O1979  O     0.85210   0.24775   0.97172   0.00000  Uiso   1.00
C1980  C     0.81587   0.26185   0.99062   0.00000  Uiso   1.00
H1981  H     0.82492   0.28793   0.51549   0.00000  Uiso   1.00
H1982  H     0.79964   0.23261   0.50556   0.00000  Uiso   1.00
C1983  C     0.78690   0.28463   0.95872   0.00000  Uiso   1.00
H1984  H     0.80363   0.31066   0.94002   0.00000  Uiso   1.00
H1985  H     0.77374   0.25663   0.93778   0.00000  Uiso   1.00
C1986  C     0.75235   0.30861   0.98132   0.00000  Uiso   1.00
H1987  H     0.73540   0.28298   0.99987   0.00000  Uiso   1.00
H1988  H     0.73125   0.32503   0.95773   0.00000  Uiso   1.00
H1989  H     0.76473   0.00218   0.50374   0.00000  Uiso   1.00
O1990  O     0.80764   0.08582   0.52828   0.00000  Uiso   1.00
C1991  C     0.76730   0.09841   0.51751   0.00000  Uiso   1.00
H1992  H     0.75873   0.07843   0.98834   0.00000  Uiso   1.00
H1993  H     0.76321   0.13606   0.50976   0.00000  Uiso   1.00
C1994  C     0.73919   0.08434   0.55287   0.00000  Uiso   1.00
H1995  H     0.75088   0.05248   0.56840   0.00000  Uiso   1.00
H1996  H     0.73963   0.11258   0.57729   0.00000  Uiso   1.00
C1997  C     0.69593   0.07507   0.53576   0.00000  Uiso   1.00
H1998  H     0.68421   0.10540   0.51752   0.00000  Uiso   1.00
H1999  H     0.67593   0.06849   0.56291   0.00000  Uiso   1.00
H2000  H     0.69508   0.04382   0.51439   0.00000  Uiso   1.00
O2001  O     0.84611   0.24956   0.60905   0.00000  Uiso   1.00
C2002  C     0.80721   0.26444   0.62221   0.00000  Uiso   1.00
H2003  H     0.81316   0.29303   0.64546   0.00000  Uiso   1.00
H2004  H     0.78898   0.23678   0.63698   0.00000  Uiso   1.00
C2005  C     0.78006   0.28454   0.58695   0.00000  Uiso   1.00
H2006  H     0.79534   0.31464   0.57252   0.00000  Uiso   1.00
H2007  H     0.77283   0.25663   0.56331   0.00000  Uiso   1.00
C2008  C     0.73978   0.30098   0.60467   0.00000  Uiso   1.00
H2009  H     0.72453   0.27219   0.62126   0.00000  Uiso   1.00
H2010  H     0.71925   0.31239   0.57804   0.00000  Uiso   1.00
H2011  H     0.74486   0.33056   0.62755   0.00000  Uiso   1.00
O2012  O     0.80749   0.08738   0.88402   0.00000  Uiso   1.00
C2013  C     0.76725   0.09897   0.87005   0.00000  Uiso   1.00
H2014  H     0.75620   0.07133   0.84732   0.00000  Uiso   1.00
H2015  H     0.76560   0.13201   0.85200   0.00000  Uiso   1.00
C2016  C     0.73830   0.10175   0.90728   0.00000  Uiso   1.00
H2017  H     0.73564   0.06671   0.92151   0.00000  Uiso   1.00
H2018  H     0.75030   0.12729   0.93148   0.00000  Uiso   1.00
C2019  C     0.69626   0.11827   0.89301   0.00000  Uiso   1.00
H2020  H     0.69853   0.15029   0.87376   0.00000  Uiso   1.00
H2021  H     0.67807   0.12582   0.92155   0.00000  Uiso   1.00
H2022  H     0.68047   0.09090   0.87379   0.00000  Uiso   1.00
O2023  O     0.86413   0.24499   0.88891   0.00000  Uiso   1.00
C2024  C     0.90486   0.23895   0.87639   0.00000  Uiso   1.00
H2025  H     0.91581   0.27371   0.86679   0.00000  Uiso   1.00
H2026  H     0.90639   0.21499   0.84823   0.00000  Uiso   1.00
C2027  C     0.93466   0.22291   0.91189   0.00000  Uiso   1.00
H2028  H     0.93127   0.24553   0.94050   0.00000  Uiso   1.00
H2029  H     0.92837   0.18610   0.92024   0.00000  Uiso   1.00
C2030  C     0.97815   0.22619   0.89701   0.00000  Uiso   1.00
H2031  H     0.98085   0.20816   0.86558   0.00000  Uiso   1.00
H2032  H     0.99912   0.20943   0.92040   0.00000  Uiso   1.00
H2033  H     0.98724   0.26326   0.89411   0.00000  Uiso   1.00
O2034  O     0.82330   0.08020   0.61341   0.00000  Uiso   1.00
C2035  C     0.86072   0.05989   0.62711   0.00000  Uiso   1.00
H2036  H     0.85392   0.03535   0.65301   0.00000  Uiso   1.00
H2037  H     0.88236   0.08573   0.64209   0.00000  Uiso   1.00
C2038  C     0.88090   0.03175   0.59142   0.00000  Uiso   1.00
H2039  H     0.88979   0.33031   0.60373   0.00000  Uiso   1.00
H2040  H     0.85923   0.02557   0.56410   0.00000  Uiso   1.00
C2041  C     0.91914   0.05600   0.57637   0.00000  Uiso   1.00
H2042  H     0.91144   0.08996   0.56166   0.00000  Uiso   1.00
H2043  H     0.93444   0.03343   0.55272   0.00000  Uiso   1.00
H2044  H     0.94080   0.06236   0.60362   0.00000  Uiso   1.00
O2045  O     0.70362   0.09632   0.70578   0.00000  Uiso   1.00
C2046  C     0.71052   0.11782   0.66576   0.00000  Uiso   1.00
H2047  H     0.71772   0.08951   0.64275   0.00000  Uiso   1.00
H2048  H     0.73788   0.14049   0.66845   0.00000  Uiso   1.00
C2049  C     0.67373   0.14551   0.64681   0.00000  Uiso   1.00
H2050  H     0.98183   0.12120   0.63799   0.00000  Uiso   1.00
H2051  H     0.99557   0.17099   0.67032   0.00000  Uiso   1.00
C2052  C     0.68455   0.17466   0.60846   0.00000  Uiso   1.00
H2053  H     0.99786   0.20569   0.60698   0.00000  Uiso   1.00
H2054  H     0.67925   0.15452   0.57849   0.00000  Uiso   1.00
H2055  H     0.71647   0.18712   0.61078   0.00000  Uiso   1.00
O2056  O     0.96029   0.25264   0.75461   0.00000  Uiso   1.00
C2057  C     0.95014   0.26664   0.71223   0.00000  Uiso   1.00
H2058  H     0.92596   0.29338   0.71460   0.00000  Uiso   1.00
H2059  H     0.93693   0.23780   0.69188   0.00000  Uiso   1.00
C2060  C     0.98651   0.28768   0.68979   0.00000  Uiso   1.00
H2061  H     0.67163   0.30954   0.71230   0.00000  Uiso   1.00
H2062  H     0.67281   0.25925   0.67779   0.00000  Uiso   1.00
C2063  C     0.97241   0.31781   0.65249   0.00000  Uiso   1.00
H2064  H     0.95452   0.29649   0.62879   0.00000  Uiso   1.00
H2065  H     0.99894   0.33299   0.63674   0.00000  Uiso   1.00
H2066  H     0.95338   0.01357   0.66426   0.00000  Uiso   1.00
O2067  O     0.96096   0.08342   0.73228   0.00000  Uiso   1.00
C2068  C     0.95522   0.06001   0.77105   0.00000  Uiso   1.00
H2069  H     0.93556   0.02955   0.76324   0.00000  Uiso   1.00
H2070  H     0.94001   0.08282   0.79469   0.00000  Uiso   1.00
C2071  C     0.99427   0.04164   0.79235   0.00000  Uiso   1.00
H2072  H     0.67746   0.01934   0.76978   0.00000  Uiso   1.00
H2073  H     0.68111   0.07105   0.80240   0.00000  Uiso   1.00
C2074  C     0.98370   0.01382   0.83170   0.00000  Uiso   1.00
H2075  H     0.96265   0.03408   0.85171   0.00000  Uiso   1.00
H2076  H     0.67812   0.00660   0.85134   0.00000  Uiso   1.00
H2077  H     0.96872   0.31382   0.82194   0.00000  Uiso   1.00
O2078  O     0.70827   0.25054   0.76614   0.00000  Uiso   1.00
C2079  C     0.71878   0.25439   0.81002   0.00000  Uiso   1.00
H2080  H     0.73307   0.22185   0.82259   0.00000  Uiso   1.00
H2081  H     0.69143   0.26200   0.82845   0.00000  Uiso   1.00
C2082  C     0.74915   0.29418   0.81576   0.00000  Uiso   1.00
H2083  H     0.77530   0.28598   0.79642   0.00000  Uiso   1.00
H2084  H     0.73599   0.32763   0.80488   0.00000  Uiso   1.00
C2085  C     0.76494   0.29902   0.86128   0.00000  Uiso   1.00
H2086  H     0.73942   0.30463   0.88302   0.00000  Uiso   1.00
H2087  H     0.78628   0.32893   0.86422   0.00000  Uiso   1.00
H2088  H     0.78188   0.26684   0.86950   0.00000  Uiso   1.00
O2089  O     0.10655   0.53958   0.74999   0.00000  Uiso   1.00
O2090  O     0.22679   0.46042   0.75000   0.00000  Uiso   1.00
O2091  O     0.22679   0.53958   0.75000   0.00000  Uiso   1.00
O2092  O     0.10655   0.46042   0.74999   0.00000  Uiso   1.00
N2093  N     0.16667   0.61736   0.75000   0.00000  Uiso   1.00
N2094  N     0.16667   0.38264   0.75000   0.00000  Uiso   1.00
C2095  C     0.08747   0.50021   0.74953   0.00000  Uiso   1.00
C2096  C     0.24606   0.50005   0.74984   0.00000  Uiso   1.00
O2097  O     0.16666   0.53959   0.68573   0.00000  Uiso   1.00
O2098  O     0.16667   0.46041   0.81427   0.00000  Uiso   1.00
O2099  O     0.16667   0.53959   0.81427   0.00000  Uiso   1.00
O2100  O     0.16666   0.46041   0.68573   0.00000  Uiso   1.00
C2101  C     0.16700   0.49955   0.66491   0.00000  Uiso   1.00
C2102  C     0.16771   0.50020   0.83483   0.00000  Uiso   1.00
Cu2103 Cu    0.16667   0.54689   0.75000   0.00000  Uiso   1.00
Cu2104 Cu    0.16667   0.45311   0.75000   0.00000  Uiso   1.00
C2105  C     0.13987   0.35767   0.72441   0.00000  Uiso   1.00
C2106  C     0.19285   0.64251   0.77587   0.00000  Uiso   1.00
C2107  C     0.19068   0.35843   0.77824   0.00000  Uiso   1.00
C2108  C     0.13861   0.64161   0.72597   0.00000  Uiso   1.00
C2109  C     0.02102   0.46176   0.73415   0.00000  Uiso   1.00
C2110  C     0.31270   0.54301   0.75370   0.00000  Uiso   1.00
C2111  C     0.31299   0.45897   0.74127   0.00000  Uiso   1.00
C2112  C     0.02156   0.54221   0.75859   0.00000  Uiso   1.00
C2113  C     0.19402   0.53057   0.55149   0.00000  Uiso   1.00
C2114  C     0.17183   0.45424   0.94796   0.00000  Uiso   1.00
C2115  C     0.18062   0.53800   0.95215   0.00000  Uiso   1.00
C2116  C     0.16072   0.45613   0.54815   0.00000  Uiso   1.00
C2117  C     0.17849   0.53772   0.59249   0.00000  Uiso   1.00
C2118  C     0.15946   0.45874   0.90467   0.00000  Uiso   1.00
C2119  C     0.18321   0.53817   0.90736   0.00000  Uiso   1.00
C2120  C     0.16396   0.45532   0.59332   0.00000  Uiso   1.00
C2121  C     0.16901   0.49788   0.61670   0.00000  Uiso   1.00
C2122  C     0.16948   0.49961   0.88267   0.00000  Uiso   1.00
C2123  C     0.17872   0.49303   0.52484   0.00000  Uiso   1.00
C2124  C     0.17773   0.49492   0.97500   0.00000  Uiso   1.00
C2125  C     0.29091   0.50043   0.74924   0.00000  Uiso   1.00
C2126  C     0.04295   0.50115   0.74850   0.00000  Uiso   1.00
F2127  F     0.11304   0.38030   0.69850   0.00000  Uiso   1.00
F2128  F     0.22088   0.62015   0.79987   0.00000  Uiso   1.00
F2129  F     0.21114   0.38136   0.81027   0.00000  Uiso   1.00
F2130  F     0.10738   0.61857   0.70593   0.00000  Uiso   1.00
O2131  O     0.22198   0.56284   0.53847   0.00000  Uiso   1.00
C2132  C     0.25961   0.54093   0.53223   0.00000  Uiso   1.00
H2133  H     0.25809   0.51997   0.50203   0.00000  Uiso   1.00
H2134  H     0.26837   0.51779   0.55936   0.00000  Uiso   1.00
C2135  C     0.29188   0.57903   0.52913   0.00000  Uiso   1.00
H2136  H     0.27996   0.60685   0.50798   0.00000  Uiso   1.00
H2137  H     0.29747   0.59549   0.56109   0.00000  Uiso   1.00
C2138  C     0.33185   0.56076   0.51186   0.00000  Uiso   1.00
H2139  H     0.32960   0.52389   0.50057   0.00000  Uiso   1.00
H2140  H     0.02309   0.56353   0.53683   0.00000  Uiso   1.00
H2141  H     0.00731   0.58251   0.98465   0.00000  Uiso   1.00
O2142  O     0.17647   0.40916   0.96217   0.00000  Uiso   1.00
C2143  C     0.21782   0.39957   0.97122   0.00000  Uiso   1.00
H2144  H     0.21862   0.37443   0.99762   0.00000  Uiso   1.00
H2145  H     0.23603   0.43065   0.98209   0.00000  Uiso   1.00
C2146  C     0.23737   0.37555   0.93310   0.00000  Uiso   1.00
H2147  H     0.22018   0.34315   0.92453   0.00000  Uiso   1.00
H2148  H     0.23637   0.39893   0.90506   0.00000  Uiso   1.00
C2149  C     0.28145   0.36304   0.94425   0.00000  Uiso   1.00
H2150  H     0.30046   0.39504   0.94593   0.00000  Uiso   1.00
H2151  H     0.29331   0.33888   0.91974   0.00000  Uiso   1.00
H2152  H     0.28391   0.34540   0.97550   0.00000  Uiso   1.00
O2153  O     0.18544   0.58109   0.97172   0.00000  Uiso   1.00
C2154  C     0.14920   0.59518   0.99062   0.00000  Uiso   1.00
H2155  H     0.15826   0.62126   0.51549   0.00000  Uiso   1.00
H2156  H     0.13297   0.56595   0.50556   0.00000  Uiso   1.00
C2157  C     0.12024   0.61796   0.95872   0.00000  Uiso   1.00
H2158  H     0.13696   0.64399   0.94002   0.00000  Uiso   1.00
H2159  H     0.10707   0.58997   0.93778   0.00000  Uiso   1.00
C2160  C     0.08569   0.64195   0.98132   0.00000  Uiso   1.00
H2161  H     0.06873   0.61632   0.99987   0.00000  Uiso   1.00
H2162  H     0.06459   0.65836   0.95773   0.00000  Uiso   1.00
H2163  H     0.09807   0.33552   0.50374   0.00000  Uiso   1.00
O2164  O     0.14098   0.41915   0.52828   0.00000  Uiso   1.00
C2165  C     0.10063   0.43174   0.51751   0.00000  Uiso   1.00
H2166  H     0.09207   0.41177   0.98834   0.00000  Uiso   1.00
H2167  H     0.09654   0.46940   0.50976   0.00000  Uiso   1.00
C2168  C     0.07252   0.41767   0.55287   0.00000  Uiso   1.00
H2169  H     0.08421   0.38582   0.56840   0.00000  Uiso   1.00
H2170  H     0.07297   0.44591   0.57729   0.00000  Uiso   1.00
C2171  C     0.02926   0.40840   0.53576   0.00000  Uiso   1.00
H2172  H     0.01754   0.43873   0.51752   0.00000  Uiso   1.00
H2173  H     0.00926   0.40182   0.56291   0.00000  Uiso   1.00
H2174  H     0.02841   0.37716   0.51439   0.00000  Uiso   1.00
O2175  O     0.17945   0.58289   0.60905   0.00000  Uiso   1.00
C2176  C     0.14054   0.59777   0.62221   0.00000  Uiso   1.00
H2177  H     0.14649   0.62637   0.64546   0.00000  Uiso   1.00
H2178  H     0.12231   0.57012   0.63698   0.00000  Uiso   1.00
C2179  C     0.11339   0.61787   0.58695   0.00000  Uiso   1.00
H2180  H     0.12867   0.64798   0.57252   0.00000  Uiso   1.00
H2181  H     0.10616   0.58996   0.56331   0.00000  Uiso   1.00
C2182  C     0.07311   0.63431   0.60467   0.00000  Uiso   1.00
H2183  H     0.05786   0.60553   0.62126   0.00000  Uiso   1.00
H2184  H     0.05258   0.64572   0.57804   0.00000  Uiso   1.00
H2185  H     0.07819   0.66389   0.62755   0.00000  Uiso   1.00
O2186  O     0.14083   0.42072   0.88402   0.00000  Uiso   1.00
C2187  C     0.10058   0.43231   0.87005   0.00000  Uiso   1.00
H2188  H     0.08953   0.40466   0.84732   0.00000  Uiso   1.00
H2189  H     0.09893   0.46534   0.85200   0.00000  Uiso   1.00
C2190  C     0.07163   0.43508   0.90728   0.00000  Uiso   1.00
H2191  H     0.06897   0.40004   0.92151   0.00000  Uiso   1.00
H2192  H     0.08363   0.46062   0.93148   0.00000  Uiso   1.00
C2193  C     0.02959   0.45160   0.89301   0.00000  Uiso   1.00
H2194  H     0.03186   0.48363   0.87376   0.00000  Uiso   1.00
H2195  H     0.01140   0.45915   0.92155   0.00000  Uiso   1.00
H2196  H     0.01381   0.42423   0.87379   0.00000  Uiso   1.00
O2197  O     0.19746   0.57832   0.88891   0.00000  Uiso   1.00
C2198  C     0.23819   0.57228   0.87639   0.00000  Uiso   1.00
H2199  H     0.24914   0.60704   0.86679   0.00000  Uiso   1.00
H2200  H     0.23972   0.54832   0.84823   0.00000  Uiso   1.00
C2201  C     0.26799   0.55624   0.91189   0.00000  Uiso   1.00
H2202  H     0.26460   0.57887   0.94050   0.00000  Uiso   1.00
H2203  H     0.26170   0.51943   0.92024   0.00000  Uiso   1.00
C2204  C     0.31148   0.55953   0.89701   0.00000  Uiso   1.00
H2205  H     0.31419   0.54149   0.86558   0.00000  Uiso   1.00
H2206  H     0.33245   0.54276   0.92040   0.00000  Uiso   1.00
H2207  H     0.32057   0.59660   0.89411   0.00000  Uiso   1.00
O2208  O     0.15664   0.41353   0.61341   0.00000  Uiso   1.00
C2209  C     0.19405   0.39322   0.62711   0.00000  Uiso   1.00
H2210  H     0.18725   0.36868   0.65301   0.00000  Uiso   1.00
H2211  H     0.21570   0.41906   0.64209   0.00000  Uiso   1.00
C2212  C     0.21423   0.36508   0.59142   0.00000  Uiso   1.00
H2213  H     0.22312   0.66364   0.60373   0.00000  Uiso   1.00
H2214  H     0.19256   0.35890   0.56410   0.00000  Uiso   1.00
C2215  C     0.25247   0.38933   0.57637   0.00000  Uiso   1.00
H2216  H     0.24477   0.42329   0.56166   0.00000  Uiso   1.00
H2217  H     0.26777   0.36677   0.55272   0.00000  Uiso   1.00
H2218  H     0.27413   0.39569   0.60362   0.00000  Uiso   1.00
O2219  O     0.03696   0.42965   0.70578   0.00000  Uiso   1.00
C2220  C     0.04385   0.45115   0.66576   0.00000  Uiso   1.00
H2221  H     0.05105   0.42284   0.64275   0.00000  Uiso   1.00
H2222  H     0.07121   0.47382   0.66845   0.00000  Uiso   1.00
C2223  C     0.00706   0.47884   0.64681   0.00000  Uiso   1.00
H2224  H     0.31516   0.45453   0.63799   0.00000  Uiso   1.00
H2225  H     0.32890   0.50432   0.67032   0.00000  Uiso   1.00
C2226  C     0.01788   0.50800   0.60846   0.00000  Uiso   1.00
H2227  H     0.33120   0.53903   0.60698   0.00000  Uiso   1.00
H2228  H     0.01258   0.48785   0.57849   0.00000  Uiso   1.00
H2229  H     0.04980   0.52046   0.61078   0.00000  Uiso   1.00
O2230  O     0.29363   0.58597   0.75461   0.00000  Uiso   1.00
C2231  C     0.28347   0.59997   0.71223   0.00000  Uiso   1.00
H2232  H     0.25930   0.62672   0.71460   0.00000  Uiso   1.00
H2233  H     0.27026   0.57114   0.69188   0.00000  Uiso   1.00
C2234  C     0.31984   0.62102   0.68979   0.00000  Uiso   1.00
H2235  H     0.00496   0.64287   0.71230   0.00000  Uiso   1.00
H2236  H     0.00614   0.59258   0.67779   0.00000  Uiso   1.00
C2237  C     0.30575   0.65115   0.65249   0.00000  Uiso   1.00
H2238  H     0.28785   0.62983   0.62879   0.00000  Uiso   1.00
H2239  H     0.33228   0.66632   0.63674   0.00000  Uiso   1.00
H2240  H     0.28671   0.34691   0.66426   0.00000  Uiso   1.00
O2241  O     0.29429   0.41676   0.73228   0.00000  Uiso   1.00
C2242  C     0.28855   0.39334   0.77105   0.00000  Uiso   1.00
H2243  H     0.26890   0.36288   0.76324   0.00000  Uiso   1.00
H2244  H     0.27334   0.41615   0.79469   0.00000  Uiso   1.00
C2245  C     0.32760   0.37497   0.79235   0.00000  Uiso   1.00
H2246  H     0.01079   0.35267   0.76978   0.00000  Uiso   1.00
H2247  H     0.01445   0.40438   0.80240   0.00000  Uiso   1.00
C2248  C     0.31704   0.34715   0.83170   0.00000  Uiso   1.00
H2249  H     0.29598   0.36741   0.85171   0.00000  Uiso   1.00
H2250  H     0.01146   0.33993   0.85134   0.00000  Uiso   1.00
H2251  H     0.30206   0.64715   0.82194   0.00000  Uiso   1.00
O2252  O     0.04160   0.58388   0.76614   0.00000  Uiso   1.00
C2253  C     0.05211   0.58772   0.81002   0.00000  Uiso   1.00
H2254  H     0.06641   0.55518   0.82259   0.00000  Uiso   1.00
H2255  H     0.02476   0.59533   0.82845   0.00000  Uiso   1.00
C2256  C     0.08249   0.62752   0.81576   0.00000  Uiso   1.00
H2257  H     0.10863   0.61932   0.79642   0.00000  Uiso   1.00
H2258  H     0.06932   0.66096   0.80488   0.00000  Uiso   1.00
C2259  C     0.09827   0.63235   0.86128   0.00000  Uiso   1.00
H2260  H     0.07275   0.63796   0.88302   0.00000  Uiso   1.00
H2261  H     0.11962   0.66226   0.86422   0.00000  Uiso   1.00
H2262  H     0.11521   0.60018   0.86950   0.00000  Uiso   1.00
O2263  O     0.43988   0.53958   0.74999   0.00000  Uiso   1.00
O2264  O     0.56012   0.46042   0.75000   0.00000  Uiso   1.00
O2265  O     0.56012   0.53958   0.75000   0.00000  Uiso   1.00
O2266  O     0.43988   0.46042   0.74999   0.00000  Uiso   1.00
N2267  N     0.50000   0.61736   0.75000   0.00000  Uiso   1.00
N2268  N     0.50000   0.38264   0.75000   0.00000  Uiso   1.00
C2269  C     0.42080   0.50021   0.74953   0.00000  Uiso   1.00
C2270  C     0.57939   0.50005   0.74984   0.00000  Uiso   1.00
O2271  O     0.50000   0.53959   0.68573   0.00000  Uiso   1.00
O2272  O     0.50000   0.46041   0.81427   0.00000  Uiso   1.00
O2273  O     0.50000   0.53959   0.81427   0.00000  Uiso   1.00
O2274  O     0.50000   0.46041   0.68573   0.00000  Uiso   1.00
C2275  C     0.50033   0.49955   0.66491   0.00000  Uiso   1.00
C2276  C     0.50104   0.50020   0.83483   0.00000  Uiso   1.00
Cu2277 Cu    0.50000   0.54689   0.75000   0.00000  Uiso   1.00
Cu2278 Cu    0.50000   0.45311   0.75000   0.00000  Uiso   1.00
C2279  C     0.47320   0.35767   0.72441   0.00000  Uiso   1.00
C2280  C     0.52618   0.64251   0.77587   0.00000  Uiso   1.00
C2281  C     0.52401   0.35843   0.77824   0.00000  Uiso   1.00
C2282  C     0.47195   0.64161   0.72597   0.00000  Uiso   1.00
C2283  C     0.35435   0.46176   0.73415   0.00000  Uiso   1.00
C2284  C     0.64603   0.54301   0.75370   0.00000  Uiso   1.00
C2285  C     0.64632   0.45897   0.74127   0.00000  Uiso   1.00
C2286  C     0.35489   0.54221   0.75859   0.00000  Uiso   1.00
C2287  C     0.52736   0.53057   0.55149   0.00000  Uiso   1.00
C2288  C     0.50516   0.45424   0.94796   0.00000  Uiso   1.00
C2289  C     0.51395   0.53800   0.95215   0.00000  Uiso   1.00
C2290  C     0.49405   0.45613   0.54815   0.00000  Uiso   1.00
C2291  C     0.51182   0.53772   0.59249   0.00000  Uiso   1.00
C2292  C     0.49280   0.45874   0.90467   0.00000  Uiso   1.00
C2293  C     0.51654   0.53817   0.90736   0.00000  Uiso   1.00
C2294  C     0.49730   0.45532   0.59332   0.00000  Uiso   1.00
C2295  C     0.50234   0.49788   0.61670   0.00000  Uiso   1.00
C2296  C     0.50282   0.49961   0.88267   0.00000  Uiso   1.00
C2297  C     0.51206   0.49303   0.52484   0.00000  Uiso   1.00
C2298  C     0.51107   0.49492   0.97500   0.00000  Uiso   1.00
C2299  C     0.62424   0.50043   0.74924   0.00000  Uiso   1.00
C2300  C     0.37629   0.50115   0.74850   0.00000  Uiso   1.00
F2301  F     0.44638   0.38030   0.69850   0.00000  Uiso   1.00
F2302  F     0.55421   0.62015   0.79987   0.00000  Uiso   1.00
F2303  F     0.54448   0.38136   0.81027   0.00000  Uiso   1.00
F2304  F     0.44071   0.61857   0.70593   0.00000  Uiso   1.00
O2305  O     0.55532   0.56284   0.53847   0.00000  Uiso   1.00
C2306  C     0.59294   0.54093   0.53223   0.00000  Uiso   1.00
H2307  H     0.59142   0.51997   0.50203   0.00000  Uiso   1.00
H2308  H     0.60171   0.51779   0.55936   0.00000  Uiso   1.00
C2309  C     0.62521   0.57903   0.52913   0.00000  Uiso   1.00
H2310  H     0.61329   0.60685   0.50798   0.00000  Uiso   1.00
H2311  H     0.63081   0.59549   0.56109   0.00000  Uiso   1.00
C2312  C     0.66518   0.56076   0.51186   0.00000  Uiso   1.00
H2313  H     0.66293   0.52389   0.50057   0.00000  Uiso   1.00
H2314  H     0.35642   0.56353   0.53683   0.00000  Uiso   1.00
H2315  H     0.34065   0.58251   0.98465   0.00000  Uiso   1.00
O2316  O     0.50980   0.40916   0.96217   0.00000  Uiso   1.00
C2317  C     0.55116   0.39957   0.97122   0.00000  Uiso   1.00
H2318  H     0.55196   0.37443   0.99762   0.00000  Uiso   1.00
H2319  H     0.56937   0.43065   0.98209   0.00000  Uiso   1.00
C2320  C     0.57070   0.37555   0.93310   0.00000  Uiso   1.00
H2321  H     0.55351   0.34315   0.92453   0.00000  Uiso   1.00
H2322  H     0.56971   0.39893   0.90506   0.00000  Uiso   1.00
C2323  C     0.61478   0.36304   0.94425   0.00000  Uiso   1.00
H2324  H     0.63380   0.39504   0.94593   0.00000  Uiso   1.00
H2325  H     0.62664   0.33888   0.91974   0.00000  Uiso   1.00
H2326  H     0.61725   0.34540   0.97550   0.00000  Uiso   1.00
O2327  O     0.51877   0.58109   0.97172   0.00000  Uiso   1.00
C2328  C     0.48254   0.59518   0.99062   0.00000  Uiso   1.00
H2329  H     0.49159   0.62126   0.51549   0.00000  Uiso   1.00
H2330  H     0.46631   0.56595   0.50556   0.00000  Uiso   1.00
C2331  C     0.45357   0.61796   0.95872   0.00000  Uiso   1.00
H2332  H     0.47030   0.64399   0.94002   0.00000  Uiso   1.00
H2333  H     0.44041   0.58997   0.93778   0.00000  Uiso   1.00
C2334  C     0.41902   0.64195   0.98132   0.00000  Uiso   1.00
H2335  H     0.40207   0.61632   0.99987   0.00000  Uiso   1.00
H2336  H     0.39792   0.65836   0.95773   0.00000  Uiso   1.00
H2337  H     0.43140   0.33552   0.50374   0.00000  Uiso   1.00
O2338  O     0.47431   0.41915   0.52828   0.00000  Uiso   1.00
C2339  C     0.43396   0.43174   0.51751   0.00000  Uiso   1.00
H2340  H     0.42540   0.41177   0.98834   0.00000  Uiso   1.00
H2341  H     0.42987   0.46940   0.50976   0.00000  Uiso   1.00
C2342  C     0.40585   0.41767   0.55287   0.00000  Uiso   1.00
H2343  H     0.41755   0.38582   0.56840   0.00000  Uiso   1.00
H2344  H     0.40630   0.44591   0.57729   0.00000  Uiso   1.00
C2345  C     0.36259   0.40840   0.53576   0.00000  Uiso   1.00
H2346  H     0.35087   0.43873   0.51752   0.00000  Uiso   1.00
H2347  H     0.34259   0.40182   0.56291   0.00000  Uiso   1.00
H2348  H     0.36175   0.37716   0.51439   0.00000  Uiso   1.00
O2349  O     0.51278   0.58289   0.60905   0.00000  Uiso   1.00
C2350  C     0.47388   0.59777   0.62221   0.00000  Uiso   1.00
H2351  H     0.47983   0.62637   0.64546   0.00000  Uiso   1.00
H2352  H     0.45565   0.57012   0.63698   0.00000  Uiso   1.00
C2353  C     0.44672   0.61787   0.58695   0.00000  Uiso   1.00
H2354  H     0.46201   0.64798   0.57252   0.00000  Uiso   1.00
H2355  H     0.43950   0.58996   0.56331   0.00000  Uiso   1.00
C2356  C     0.40645   0.63431   0.60467   0.00000  Uiso   1.00
H2357  H     0.39120   0.60553   0.62126   0.00000  Uiso   1.00
H2358  H     0.38591   0.64572   0.57804   0.00000  Uiso   1.00
H2359  H     0.41153   0.66389   0.62755   0.00000  Uiso   1.00
O2360  O     0.47416   0.42072   0.88402   0.00000  Uiso   1.00
C2361  C     0.43391   0.43231   0.87005   0.00000  Uiso   1.00
H2362  H     0.42286   0.40466   0.84732   0.00000  Uiso   1.00
H2363  H     0.43226   0.46534   0.85200   0.00000  Uiso   1.00
C2364  C     0.40496   0.43508   0.90728   0.00000  Uiso   1.00
H2365  H     0.40231   0.40004   0.92151   0.00000  Uiso   1.00
H2366  H     0.41697   0.46062   0.93148   0.00000  Uiso   1.00
C2367  C     0.36293   0.45160   0.89301   0.00000  Uiso   1.00
H2368  H     0.36520   0.48363   0.87376   0.00000  Uiso   1.00
H2369  H     0.34473   0.45915   0.92155   0.00000  Uiso   1.00
H2370  H     0.34714   0.42423   0.87379   0.00000  Uiso   1.00
O2371  O     0.53079   0.57832   0.88891   0.00000  Uiso   1.00
C2372  C     0.57152   0.57228   0.87639   0.00000  Uiso   1.00
H2373  H     0.58247   0.60704   0.86679   0.00000  Uiso   1.00
H2374  H     0.57306   0.54832   0.84823   0.00000  Uiso   1.00
C2375  C     0.60132   0.55624   0.91189   0.00000  Uiso   1.00
H2376  H     0.59793   0.57887   0.94050   0.00000  Uiso   1.00
H2377  H     0.59503   0.51943   0.92024   0.00000  Uiso   1.00
C2378  C     0.64481   0.55953   0.89701   0.00000  Uiso   1.00
H2379  H     0.64752   0.54149   0.86558   0.00000  Uiso   1.00
H2380  H     0.66579   0.54276   0.92040   0.00000  Uiso   1.00
H2381  H     0.65391   0.59660   0.89411   0.00000  Uiso   1.00
O2382  O     0.48997   0.41353   0.61341   0.00000  Uiso   1.00
C2383  C     0.52738   0.39322   0.62711   0.00000  Uiso   1.00
H2384  H     0.52058   0.36868   0.65301   0.00000  Uiso   1.00
H2385  H     0.54903   0.41906   0.64209   0.00000  Uiso   1.00
C2386  C     0.54756   0.36508   0.59142   0.00000  Uiso   1.00
H2387  H     0.55645   0.66364   0.60373   0.00000  Uiso   1.00
H2388  H     0.52589   0.35890   0.56410   0.00000  Uiso   1.00
C2389  C     0.58581   0.38933   0.57637   0.00000  Uiso   1.00
H2390  H     0.57810   0.42329   0.56166   0.00000  Uiso   1.00
H2391  H     0.60110   0.36677   0.55272   0.00000  Uiso   1.00
H2392  H     0.60747   0.39569   0.60362   0.00000  Uiso   1.00
O2393  O     0.37029   0.42965   0.70578   0.00000  Uiso   1.00
C2394  C     0.37718   0.45115   0.66576   0.00000  Uiso   1.00
H2395  H     0.38439   0.42284   0.64275   0.00000  Uiso   1.00
H2396  H     0.40455   0.47382   0.66845   0.00000  Uiso   1.00
C2397  C     0.34040   0.47884   0.64681   0.00000  Uiso   1.00
H2398  H     0.64850   0.45453   0.63799   0.00000  Uiso   1.00
H2399  H     0.66224   0.50432   0.67032   0.00000  Uiso   1.00
C2400  C     0.35121   0.50800   0.60846   0.00000  Uiso   1.00
H2401  H     0.66453   0.53903   0.60698   0.00000  Uiso   1.00
H2402  H     0.34592   0.48785   0.57849   0.00000  Uiso   1.00
H2403  H     0.38313   0.52046   0.61078   0.00000  Uiso   1.00
O2404  O     0.62696   0.58597   0.75461   0.00000  Uiso   1.00
C2405  C     0.61680   0.59997   0.71223   0.00000  Uiso   1.00
H2406  H     0.59263   0.62672   0.71460   0.00000  Uiso   1.00
H2407  H     0.60360   0.57114   0.69188   0.00000  Uiso   1.00
C2408  C     0.65317   0.62102   0.68979   0.00000  Uiso   1.00
H2409  H     0.33829   0.64287   0.71230   0.00000  Uiso   1.00
H2410  H     0.33947   0.59258   0.67779   0.00000  Uiso   1.00
C2411  C     0.63908   0.65115   0.65249   0.00000  Uiso   1.00
H2412  H     0.62118   0.62983   0.62879   0.00000  Uiso   1.00
H2413  H     0.66561   0.66632   0.63674   0.00000  Uiso   1.00
H2414  H     0.62004   0.34691   0.66426   0.00000  Uiso   1.00
O2415  O     0.62763   0.41676   0.73228   0.00000  Uiso   1.00
C2416  C     0.62189   0.39334   0.77105   0.00000  Uiso   1.00
H2417  H     0.60223   0.36288   0.76324   0.00000  Uiso   1.00
H2418  H     0.60668   0.41615   0.79469   0.00000  Uiso   1.00
C2419  C     0.66094   0.37497   0.79235   0.00000  Uiso   1.00
H2420  H     0.34412   0.35267   0.76978   0.00000  Uiso   1.00
H2421  H     0.34778   0.40438   0.80240   0.00000  Uiso   1.00
C2422  C     0.65037   0.34715   0.83170   0.00000  Uiso   1.00
H2423  H     0.62931   0.36741   0.85171   0.00000  Uiso   1.00
H2424  H     0.34479   0.33993   0.85134   0.00000  Uiso   1.00
H2425  H     0.63539   0.64715   0.82194   0.00000  Uiso   1.00
O2426  O     0.37493   0.58388   0.76614   0.00000  Uiso   1.00
C2427  C     0.38544   0.58772   0.81002   0.00000  Uiso   1.00
H2428  H     0.39974   0.55518   0.82259   0.00000  Uiso   1.00
H2429  H     0.35809   0.59533   0.82845   0.00000  Uiso   1.00
C2430  C     0.41582   0.62752   0.81576   0.00000  Uiso   1.00
H2431  H     0.44197   0.61932   0.79642   0.00000  Uiso   1.00
H2432  H     0.40266   0.66096   0.80488   0.00000  Uiso   1.00
C2433  C     0.43160   0.63235   0.86128   0.00000  Uiso   1.00
H2434  H     0.40608   0.63796   0.88302   0.00000  Uiso   1.00
H2435  H     0.45295   0.66226   0.86422   0.00000  Uiso   1.00
H2436  H     0.44854   0.60018   0.86950   0.00000  Uiso   1.00
O2437  O     0.77321   0.53958   0.74999   0.00000  Uiso   1.00
O2438  O     0.89345   0.46042   0.75000   0.00000  Uiso   1.00
O2439  O     0.89345   0.53958   0.75000   0.00000  Uiso   1.00
O2440  O     0.77321   0.46042   0.74999   0.00000  Uiso   1.00
N2441  N     0.83333   0.61736   0.75000   0.00000  Uiso   1.00
N2442  N     0.83333   0.38264   0.75000   0.00000  Uiso   1.00
C2443  C     0.75414   0.50021   0.74953   0.00000  Uiso   1.00
C2444  C     0.91273   0.50005   0.74984   0.00000  Uiso   1.00
O2445  O     0.83333   0.53959   0.68573   0.00000  Uiso   1.00
O2446  O     0.83334   0.46041   0.81427   0.00000  Uiso   1.00
O2447  O     0.83334   0.53959   0.81427   0.00000  Uiso   1.00
O2448  O     0.83333   0.46041   0.68573   0.00000  Uiso   1.00
C2449  C     0.83367   0.49955   0.66491   0.00000  Uiso   1.00
C2450  C     0.83438   0.50020   0.83483   0.00000  Uiso   1.00
Cu2451 Cu    0.83333   0.54689   0.75000   0.00000  Uiso   1.00
Cu2452 Cu    0.83333   0.45311   0.75000   0.00000  Uiso   1.00
C2453  C     0.80653   0.35767   0.72441   0.00000  Uiso   1.00
C2454  C     0.85952   0.64251   0.77587   0.00000  Uiso   1.00
C2455  C     0.85734   0.35843   0.77824   0.00000  Uiso   1.00
C2456  C     0.80528   0.64161   0.72597   0.00000  Uiso   1.00
C2457  C     0.68768   0.46176   0.73415   0.00000  Uiso   1.00
C2458  C     0.97936   0.54301   0.75370   0.00000  Uiso   1.00
C2459  C     0.97966   0.45897   0.74127   0.00000  Uiso   1.00
C2460  C     0.68823   0.54221   0.75859   0.00000  Uiso   1.00
C2461  C     0.86069   0.53057   0.55149   0.00000  Uiso   1.00
C2462  C     0.83849   0.45424   0.94796   0.00000  Uiso   1.00
C2463  C     0.84728   0.53800   0.95215   0.00000  Uiso   1.00
C2464  C     0.82739   0.45613   0.54815   0.00000  Uiso   1.00
C2465  C     0.84515   0.53772   0.59249   0.00000  Uiso   1.00
C2466  C     0.82613   0.45874   0.90467   0.00000  Uiso   1.00
C2467  C     0.84988   0.53817   0.90736   0.00000  Uiso   1.00
C2468  C     0.83063   0.45532   0.59332   0.00000  Uiso   1.00
C2469  C     0.83567   0.49788   0.61670   0.00000  Uiso   1.00
C2470  C     0.83615   0.49961   0.88267   0.00000  Uiso   1.00
C2471  C     0.84539   0.49303   0.52484   0.00000  Uiso   1.00
C2472  C     0.84440   0.49492   0.97500   0.00000  Uiso   1.00
C2473  C     0.95758   0.50043   0.74924   0.00000  Uiso   1.00
C2474  C     0.70962   0.50115   0.74850   0.00000  Uiso   1.00
F2475  F     0.77971   0.38030   0.69850   0.00000  Uiso   1.00
F2476  F     0.88755   0.62015   0.79987   0.00000  Uiso   1.00
F2477  F     0.87781   0.38136   0.81027   0.00000  Uiso   1.00
F2478  F     0.77404   0.61857   0.70593   0.00000  Uiso   1.00
O2479  O     0.88865   0.56284   0.53847   0.00000  Uiso   1.00
C2480  C     0.92628   0.54093   0.53223   0.00000  Uiso   1.00
H2481  H     0.92476   0.51997   0.50203   0.00000  Uiso   1.00
H2482  H     0.93504   0.51779   0.55936   0.00000  Uiso   1.00
C2483  C     0.95854   0.57903   0.52913   0.00000  Uiso   1.00
H2484  H     0.94662   0.60685   0.50798   0.00000  Uiso   1.00
H2485  H     0.96414   0.59549   0.56109   0.00000  Uiso   1.00
C2486  C     0.99852   0.56076   0.51186   0.00000  Uiso   1.00
H2487  H     0.99627   0.52389   0.50057   0.00000  Uiso   1.00
H2488  H     0.68975   0.56353   0.53683   0.00000  Uiso   1.00
H2489  H     0.67398   0.58251   0.98465   0.00000  Uiso   1.00
O2490  O     0.84314   0.40916   0.96217   0.00000  Uiso   1.00
C2491  C     0.88449   0.39957   0.97122   0.00000  Uiso   1.00
H2492  H     0.88529   0.37443   0.99762   0.00000  Uiso   1.00
H2493  H     0.90270   0.43065   0.98209   0.00000  Uiso   1.00
C2494  C     0.90403   0.37555   0.93310   0.00000  Uiso   1.00
H2495  H     0.88685   0.34315   0.92453   0.00000  Uiso   1.00
H2496  H     0.90304   0.39893   0.90506   0.00000  Uiso   1.00
C2497  C     0.94812   0.36304   0.94425   0.00000  Uiso   1.00
H2498  H     0.96713   0.39504   0.94593   0.00000  Uiso   1.00
H2499  H     0.95997   0.33888   0.91974   0.00000  Uiso   1.00
H2500  H     0.95058   0.34540   0.97550   0.00000  Uiso   1.00
O2501  O     0.85210   0.58109   0.97172   0.00000  Uiso   1.00
C2502  C     0.81587   0.59518   0.99062   0.00000  Uiso   1.00
H2503  H     0.82492   0.62126   0.51549   0.00000  Uiso   1.00
H2504  H     0.79964   0.56595   0.50556   0.00000  Uiso   1.00
C2505  C     0.78690   0.61796   0.95872   0.00000  Uiso   1.00
H2506  H     0.80363   0.64399   0.94002   0.00000  Uiso   1.00
H2507  H     0.77374   0.58997   0.93778   0.00000  Uiso   1.00
C2508  C     0.75235   0.64195   0.98132   0.00000  Uiso   1.00
H2509  H     0.73540   0.61632   0.99987   0.00000  Uiso   1.00
H2510  H     0.73125   0.65836   0.95773   0.00000  Uiso   1.00
H2511  H     0.76473   0.33552   0.50374   0.00000  Uiso   1.00
O2512  O     0.80764   0.41915   0.52828   0.00000  Uiso   1.00
C2513  C     0.76730   0.43174   0.51751   0.00000  Uiso   1.00
H2514  H     0.75873   0.41177   0.98834   0.00000  Uiso   1.00
H2515  H     0.76321   0.46940   0.50976   0.00000  Uiso   1.00
C2516  C     0.73919   0.41767   0.55287   0.00000  Uiso   1.00
H2517  H     0.75088   0.38582   0.56840   0.00000  Uiso   1.00
H2518  H     0.73963   0.44591   0.57729   0.00000  Uiso   1.00
C2519  C     0.69593   0.40840   0.53576   0.00000  Uiso   1.00
H2520  H     0.68421   0.43873   0.51752   0.00000  Uiso   1.00
H2521  H     0.67593   0.40182   0.56291   0.00000  Uiso   1.00
H2522  H     0.69508   0.37716   0.51439   0.00000  Uiso   1.00
O2523  O     0.84611   0.58289   0.60905   0.00000  Uiso   1.00
C2524  C     0.80721   0.59777   0.62221   0.00000  Uiso   1.00
H2525  H     0.81316   0.62637   0.64546   0.00000  Uiso   1.00
H2526  H     0.78898   0.57012   0.63698   0.00000  Uiso   1.00
C2527  C     0.78006   0.61787   0.58695   0.00000  Uiso   1.00
H2528  H     0.79534   0.64798   0.57252   0.00000  Uiso   1.00
H2529  H     0.77283   0.58996   0.56331   0.00000  Uiso   1.00
C2530  C     0.73978   0.63431   0.60467   0.00000  Uiso   1.00
H2531  H     0.72453   0.60553   0.62126   0.00000  Uiso   1.00
H2532  H     0.71925   0.64572   0.57804   0.00000  Uiso   1.00
H2533  H     0.74486   0.66389   0.62755   0.00000  Uiso   1.00
O2534  O     0.80749   0.42072   0.88402   0.00000  Uiso   1.00
C2535  C     0.76725   0.43231   0.87005   0.00000  Uiso   1.00
H2536  H     0.75620   0.40466   0.84732   0.00000  Uiso   1.00
H2537  H     0.76560   0.46534   0.85200   0.00000  Uiso   1.00
C2538  C     0.73830   0.43508   0.90728   0.00000  Uiso   1.00
H2539  H     0.73564   0.40004   0.92151   0.00000  Uiso   1.00
H2540  H     0.75030   0.46062   0.93148   0.00000  Uiso   1.00
C2541  C     0.69626   0.45160   0.89301   0.00000  Uiso   1.00
H2542  H     0.69853   0.48363   0.87376   0.00000  Uiso   1.00
H2543  H     0.67807   0.45915   0.92155   0.00000  Uiso   1.00
H2544  H     0.68047   0.42423   0.87379   0.00000  Uiso   1.00
O2545  O     0.86413   0.57832   0.88891   0.00000  Uiso   1.00
C2546  C     0.90486   0.57228   0.87639   0.00000  Uiso   1.00
H2547  H     0.91581   0.60704   0.86679   0.00000  Uiso   1.00
H2548  H     0.90639   0.54832   0.84823   0.00000  Uiso   1.00
C2549  C     0.93466   0.55624   0.91189   0.00000  Uiso   1.00
H2550  H     0.93127   0.57887   0.94050   0.00000  Uiso   1.00
H2551  H     0.92837   0.51943   0.92024   0.00000  Uiso   1.00
C2552  C     0.97815   0.55953   0.89701   0.00000  Uiso   1.00
H2553  H     0.98085   0.54149   0.86558   0.00000  Uiso   1.00
H2554  H     0.99912   0.54276   0.92040   0.00000  Uiso   1.00
H2555  H     0.98724   0.59660   0.89411   0.00000  Uiso   1.00
O2556  O     0.82330   0.41353   0.61341   0.00000  Uiso   1.00
C2557  C     0.86072   0.39322   0.62711   0.00000  Uiso   1.00
H2558  H     0.85392   0.36868   0.65301   0.00000  Uiso   1.00
H2559  H     0.88236   0.41906   0.64209   0.00000  Uiso   1.00
C2560  C     0.88090   0.36508   0.59142   0.00000  Uiso   1.00
H2561  H     0.88979   0.66364   0.60373   0.00000  Uiso   1.00
H2562  H     0.85923   0.35890   0.56410   0.00000  Uiso   1.00
C2563  C     0.91914   0.38933   0.57637   0.00000  Uiso   1.00
H2564  H     0.91144   0.42329   0.56166   0.00000  Uiso   1.00
H2565  H     0.93444   0.36677   0.55272   0.00000  Uiso   1.00
H2566  H     0.94080   0.39569   0.60362   0.00000  Uiso   1.00
O2567  O     0.70362   0.42965   0.70578   0.00000  Uiso   1.00
C2568  C     0.71052   0.45115   0.66576   0.00000  Uiso   1.00
H2569  H     0.71772   0.42284   0.64275   0.00000  Uiso   1.00
H2570  H     0.73788   0.47382   0.66845   0.00000  Uiso   1.00
C2571  C     0.67373   0.47884   0.64681   0.00000  Uiso   1.00
H2572  H     0.98183   0.45453   0.63799   0.00000  Uiso   1.00
H2573  H     0.99557   0.50432   0.67032   0.00000  Uiso   1.00
C2574  C     0.68455   0.50800   0.60846   0.00000  Uiso   1.00
H2575  H     0.99786   0.53903   0.60698   0.00000  Uiso   1.00
H2576  H     0.67925   0.48785   0.57849   0.00000  Uiso   1.00
H2577  H     0.71647   0.52046   0.61078   0.00000  Uiso   1.00
O2578  O     0.96029   0.58597   0.75461   0.00000  Uiso   1.00
C2579  C     0.95014   0.59997   0.71223   0.00000  Uiso   1.00
H2580  H     0.92596   0.62672   0.71460   0.00000  Uiso   1.00
H2581  H     0.93693   0.57114   0.69188   0.00000  Uiso   1.00
C2582  C     0.98651   0.62102   0.68979   0.00000  Uiso   1.00
H2583  H     0.67163   0.64287   0.71230   0.00000  Uiso   1.00
H2584  H     0.67281   0.59258   0.67779   0.00000  Uiso   1.00
C2585  C     0.97241   0.65115   0.65249   0.00000  Uiso   1.00
H2586  H     0.95452   0.62983   0.62879   0.00000  Uiso   1.00
H2587  H     0.99894   0.66632   0.63674   0.00000  Uiso   1.00
H2588  H     0.95338   0.34691   0.66426   0.00000  Uiso   1.00
O2589  O     0.96096   0.41676   0.73228   0.00000  Uiso   1.00
C2590  C     0.95522   0.39334   0.77105   0.00000  Uiso   1.00
H2591  H     0.93556   0.36288   0.76324   0.00000  Uiso   1.00
H2592  H     0.94001   0.41615   0.79469   0.00000  Uiso   1.00
C2593  C     0.99427   0.37497   0.79235   0.00000  Uiso   1.00
H2594  H     0.67746   0.35267   0.76978   0.00000  Uiso   1.00
H2595  H     0.68111   0.40438   0.80240   0.00000  Uiso   1.00
C2596  C     0.98370   0.34715   0.83170   0.00000  Uiso   1.00
H2597  H     0.96265   0.36741   0.85171   0.00000  Uiso   1.00
H2598  H     0.67812   0.33993   0.85134   0.00000  Uiso   1.00
H2599  H     0.96872   0.64715   0.82194   0.00000  Uiso   1.00
O2600  O     0.70827   0.58388   0.76614   0.00000  Uiso   1.00
C2601  C     0.71878   0.58772   0.81002   0.00000  Uiso   1.00
H2602  H     0.73307   0.55518   0.82259   0.00000  Uiso   1.00
H2603  H     0.69143   0.59533   0.82845   0.00000  Uiso   1.00
C2604  C     0.74915   0.62752   0.81576   0.00000  Uiso   1.00
H2605  H     0.77530   0.61932   0.79642   0.00000  Uiso   1.00
H2606  H     0.73599   0.66096   0.80488   0.00000  Uiso   1.00
C2607  C     0.76494   0.63235   0.86128   0.00000  Uiso   1.00
H2608  H     0.73942   0.63796   0.88302   0.00000  Uiso   1.00
H2609  H     0.78628   0.66226   0.86422   0.00000  Uiso   1.00
H2610  H     0.78188   0.60018   0.86950   0.00000  Uiso   1.00
O2611  O     0.10655   0.87291   0.74999   0.00000  Uiso   1.00
O2612  O     0.22679   0.79375   0.75000   0.00000  Uiso   1.00
O2613  O     0.22679   0.87291   0.75000   0.00000  Uiso   1.00
O2614  O     0.10655   0.79375   0.74999   0.00000  Uiso   1.00
N2615  N     0.16667   0.95069   0.75000   0.00000  Uiso   1.00
N2616  N     0.16667   0.71598   0.75000   0.00000  Uiso   1.00
C2617  C     0.08747   0.83354   0.74953   0.00000  Uiso   1.00
C2618  C     0.24606   0.83339   0.74984   0.00000  Uiso   1.00
O2619  O     0.16666   0.87293   0.68573   0.00000  Uiso   1.00
O2620  O     0.16667   0.79374   0.81427   0.00000  Uiso   1.00
O2621  O     0.16667   0.87293   0.81427   0.00000  Uiso   1.00
O2622  O     0.16666   0.79374   0.68573   0.00000  Uiso   1.00
C2623  C     0.16700   0.83288   0.66491   0.00000  Uiso   1.00
C2624  C     0.16771   0.83353   0.83483   0.00000  Uiso   1.00
Cu2625 Cu    0.16667   0.88022   0.75000   0.00000  Uiso   1.00
Cu2626 Cu    0.16667   0.78645   0.75000   0.00000  Uiso   1.00
C2627  C     0.13987   0.69101   0.72441   0.00000  Uiso   1.00
C2628  C     0.19285   0.97585   0.77587   0.00000  Uiso   1.00
C2629  C     0.19068   0.69176   0.77824   0.00000  Uiso   1.00
C2630  C     0.13861   0.97494   0.72597   0.00000  Uiso   1.00
C2631  C     0.02102   0.79510   0.73415   0.00000  Uiso   1.00
C2632  C     0.31270   0.87635   0.75370   0.00000  Uiso   1.00
C2633  C     0.31299   0.79231   0.74127   0.00000  Uiso   1.00
C2634  C     0.02156   0.87555   0.75859   0.00000  Uiso   1.00
C2635  C     0.19402   0.86390   0.55149   0.00000  Uiso   1.00
C2636  C     0.17183   0.78757   0.94796   0.00000  Uiso   1.00
C2637  C     0.18062   0.87133   0.95215   0.00000  Uiso   1.00
C2638  C     0.16072   0.78946   0.54815   0.00000  Uiso   1.00
C2639  C     0.17849   0.87105   0.59249   0.00000  Uiso   1.00
C2640  C     0.15946   0.79208   0.90467   0.00000  Uiso   1.00
C2641  C     0.18321   0.87150   0.90736   0.00000  Uiso   1.00
C2642  C     0.16396   0.78865   0.59332   0.00000  Uiso   1.00
C2643  C     0.16901   0.83121   0.61670   0.00000  Uiso   1.00
C2644  C     0.16948   0.83294   0.88267   0.00000  Uiso   1.00
C2645  C     0.17872   0.82637   0.52484   0.00000  Uiso   1.00
C2646  C     0.17773   0.82825   0.97500   0.00000  Uiso   1.00
C2647  C     0.29091   0.83377   0.74924   0.00000  Uiso   1.00
C2648  C     0.04295   0.83448   0.74850   0.00000  Uiso   1.00
F2649  F     0.11304   0.71363   0.69850   0.00000  Uiso   1.00
F2650  F     0.22088   0.95349   0.79987   0.00000  Uiso   1.00
F2651  F     0.21114   0.71469   0.81027   0.00000  Uiso   1.00
F2652  F     0.10738   0.95191   0.70593   0.00000  Uiso   1.00
O2653  O     0.22198   0.89617   0.53847   0.00000  Uiso   1.00
C2654  C     0.25961   0.87426   0.53223   0.00000  Uiso   1.00
H2655  H     0.25809   0.85330   0.50203   0.00000  Uiso   1.00
H2656  H     0.26837   0.85112   0.55936   0.00000  Uiso   1.00
C2657  C     0.29188   0.91236   0.52913   0.00000  Uiso   1.00
H2658  H     0.27996   0.94018   0.50798   0.00000  Uiso   1.00
H2659  H     0.29747   0.92883   0.56109   0.00000  Uiso   1.00
C2660  C     0.33185   0.89409   0.51186   0.00000  Uiso   1.00
H2661  H     0.32960   0.85722   0.50057   0.00000  Uiso   1.00
H2662  H     0.02309   0.89686   0.53683   0.00000  Uiso   1.00
H2663  H     0.00731   0.91584   0.98465   0.00000  Uiso   1.00
O2664  O     0.17647   0.74250   0.96217   0.00000  Uiso   1.00
C2665  C     0.21782   0.73291   0.97122   0.00000  Uiso   1.00
H2666  H     0.21862   0.70777   0.99762   0.00000  Uiso   1.00
H2667  H     0.23603   0.76399   0.98209   0.00000  Uiso   1.00
C2668  C     0.23737   0.70889   0.93310   0.00000  Uiso   1.00
H2669  H     0.22018   0.67648   0.92453   0.00000  Uiso   1.00
H2670  H     0.23637   0.73227   0.90506   0.00000  Uiso   1.00
C2671  C     0.28145   0.69637   0.94425   0.00000  Uiso   1.00
H2672  H     0.30046   0.72837   0.94593   0.00000  Uiso   1.00
H2673  H     0.29331   0.67221   0.91974   0.00000  Uiso   1.00
H2674  H     0.28391   0.67873   0.97550   0.00000  Uiso   1.00
O2675  O     0.18544   0.91442   0.97172   0.00000  Uiso   1.00
C2676  C     0.14920   0.92851   0.99062   0.00000  Uiso   1.00
H2677  H     0.15826   0.95459   0.51549   0.00000  Uiso   1.00
H2678  H     0.13297   0.89928   0.50556   0.00000  Uiso   1.00
C2679  C     0.12024   0.95130   0.95872   0.00000  Uiso   1.00
H2680  H     0.13696   0.97732   0.94002   0.00000  Uiso   1.00
H2681  H     0.10707   0.92330   0.93778   0.00000  Uiso   1.00
C2682  C     0.08569   0.97528   0.98132   0.00000  Uiso   1.00
H2683  H     0.06873   0.94965   0.99987   0.00000  Uiso   1.00
H2684  H     0.06459   0.99170   0.95773   0.00000  Uiso   1.00
H2685  H     0.09807   0.66885   0.50374   0.00000  Uiso   1.00
O2686  O     0.14098   0.75249   0.52828   0.00000  Uiso   1.00
C2687  C     0.10063   0.76508   0.51751   0.00000  Uiso   1.00
H2688  H     0.09207   0.74510   0.98834   0.00000  Uiso   1.00
H2689  H     0.09654   0.80273   0.50976   0.00000  Uiso   1.00
C2690  C     0.07252   0.75101   0.55287   0.00000  Uiso   1.00
H2691  H     0.08421   0.71915   0.56840   0.00000  Uiso   1.00
H2692  H     0.07297   0.77924   0.57729   0.00000  Uiso   1.00
C2693  C     0.02926   0.74174   0.53576   0.00000  Uiso   1.00
H2694  H     0.01754   0.77207   0.51752   0.00000  Uiso   1.00
H2695  H     0.00926   0.73516   0.56291   0.00000  Uiso   1.00
H2696  H     0.02841   0.71049   0.51439   0.00000  Uiso   1.00
O2697  O     0.17945   0.91623   0.60905   0.00000  Uiso   1.00
C2698  C     0.14054   0.93110   0.62221   0.00000  Uiso   1.00
H2699  H     0.14649   0.95970   0.64546   0.00000  Uiso   1.00
H2700  H     0.12231   0.90345   0.63698   0.00000  Uiso   1.00
C2701  C     0.11339   0.95120   0.58695   0.00000  Uiso   1.00
H2702  H     0.12867   0.98131   0.57252   0.00000  Uiso   1.00
H2703  H     0.10616   0.92330   0.56331   0.00000  Uiso   1.00
C2704  C     0.07311   0.96765   0.60467   0.00000  Uiso   1.00
H2705  H     0.05786   0.93886   0.62126   0.00000  Uiso   1.00
H2706  H     0.05258   0.97906   0.57804   0.00000  Uiso   1.00
H2707  H     0.07819   0.99722   0.62755   0.00000  Uiso   1.00
O2708  O     0.14083   0.75405   0.88402   0.00000  Uiso   1.00
C2709  C     0.10058   0.76564   0.87005   0.00000  Uiso   1.00
H2710  H     0.08953   0.73799   0.84732   0.00000  Uiso   1.00
H2711  H     0.09893   0.79867   0.85200   0.00000  Uiso   1.00
C2712  C     0.07163   0.76841   0.90728   0.00000  Uiso   1.00
H2713  H     0.06897   0.73337   0.92151   0.00000  Uiso   1.00
H2714  H     0.08363   0.79396   0.93148   0.00000  Uiso   1.00
C2715  C     0.02959   0.78493   0.89301   0.00000  Uiso   1.00
H2716  H     0.03186   0.81696   0.87376   0.00000  Uiso   1.00
H2717  H     0.01140   0.79248   0.92155   0.00000  Uiso   1.00
H2718  H     0.01381   0.75756   0.87379   0.00000  Uiso   1.00
O2719  O     0.19746   0.91166   0.88891   0.00000  Uiso   1.00
C2720  C     0.23819   0.90561   0.87639   0.00000  Uiso   1.00
H2721  H     0.24914   0.94037   0.86679   0.00000  Uiso   1.00
H2722  H     0.23972   0.88165   0.84823   0.00000  Uiso   1.00
C2723  C     0.26799   0.88957   0.91189   0.00000  Uiso   1.00
H2724  H     0.26460   0.91220   0.94050   0.00000  Uiso   1.00
H2725  H     0.26170   0.85276   0.92024   0.00000  Uiso   1.00
C2726  C     0.31148   0.89286   0.89701   0.00000  Uiso   1.00
H2727  H     0.31419   0.87483   0.86558   0.00000  Uiso   1.00
H2728  H     0.33245   0.87610   0.92040   0.00000  Uiso   1.00
H2729  H     0.32057   0.92993   0.89411   0.00000  Uiso   1.00
O2730  O     0.15664   0.74686   0.61341   0.00000  Uiso   1.00
C2731  C     0.19405   0.72656   0.62711   0.00000  Uiso   1.00
H2732  H     0.18725   0.70202   0.65301   0.00000  Uiso   1.00
H2733  H     0.21570   0.75239   0.64209   0.00000  Uiso   1.00
C2734  C     0.21423   0.69841   0.59142   0.00000  Uiso   1.00
H2735  H     0.22312   0.99697   0.60373   0.00000  Uiso   1.00
H2736  H     0.19256   0.69224   0.56410   0.00000  Uiso   1.00
C2737  C     0.25247   0.72267   0.57637   0.00000  Uiso   1.00
H2738  H     0.24477   0.75663   0.56166   0.00000  Uiso   1.00
H2739  H     0.26777   0.70010   0.55272   0.00000  Uiso   1.00
H2740  H     0.27413   0.72902   0.60362   0.00000  Uiso   1.00
O2741  O     0.03696   0.76298   0.70578   0.00000  Uiso   1.00
C2742  C     0.04385   0.78449   0.66576   0.00000  Uiso   1.00
H2743  H     0.05105   0.75617   0.64275   0.00000  Uiso   1.00
H2744  H     0.07121   0.80715   0.66845   0.00000  Uiso   1.00
C2745  C     0.00706   0.81218   0.64681   0.00000  Uiso   1.00
H2746  H     0.31516   0.78787   0.63799   0.00000  Uiso   1.00
H2747  H     0.32890   0.83766   0.67032   0.00000  Uiso   1.00
C2748  C     0.01788   0.84133   0.60846   0.00000  Uiso   1.00
H2749  H     0.33120   0.87236   0.60698   0.00000  Uiso   1.00
H2750  H     0.01258   0.82118   0.57849   0.00000  Uiso   1.00
H2751  H     0.04980   0.85379   0.61078   0.00000  Uiso   1.00
O2752  O     0.29363   0.91930   0.75461   0.00000  Uiso   1.00
C2753  C     0.28347   0.93330   0.71223   0.00000  Uiso   1.00
H2754  H     0.25930   0.96005   0.71460   0.00000  Uiso   1.00
H2755  H     0.27026   0.90447   0.69188   0.00000  Uiso   1.00
C2756  C     0.31984   0.95435   0.68979   0.00000  Uiso   1.00
H2757  H     0.00496   0.97620   0.71230   0.00000  Uiso   1.00
H2758  H     0.00614   0.92591   0.67779   0.00000  Uiso   1.00
C2759  C     0.30575   0.98448   0.65249   0.00000  Uiso   1.00
H2760  H     0.28785   0.96316   0.62879   0.00000  Uiso   1.00
H2761  H     0.33228   0.99965   0.63674   0.00000  Uiso   1.00
H2762  H     0.28671   0.68024   0.66426   0.00000  Uiso   1.00
O2763  O     0.29429   0.75009   0.73228   0.00000  Uiso   1.00
C2764  C     0.28855   0.72667   0.77105   0.00000  Uiso   1.00
H2765  H     0.26890   0.69621   0.76324   0.00000  Uiso   1.00
H2766  H     0.27334   0.74949   0.79469   0.00000  Uiso   1.00
C2767  C     0.32760   0.70830   0.79235   0.00000  Uiso   1.00
H2768  H     0.01079   0.68601   0.76978   0.00000  Uiso   1.00
H2769  H     0.01445   0.73771   0.80240   0.00000  Uiso   1.00
C2770  C     0.31704   0.68048   0.83170   0.00000  Uiso   1.00
H2771  H     0.29598   0.70074   0.85171   0.00000  Uiso   1.00
H2772  H     0.01146   0.67326   0.85134   0.00000  Uiso   1.00
H2773  H     0.30206   0.98049   0.82194   0.00000  Uiso   1.00
O2774  O     0.04160   0.91721   0.76614   0.00000  Uiso   1.00
C2775  C     0.05211   0.92105   0.81002   0.00000  Uiso   1.00
H2776  H     0.06641   0.88852   0.82259   0.00000  Uiso   1.00
H2777  H     0.02476   0.92866   0.82845   0.00000  Uiso   1.00
C2778  C     0.08249   0.96085   0.81576   0.00000  Uiso   1.00
H2779  H     0.10863   0.95265   0.79642   0.00000  Uiso   1.00
H2780  H     0.06932   0.99429   0.80488   0.00000  Uiso   1.00
C2781  C     0.09827   0.96568   0.86128   0.00000  Uiso   1.00
H2782  H     0.07275   0.97130   0.88302   0.00000  Uiso   1.00
H2783  H     0.11962   0.99559   0.86422   0.00000  Uiso   1.00
H2784  H     0.11521   0.93351   0.86950   0.00000  Uiso   1.00
O2785  O     0.43988   0.87291   0.74999   0.00000  Uiso   1.00
O2786  O     0.56012   0.79375   0.75000   0.00000  Uiso   1.00
O2787  O     0.56012   0.87291   0.75000   0.00000  Uiso   1.00
O2788  O     0.43988   0.79375   0.74999   0.00000  Uiso   1.00
N2789  N     0.50000   0.95069   0.75000   0.00000  Uiso   1.00
N2790  N     0.50000   0.71598   0.75000   0.00000  Uiso   1.00
C2791  C     0.42080   0.83354   0.74953   0.00000  Uiso   1.00
C2792  C     0.57939   0.83339   0.74984   0.00000  Uiso   1.00
O2793  O     0.50000   0.87293   0.68573   0.00000  Uiso   1.00
O2794  O     0.50000   0.79374   0.81427   0.00000  Uiso   1.00
O2795  O     0.50000   0.87293   0.81427   0.00000  Uiso   1.00
O2796  O     0.50000   0.79374   0.68573   0.00000  Uiso   1.00
C2797  C     0.50033   0.83288   0.66491   0.00000  Uiso   1.00
C2798  C     0.50104   0.83353   0.83483   0.00000  Uiso   1.00
Cu2799 Cu    0.50000   0.88022   0.75000   0.00000  Uiso   1.00
Cu2800 Cu    0.50000   0.78645   0.75000   0.00000  Uiso   1.00
C2801  C     0.47320   0.69101   0.72441   0.00000  Uiso   1.00
C2802  C     0.52618   0.97585   0.77587   0.00000  Uiso   1.00
C2803  C     0.52401   0.69176   0.77824   0.00000  Uiso   1.00
C2804  C     0.47195   0.97494   0.72597   0.00000  Uiso   1.00
C2805  C     0.35435   0.79510   0.73415   0.00000  Uiso   1.00
C2806  C     0.64603   0.87635   0.75370   0.00000  Uiso   1.00
C2807  C     0.64632   0.79231   0.74127   0.00000  Uiso   1.00
C2808  C     0.35489   0.87555   0.75859   0.00000  Uiso   1.00
C2809  C     0.52736   0.86390   0.55149   0.00000  Uiso   1.00
C2810  C     0.50516   0.78757   0.94796   0.00000  Uiso   1.00
C2811  C     0.51395   0.87133   0.95215   0.00000  Uiso   1.00
C2812  C     0.49405   0.78946   0.54815   0.00000  Uiso   1.00
C2813  C     0.51182   0.87105   0.59249   0.00000  Uiso   1.00
C2814  C     0.49280   0.79208   0.90467   0.00000  Uiso   1.00
C2815  C     0.51654   0.87150   0.90736   0.00000  Uiso   1.00
C2816  C     0.49730   0.78865   0.59332   0.00000  Uiso   1.00
C2817  C     0.50234   0.83121   0.61670   0.00000  Uiso   1.00
C2818  C     0.50282   0.83294   0.88267   0.00000  Uiso   1.00
C2819  C     0.51206   0.82637   0.52484   0.00000  Uiso   1.00
C2820  C     0.51107   0.82825   0.97500   0.00000  Uiso   1.00
C2821  C     0.62424   0.83377   0.74924   0.00000  Uiso   1.00
C2822  C     0.37629   0.83448   0.74850   0.00000  Uiso   1.00
F2823  F     0.44638   0.71363   0.69850   0.00000  Uiso   1.00
F2824  F     0.55421   0.95349   0.79987   0.00000  Uiso   1.00
F2825  F     0.54448   0.71469   0.81027   0.00000  Uiso   1.00
F2826  F     0.44071   0.95191   0.70593   0.00000  Uiso   1.00
O2827  O     0.55532   0.89617   0.53847   0.00000  Uiso   1.00
C2828  C     0.59294   0.87426   0.53223   0.00000  Uiso   1.00
H2829  H     0.59142   0.85330   0.50203   0.00000  Uiso   1.00
H2830  H     0.60171   0.85112   0.55936   0.00000  Uiso   1.00
C2831  C     0.62521   0.91236   0.52913   0.00000  Uiso   1.00
H2832  H     0.61329   0.94018   0.50798   0.00000  Uiso   1.00
H2833  H     0.63081   0.92883   0.56109   0.00000  Uiso   1.00
C2834  C     0.66518   0.89409   0.51186   0.00000  Uiso   1.00
H2835  H     0.66293   0.85722   0.50057   0.00000  Uiso   1.00
H2836  H     0.35642   0.89686   0.53683   0.00000  Uiso   1.00
H2837  H     0.34065   0.91584   0.98465   0.00000  Uiso   1.00
O2838  O     0.50980   0.74250   0.96217   0.00000  Uiso   1.00
C2839  C     0.55116   0.73291   0.97122   0.00000  Uiso   1.00
H2840  H     0.55196   0.70777   0.99762   0.00000  Uiso   1.00
H2841  H     0.56937   0.76399   0.98209   0.00000  Uiso   1.00
C2842  C     0.57070   0.70889   0.93310   0.00000  Uiso   1.00
H2843  H     0.55351   0.67648   0.92453   0.00000  Uiso   1.00
H2844  H     0.56971   0.73227   0.90506   0.00000  Uiso   1.00
C2845  C     0.61478   0.69637   0.94425   0.00000  Uiso   1.00
H2846  H     0.63380   0.72837   0.94593   0.00000  Uiso   1.00
H2847  H     0.62664   0.67221   0.91974   0.00000  Uiso   1.00
H2848  H     0.61725   0.67873   0.97550   0.00000  Uiso   1.00
O2849  O     0.51877   0.91442   0.97172   0.00000  Uiso   1.00
C2850  C     0.48254   0.92851   0.99062   0.00000  Uiso   1.00
H2851  H     0.49159   0.95459   0.51549   0.00000  Uiso   1.00
H2852  H     0.46631   0.89928   0.50556   0.00000  Uiso   1.00
C2853  C     0.45357   0.95130   0.95872   0.00000  Uiso   1.00
H2854  H     0.47030   0.97732   0.94002   0.00000  Uiso   1.00
H2855  H     0.44041   0.92330   0.93778   0.00000  Uiso   1.00
C2856  C     0.41902   0.97528   0.98132   0.00000  Uiso   1.00
H2857  H     0.40207   0.94965   0.99987   0.00000  Uiso   1.00
H2858  H     0.39792   0.99170   0.95773   0.00000  Uiso   1.00
H2859  H     0.43140   0.66885   0.50374   0.00000  Uiso   1.00
O2860  O     0.47431   0.75249   0.52828   0.00000  Uiso   1.00
C2861  C     0.43396   0.76508   0.51751   0.00000  Uiso   1.00
H2862  H     0.42540   0.74510   0.98834   0.00000  Uiso   1.00
H2863  H     0.42987   0.80273   0.50976   0.00000  Uiso   1.00
C2864  C     0.40585   0.75101   0.55287   0.00000  Uiso   1.00
H2865  H     0.41755   0.71915   0.56840   0.00000  Uiso   1.00
H2866  H     0.40630   0.77924   0.57729   0.00000  Uiso   1.00
C2867  C     0.36259   0.74174   0.53576   0.00000  Uiso   1.00
H2868  H     0.35087   0.77207   0.51752   0.00000  Uiso   1.00
H2869  H     0.34259   0.73516   0.56291   0.00000  Uiso   1.00
H2870  H     0.36175   0.71049   0.51439   0.00000  Uiso   1.00
O2871  O     0.51278   0.91623   0.60905   0.00000  Uiso   1.00
C2872  C     0.47388   0.93110   0.62221   0.00000  Uiso   1.00
H2873  H     0.47983   0.95970   0.64546   0.00000  Uiso   1.00
H2874  H     0.45565   0.90345   0.63698   0.00000  Uiso   1.00
C2875  C     0.44672   0.95120   0.58695   0.00000  Uiso   1.00
H2876  H     0.46201   0.98131   0.57252   0.00000  Uiso   1.00
H2877  H     0.43950   0.92330   0.56331   0.00000  Uiso   1.00
C2878  C     0.40645   0.96765   0.60467   0.00000  Uiso   1.00
H2879  H     0.39120   0.93886   0.62126   0.00000  Uiso   1.00
H2880  H     0.38591   0.97906   0.57804   0.00000  Uiso   1.00
H2881  H     0.41153   0.99722   0.62755   0.00000  Uiso   1.00
O2882  O     0.47416   0.75405   0.88402   0.00000  Uiso   1.00
C2883  C     0.43391   0.76564   0.87005   0.00000  Uiso   1.00
H2884  H     0.42286   0.73799   0.84732   0.00000  Uiso   1.00
H2885  H     0.43226   0.79867   0.85200   0.00000  Uiso   1.00
C2886  C     0.40496   0.76841   0.90728   0.00000  Uiso   1.00
H2887  H     0.40231   0.73337   0.92151   0.00000  Uiso   1.00
H2888  H     0.41697   0.79396   0.93148   0.00000  Uiso   1.00
C2889  C     0.36293   0.78493   0.89301   0.00000  Uiso   1.00
H2890  H     0.36520   0.81696   0.87376   0.00000  Uiso   1.00
H2891  H     0.34473   0.79248   0.92155   0.00000  Uiso   1.00
H2892  H     0.34714   0.75756   0.87379   0.00000  Uiso   1.00
O2893  O     0.53079   0.91166   0.88891   0.00000  Uiso   1.00
C2894  C     0.57152   0.90561   0.87639   0.00000  Uiso   1.00
H2895  H     0.58247   0.94037   0.86679   0.00000  Uiso   1.00
H2896  H     0.57306   0.88165   0.84823   0.00000  Uiso   1.00
C2897  C     0.60132   0.88957   0.91189   0.00000  Uiso   1.00
H2898  H     0.59793   0.91220   0.94050   0.00000  Uiso   1.00
H2899  H     0.59503   0.85276   0.92024   0.00000  Uiso   1.00
C2900  C     0.64481   0.89286   0.89701   0.00000  Uiso   1.00
H2901  H     0.64752   0.87483   0.86558   0.00000  Uiso   1.00
H2902  H     0.66579   0.87610   0.92040   0.00000  Uiso   1.00
H2903  H     0.65391   0.92993   0.89411   0.00000  Uiso   1.00
O2904  O     0.48997   0.74686   0.61341   0.00000  Uiso   1.00
C2905  C     0.52738   0.72656   0.62711   0.00000  Uiso   1.00
H2906  H     0.52058   0.70202   0.65301   0.00000  Uiso   1.00
H2907  H     0.54903   0.75239   0.64209   0.00000  Uiso   1.00
C2908  C     0.54756   0.69841   0.59142   0.00000  Uiso   1.00
H2909  H     0.55645   0.99697   0.60373   0.00000  Uiso   1.00
H2910  H     0.52589   0.69224   0.56410   0.00000  Uiso   1.00
C2911  C     0.58581   0.72267   0.57637   0.00000  Uiso   1.00
H2912  H     0.57810   0.75663   0.56166   0.00000  Uiso   1.00
H2913  H     0.60110   0.70010   0.55272   0.00000  Uiso   1.00
H2914  H     0.60747   0.72902   0.60362   0.00000  Uiso   1.00
O2915  O     0.37029   0.76298   0.70578   0.00000  Uiso   1.00
C2916  C     0.37718   0.78449   0.66576   0.00000  Uiso   1.00
H2917  H     0.38439   0.75617   0.64275   0.00000  Uiso   1.00
H2918  H     0.40455   0.80715   0.66845   0.00000  Uiso   1.00
C2919  C     0.34040   0.81218   0.64681   0.00000  Uiso   1.00
H2920  H     0.64850   0.78787   0.63799   0.00000  Uiso   1.00
H2921  H     0.66224   0.83766   0.67032   0.00000  Uiso   1.00
C2922  C     0.35121   0.84133   0.60846   0.00000  Uiso   1.00
H2923  H     0.66453   0.87236   0.60698   0.00000  Uiso   1.00
H2924  H     0.34592   0.82118   0.57849   0.00000  Uiso   1.00
H2925  H     0.38313   0.85379   0.61078   0.00000  Uiso   1.00
O2926  O     0.62696   0.91930   0.75461   0.00000  Uiso   1.00
C2927  C     0.61680   0.93330   0.71223   0.00000  Uiso   1.00
H2928  H     0.59263   0.96005   0.71460   0.00000  Uiso   1.00
H2929  H     0.60360   0.90447   0.69188   0.00000  Uiso   1.00
C2930  C     0.65317   0.95435   0.68979   0.00000  Uiso   1.00
H2931  H     0.33829   0.97620   0.71230   0.00000  Uiso   1.00
H2932  H     0.33947   0.92591   0.67779   0.00000  Uiso   1.00
C2933  C     0.63908   0.98448   0.65249   0.00000  Uiso   1.00
H2934  H     0.62118   0.96316   0.62879   0.00000  Uiso   1.00
H2935  H     0.66561   0.99965   0.63674   0.00000  Uiso   1.00
H2936  H     0.62004   0.68024   0.66426   0.00000  Uiso   1.00
O2937  O     0.62763   0.75009   0.73228   0.00000  Uiso   1.00
C2938  C     0.62189   0.72667   0.77105   0.00000  Uiso   1.00
H2939  H     0.60223   0.69621   0.76324   0.00000  Uiso   1.00
H2940  H     0.60668   0.74949   0.79469   0.00000  Uiso   1.00
C2941  C     0.66094   0.70830   0.79235   0.00000  Uiso   1.00
H2942  H     0.34412   0.68601   0.76978   0.00000  Uiso   1.00
H2943  H     0.34778   0.73771   0.80240   0.00000  Uiso   1.00
C2944  C     0.65037   0.68048   0.83170   0.00000  Uiso   1.00
H2945  H     0.62931   0.70074   0.85171   0.00000  Uiso   1.00
H2946  H     0.34479   0.67326   0.85134   0.00000  Uiso   1.00
H2947  H     0.63539   0.98049   0.82194   0.00000  Uiso   1.00
O2948  O     0.37493   0.91721   0.76614   0.00000  Uiso   1.00
C2949  C     0.38544   0.92105   0.81002   0.00000  Uiso   1.00
H2950  H     0.39974   0.88852   0.82259   0.00000  Uiso   1.00
H2951  H     0.35809   0.92866   0.82845   0.00000  Uiso   1.00
C2952  C     0.41582   0.96085   0.81576   0.00000  Uiso   1.00
H2953  H     0.44197   0.95265   0.79642   0.00000  Uiso   1.00
H2954  H     0.40266   0.99429   0.80488   0.00000  Uiso   1.00
C2955  C     0.43160   0.96568   0.86128   0.00000  Uiso   1.00
H2956  H     0.40608   0.97130   0.88302   0.00000  Uiso   1.00
H2957  H     0.45295   0.99559   0.86422   0.00000  Uiso   1.00
H2958  H     0.44854   0.93351   0.86950   0.00000  Uiso   1.00
O2959  O     0.77321   0.87291   0.74999   0.00000  Uiso   1.00
O2960  O     0.89345   0.79375   0.75000   0.00000  Uiso   1.00
O2961  O     0.89345   0.87291   0.75000   0.00000  Uiso   1.00
O2962  O     0.77321   0.79375   0.74999   0.00000  Uiso   1.00
N2963  N     0.83333   0.95069   0.75000   0.00000  Uiso   1.00
N2964  N     0.83333   0.71598   0.75000   0.00000  Uiso   1.00
C2965  C     0.75414   0.83354   0.74953   0.00000  Uiso   1.00
C2966  C     0.91273   0.83339   0.74984   0.00000  Uiso   1.00
O2967  O     0.83333   0.87293   0.68573   0.00000  Uiso   1.00
O2968  O     0.83334   0.79374   0.81427   0.00000  Uiso   1.00
O2969  O     0.83334   0.87293   0.81427   0.00000  Uiso   1.00
O2970  O     0.83333   0.79374   0.68573   0.00000  Uiso   1.00
C2971  C     0.83367   0.83288   0.66491   0.00000  Uiso   1.00
C2972  C     0.83438   0.83353   0.83483   0.00000  Uiso   1.00
Cu2973 Cu    0.83333   0.88022   0.75000   0.00000  Uiso   1.00
Cu2974 Cu    0.83333   0.78645   0.75000   0.00000  Uiso   1.00
C2975  C     0.80653   0.69101   0.72441   0.00000  Uiso   1.00
C2976  C     0.85952   0.97585   0.77587   0.00000  Uiso   1.00
C2977  C     0.85734   0.69176   0.77824   0.00000  Uiso   1.00
C2978  C     0.80528   0.97494   0.72597   0.00000  Uiso   1.00
C2979  C     0.68768   0.79510   0.73415   0.00000  Uiso   1.00
C2980  C     0.97936   0.87635   0.75370   0.00000  Uiso   1.00
C2981  C     0.97966   0.79231   0.74127   0.00000  Uiso   1.00
C2982  C     0.68823   0.87555   0.75859   0.00000  Uiso   1.00
C2983  C     0.86069   0.86390   0.55149   0.00000  Uiso   1.00
C2984  C     0.83849   0.78757   0.94796   0.00000  Uiso   1.00
C2985  C     0.84728   0.87133   0.95215   0.00000  Uiso   1.00
C2986  C     0.82739   0.78946   0.54815   0.00000  Uiso   1.00
C2987  C     0.84515   0.87105   0.59249   0.00000  Uiso   1.00
C2988  C     0.82613   0.79208   0.90467   0.00000  Uiso   1.00
C2989  C     0.84988   0.87150   0.90736   0.00000  Uiso   1.00
C2990  C     0.83063   0.78865   0.59332   0.00000  Uiso   1.00
C2991  C     0.83567   0.83121   0.61670   0.00000  Uiso   1.00
C2992  C     0.83615   0.83294   0.88267   0.00000  Uiso   1.00
C2993  C     0.84539   0.82637   0.52484   0.00000  Uiso   1.00
C2994  C     0.84440   0.82825   0.97500   0.00000  Uiso   1.00
C2995  C     0.95758   0.83377   0.74924   0.00000  Uiso   1.00
C2996  C     0.70962   0.83448   0.74850   0.00000  Uiso   1.00
F2997  F     0.77971   0.71363   0.69850   0.00000  Uiso   1.00
F2998  F     0.88755   0.95349   0.79987   0.00000  Uiso   1.00
F2999  F     0.87781   0.71469   0.81027   0.00000  Uiso   1.00
F3000  F     0.77404   0.95191   0.70593   0.00000  Uiso   1.00
O3001  O     0.88865   0.89617   0.53847   0.00000  Uiso   1.00
C3002  C     0.92628   0.87426   0.53223   0.00000  Uiso   1.00
H3003  H     0.92476   0.85330   0.50203   0.00000  Uiso   1.00
H3004  H     0.93504   0.85112   0.55936   0.00000  Uiso   1.00
C3005  C     0.95854   0.91236   0.52913   0.00000  Uiso   1.00
H3006  H     0.94662   0.94018   0.50798   0.00000  Uiso   1.00
H3007  H     0.96414   0.92883   0.56109   0.00000  Uiso   1.00
C3008  C     0.99852   0.89409   0.51186   0.00000  Uiso   1.00
H3009  H     0.99627   0.85722   0.50057   0.00000  Uiso   1.00
H3010  H     0.68975   0.89686   0.53683   0.00000  Uiso   1.00
H3011  H     0.67398   0.91584   0.98465   0.00000  Uiso   1.00
O3012  O     0.84314   0.74250   0.96217   0.00000  Uiso   1.00
C3013  C     0.88449   0.73291   0.97122   0.00000  Uiso   1.00
H3014  H     0.88529   0.70777   0.99762   0.00000  Uiso   1.00
H3015  H     0.90270   0.76399   0.98209   0.00000  Uiso   1.00
C3016  C     0.90403   0.70889   0.93310   0.00000  Uiso   1.00
H3017  H     0.88685   0.67648   0.92453   0.00000  Uiso   1.00
H3018  H     0.90304   0.73227   0.90506   0.00000  Uiso   1.00
C3019  C     0.94812   0.69637   0.94425   0.00000  Uiso   1.00
H3020  H     0.96713   0.72837   0.94593   0.00000  Uiso   1.00
H3021  H     0.95997   0.67221   0.91974   0.00000  Uiso   1.00
H3022  H     0.95058   0.67873   0.97550   0.00000  Uiso   1.00
O3023  O     0.85210   0.91442   0.97172   0.00000  Uiso   1.00
C3024  C     0.81587   0.92851   0.99062   0.00000  Uiso   1.00
H3025  H     0.82492   0.95459   0.51549   0.00000  Uiso   1.00
H3026  H     0.79964   0.89928   0.50556   0.00000  Uiso   1.00
C3027  C     0.78690   0.95130   0.95872   0.00000  Uiso   1.00
H3028  H     0.80363   0.97732   0.94002   0.00000  Uiso   1.00
H3029  H     0.77374   0.92330   0.93778   0.00000  Uiso   1.00
C3030  C     0.75235   0.97528   0.98132   0.00000  Uiso   1.00
H3031  H     0.73540   0.94965   0.99987   0.00000  Uiso   1.00
H3032  H     0.73125   0.99170   0.95773   0.00000  Uiso   1.00
H3033  H     0.76473   0.66885   0.50374   0.00000  Uiso   1.00
O3034  O     0.80764   0.75249   0.52828   0.00000  Uiso   1.00
C3035  C     0.76730   0.76508   0.51751   0.00000  Uiso   1.00
H3036  H     0.75873   0.74510   0.98834   0.00000  Uiso   1.00
H3037  H     0.76321   0.80273   0.50976   0.00000  Uiso   1.00
C3038  C     0.73919   0.75101   0.55287   0.00000  Uiso   1.00
H3039  H     0.75088   0.71915   0.56840   0.00000  Uiso   1.00
H3040  H     0.73963   0.77924   0.57729   0.00000  Uiso   1.00
C3041  C     0.69593   0.74174   0.53576   0.00000  Uiso   1.00
H3042  H     0.68421   0.77207   0.51752   0.00000  Uiso   1.00
H3043  H     0.67593   0.73516   0.56291   0.00000  Uiso   1.00
H3044  H     0.69508   0.71049   0.51439   0.00000  Uiso   1.00
O3045  O     0.84611   0.91623   0.60905   0.00000  Uiso   1.00
C3046  C     0.80721   0.93110   0.62221   0.00000  Uiso   1.00
H3047  H     0.81316   0.95970   0.64546   0.00000  Uiso   1.00
H3048  H     0.78898   0.90345   0.63698   0.00000  Uiso   1.00
C3049  C     0.78006   0.95120   0.58695   0.00000  Uiso   1.00
H3050  H     0.79534   0.98131   0.57252   0.00000  Uiso   1.00
H3051  H     0.77283   0.92330   0.56331   0.00000  Uiso   1.00
C3052  C     0.73978   0.96765   0.60467   0.00000  Uiso   1.00
H3053  H     0.72453   0.93886   0.62126   0.00000  Uiso   1.00
H3054  H     0.71925   0.97906   0.57804   0.00000  Uiso   1.00
H3055  H     0.74486   0.99722   0.62755   0.00000  Uiso   1.00
O3056  O     0.80749   0.75405   0.88402   0.00000  Uiso   1.00
C3057  C     0.76725   0.76564   0.87005   0.00000  Uiso   1.00
H3058  H     0.75620   0.73799   0.84732   0.00000  Uiso   1.00
H3059  H     0.76560   0.79867   0.85200   0.00000  Uiso   1.00
C3060  C     0.73830   0.76841   0.90728   0.00000  Uiso   1.00
H3061  H     0.73564   0.73337   0.92151   0.00000  Uiso   1.00
H3062  H     0.75030   0.79396   0.93148   0.00000  Uiso   1.00
C3063  C     0.69626   0.78493   0.89301   0.00000  Uiso   1.00
H3064  H     0.69853   0.81696   0.87376   0.00000  Uiso   1.00
H3065  H     0.67807   0.79248   0.92155   0.00000  Uiso   1.00
H3066  H     0.68047   0.75756   0.87379   0.00000  Uiso   1.00
O3067  O     0.86413   0.91166   0.88891   0.00000  Uiso   1.00
C3068  C     0.90486   0.90561   0.87639   0.00000  Uiso   1.00
H3069  H     0.91581   0.94037   0.86679   0.00000  Uiso   1.00
H3070  H     0.90639   0.88165   0.84823   0.00000  Uiso   1.00
C3071  C     0.93466   0.88957   0.91189   0.00000  Uiso   1.00
H3072  H     0.93127   0.91220   0.94050   0.00000  Uiso   1.00
H3073  H     0.92837   0.85276   0.92024   0.00000  Uiso   1.00
C3074  C     0.97815   0.89286   0.89701   0.00000  Uiso   1.00
H3075  H     0.98085   0.87483   0.86558   0.00000  Uiso   1.00
H3076  H     0.99912   0.87610   0.92040   0.00000  Uiso   1.00
H3077  H     0.98724   0.92993   0.89411   0.00000  Uiso   1.00
O3078  O     0.82330   0.74686   0.61341   0.00000  Uiso   1.00
C3079  C     0.86072   0.72656   0.62711   0.00000  Uiso   1.00
H3080  H     0.85392   0.70202   0.65301   0.00000  Uiso   1.00
H3081  H     0.88236   0.75239   0.64209   0.00000  Uiso   1.00
C3082  C     0.88090   0.69841   0.59142   0.00000  Uiso   1.00
H3083  H     0.88979   0.99697   0.60373   0.00000  Uiso   1.00
H3084  H     0.85923   0.69224   0.56410   0.00000  Uiso   1.00
C3085  C     0.91914   0.72267   0.57637   0.00000  Uiso   1.00
H3086  H     0.91144   0.75663   0.56166   0.00000  Uiso   1.00
H3087  H     0.93444   0.70010   0.55272   0.00000  Uiso   1.00
H3088  H     0.94080   0.72902   0.60362   0.00000  Uiso   1.00
O3089  O     0.70362   0.76298   0.70578   0.00000  Uiso   1.00
C3090  C     0.71052   0.78449   0.66576   0.00000  Uiso   1.00
H3091  H     0.71772   0.75617   0.64275   0.00000  Uiso   1.00
H3092  H     0.73788   0.80715   0.66845   0.00000  Uiso   1.00
C3093  C     0.67373   0.81218   0.64681   0.00000  Uiso   1.00
H3094  H     0.98183   0.78787   0.63799   0.00000  Uiso   1.00
H3095  H     0.99557   0.83766   0.67032   0.00000  Uiso   1.00
C3096  C     0.68455   0.84133   0.60846   0.00000  Uiso   1.00
H3097  H     0.99786   0.87236   0.60698   0.00000  Uiso   1.00
H3098  H     0.67925   0.82118   0.57849   0.00000  Uiso   1.00
H3099  H     0.71647   0.85379   0.61078   0.00000  Uiso   1.00
O3100  O     0.96029   0.91930   0.75461   0.00000  Uiso   1.00
C3101  C     0.95014   0.93330   0.71223   0.00000  Uiso   1.00
H3102  H     0.92596   0.96005   0.71460   0.00000  Uiso   1.00
H3103  H     0.93693   0.90447   0.69188   0.00000  Uiso   1.00
C3104  C     0.98651   0.95435   0.68979   0.00000  Uiso   1.00
H3105  H     0.67163   0.97620   0.71230   0.00000  Uiso   1.00
H3106  H     0.67281   0.92591   0.67779   0.00000  Uiso   1.00
C3107  C     0.97241   0.98448   0.65249   0.00000  Uiso   1.00
H3108  H     0.95452   0.96316   0.62879   0.00000  Uiso   1.00
H3109  H     0.99894   0.99965   0.63674   0.00000  Uiso   1.00
H3110  H     0.95338   0.68024   0.66426   0.00000  Uiso   1.00
O3111  O     0.96096   0.75009   0.73228   0.00000  Uiso   1.00
C3112  C     0.95522   0.72667   0.77105   0.00000  Uiso   1.00
H3113  H     0.93556   0.69621   0.76324   0.00000  Uiso   1.00
H3114  H     0.94001   0.74949   0.79469   0.00000  Uiso   1.00
C3115  C     0.99427   0.70830   0.79235   0.00000  Uiso   1.00
H3116  H     0.67746   0.68601   0.76978   0.00000  Uiso   1.00
H3117  H     0.68111   0.73771   0.80240   0.00000  Uiso   1.00
C3118  C     0.98370   0.68048   0.83170   0.00000  Uiso   1.00
H3119  H     0.96265   0.70074   0.85171   0.00000  Uiso   1.00
H3120  H     0.67812   0.67326   0.85134   0.00000  Uiso   1.00
H3121  H     0.96872   0.98049   0.82194   0.00000  Uiso   1.00
O3122  O     0.70827   0.91721   0.76614   0.00000  Uiso   1.00
C3123  C     0.71878   0.92105   0.81002   0.00000  Uiso   1.00
H3124  H     0.73307   0.88852   0.82259   0.00000  Uiso   1.00
H3125  H     0.69143   0.92866   0.82845   0.00000  Uiso   1.00
C3126  C     0.74915   0.96085   0.81576   0.00000  Uiso   1.00
H3127  H     0.77530   0.95265   0.79642   0.00000  Uiso   1.00
H3128  H     0.73599   0.99429   0.80488   0.00000  Uiso   1.00
C3129  C     0.76494   0.96568   0.86128   0.00000  Uiso   1.00
H3130  H     0.73942   0.97130   0.88302   0.00000  Uiso   1.00
H3131  H     0.78628   0.99559   0.86422   0.00000  Uiso   1.00
H3132  H     0.78188   0.93351   0.86950   0.00000  Uiso   1.00
loop_
_geom_bond_atom_site_label_1
_geom_bond_atom_site_label_2
_geom_bond_distance
_geom_bond_site_symmetry_2
_ccdc_geom_bond_type
O1     Cu15    1.993   .     S
O1     C7      1.291   .     A
O2     Cu16    1.993   .     S
O2     C8      1.301   .     A
O3     C8      1.300   .     A
O3     Cu15    1.994   .     S
O4     C7      1.304   .     A
O4     Cu16    1.994   .     S
N5     C20     1.370   .     A
N5     C18     1.362   .     A
N5     Cu15    2.020   .     S
N6     C19     1.366   .     A
N6     C17     1.367   .     A
N6     Cu16    2.020   .     S
C7     C38     1.467   .     S
C8     C37     1.479   .     S
O9     C13     1.312   .     A
O9     Cu15    2.018   .     S
O10    C14     1.301   .     A
O10    Cu16    2.018   .     S
O11    C14     1.308   .     A
O11    Cu15    2.024   .     S
O12    Cu16    2.024   .     S
O12    C13     1.306   .     A
C13    C33     1.512   .     S
C14    C34     1.496   .     S
Cu15   Cu16    2.689   .     S
C17    F39     1.354   .     S
C17    C1064   1.418   1_545 S
C18    F40     1.342   .     S
C18    C541    1.415   .     S
C19    F41     1.352   .     S
C19    C1062   1.415   1_545 S
C20    F42     1.354   .     S
C20    C539    1.418   .     S
C21    O131    1.385   .     S
C21    C38     1.400   .     A
C21    C371    1.391   1_455 S
C22    C37     1.418   .     A
C22    O142    1.384   .     S
C22    C198    1.395   .     S
C23    C37     1.418   .     A
C23    O153    1.378   .     S
C23    C195    1.391   .     S
C24    O164    1.378   .     S
C24    C38     1.411   .     A
C24    C370    1.395   1_455 S
C25    O43     1.379   .     S
C25    C29     1.409   .     A
C25    C35     1.433   .     A
C26    O54     1.380   .     S
C26    C30     1.410   .     A
C26    C36     1.440   .     A
C27    C31     1.406   .     A
C27    O65     1.377   .     S
C27    C36     1.440   .     A
C28    C35     1.432   .     A
C28    C32     1.414   .     A
C28    O76     1.373   .     S
C29    O87     1.388   .     S
C29    C33     1.419   .     A
C30    C34     1.411   .     A
C30    O98     1.391   .     S
C31    O109    1.383   .     S
C31    C34     1.405   .     A
C32    O120    1.385   .     S
C32    C33     1.420   .     A
C35    C1602   1.560   1_554 S
C36    C1601   1.560   .     S
O43    C44     1.410   .     S
C44    H45     1.112   .     S
C44    C47     1.529   .     S
C44    H46     1.116   .     S
C47    H49     1.109   .     S
C47    H48     1.108   .     S
C47    C50     1.531   .     S
C50    H51     1.111   .     S
C50    H226    1.109   .     S
C50    H1793   1.108   1_554 S
H52    C398    1.109   1_455 S
H53    C1964   1.108   1_455 S
O54    C55     1.412   .     S
C55    H56     1.104   .     S
C55    H57     1.116   .     S
C55    C58     1.529   .     S
C58    H60     1.111   .     S
C58    C61     1.529   .     S
C58    H59     1.112   .     S
C61    H63     1.107   .     S
C61    H62     1.110   .     S
C61    H64     1.108   .     S
O65    C66     1.407   .     S
C66    C69     1.515   .     S
C66    H1633   1.105   .     S
C66    H1634   1.110   .     S
H67    C1632   1.105   1_554 S
H68    C1632   1.110   1_554 S
C69    H70     1.111   .     S
C69    H71     1.108   .     S
C69    C72     1.520   .     S
C72    H74     1.109   .     S
C72    H73     1.105   .     S
C72    H2163   1.104   .     S
H75    C2682   1.104   1_544 S
O76    C77     1.411   .     S
C77    H79     1.117   .     S
C77    C80     1.523   .     S
C77    H1644   1.099   1_554 S
H78    C1643   1.099   .     S
C80    C83     1.529   .     S
C80    H81     1.105   .     S
C80    H82     1.105   .     S
C83    H84     1.110   .     S
C83    H85     1.110   .     S
C83    H86     1.110   .     S
O87    C88     1.424   .     S
C88    C91     1.519   .     S
C88    H89     1.101   .     S
C88    H90     1.109   .     S
C91    H92     1.108   .     S
C91    H93     1.102   .     S
C91    C94     1.528   .     S
C94    H97     1.111   .     S
C94    H96     1.110   .     S
C94    H95     1.109   .     S
O98    C99     1.425   .     S
C99    C102    1.530   .     S
C99    H101    1.110   .     S
C99    H100    1.110   .     S
C102   C105    1.521   .     S
C102   H104    1.109   .     S
C102   H103    1.109   .     S
C105   H108    1.101   .     S
C105   H107    1.110   .     S
C105   H106    1.109   .     S
O109   C110    1.421   .     S
C110   H111    1.108   .     S
C110   C113    1.536   .     S
C110   H112    1.112   .     S
C113   C116    1.525   .     S
C113   H114    1.106   .     S
C113   H115    1.112   .     S
C116   H117    1.111   .     S
C116   H119    1.110   .     S
C116   H118    1.106   .     S
O120   C121    1.422   .     S
C121   C124    1.537   .     S
C121   H123    1.115   .     S
C121   H122    1.109   .     S
C124   C127    1.529   .     S
C124   H126    1.109   .     S
C124   H1169   1.111   1_545 S
H125   C646    1.111   .     S
C127   H129    1.110   .     S
C127   H130    1.107   .     S
C127   H128    1.110   .     S
O131   C132    1.428   .     S
C132   H133    1.108   .     S
C132   C135    1.557   .     S
C132   H134    1.111   .     S
C135   C138    1.523   .     S
C135   H484    1.110   1_455 S
C135   H485    1.105   1_455 S
H136   C309    1.110   .     S
H137   C309    1.105   .     S
C138   H140    1.103   .     S
C138   H141    1.110   .     S
C138   H487    1.109   1_455 S
H139   C312    1.109   .     S
O142   C143    1.421   .     S
C143   C146    1.535   .     S
C143   H145    1.115   .     S
C143   H144    1.111   .     S
C146   C149    1.523   .     S
C146   H321    1.103   .     S
C146   H322    1.111   .     S
H147   C494    1.103   1_455 S
H148   C494    1.111   1_455 S
C149   H151    1.108   .     S
C149   H150    1.109   .     S
C149   H674    1.111   .     S
H152   C1193   1.111   1_545 S
O153   C154    1.412   .     S
C154   H156    1.112   .     S
C154   C157    1.529   .     S
C154   H155    1.106   .     S
C157   C160    1.526   .     S
C157   H332    1.103   .     S
C157   H333    1.109   .     S
H158   C505    1.103   1_455 S
H159   C505    1.109   1_455 S
C160   H161    1.109   .     S
C160   H336    1.107   .     S
C160   H1207   1.109   1_545 S
H162   C508    1.107   1_455 S
H163   C682    1.109   .     S
O164   C165    1.408   .     S
C165   H166    1.117   .     S
C165   H167    1.106   .     S
C165   C168    1.521   .     S
C168   C171    1.505   .     S
C168   H170    1.107   .     S
C168   H169    1.093   .     S
C171   H172    1.109   .     S
C171   H173    1.109   .     S
C171   H174    1.109   .     S
O175   Cu189   1.993   .     S
O175   C181    1.291   .     A
O176   Cu190   1.993   .     S
O176   C182    1.301   .     A
O177   C182    1.300   .     A
O177   Cu189   1.994   .     S
O178   C181    1.304   .     A
O178   Cu190   1.994   .     S
N179   C194    1.370   .     A
N179   C192    1.362   .     A
N179   Cu189   2.020   .     S
N180   C193    1.366   .     A
N180   C191    1.367   .     A
N180   Cu190   2.020   .     S
C181   C212    1.467   .     S
C182   C211    1.479   .     S
O183   C187    1.312   .     A
O183   Cu189   2.018   .     S
O184   C188    1.301   .     A
O184   Cu190   2.018   .     S
O185   C188    1.308   .     A
O185   Cu189   2.024   .     S
O186   Cu190   2.024   .     S
O186   C187    1.306   .     A
C187   C207    1.512   .     S
C188   C208    1.496   .     S
Cu189  Cu190   2.689   .     S
C191   F213    1.354   .     S
C191   C1238   1.418   1_545 S
C192   F214    1.342   .     S
C192   C715    1.415   .     S
C193   F215    1.352   .     S
C193   C1236   1.415   1_545 S
C194   F216    1.354   .     S
C194   C713    1.418   .     S
C195   O305    1.385   .     S
C195   C212    1.400   .     A
C196   C211    1.418   .     A
C196   O316    1.384   .     S
C196   C372    1.395   .     S
C197   C211    1.418   .     A
C197   O327    1.378   .     S
C197   C369    1.391   .     S
C198   O338    1.378   .     S
C198   C212    1.411   .     A
C199   O217    1.379   .     S
C199   C203    1.409   .     A
C199   C209    1.433   .     A
C200   O228    1.380   .     S
C200   C204    1.410   .     A
C200   C210    1.440   .     A
C201   C205    1.406   .     A
C201   O239    1.377   .     S
C201   C210    1.440   .     A
C202   C209    1.432   .     A
C202   C206    1.414   .     A
C202   O250    1.373   .     S
C203   O261    1.388   .     S
C203   C207    1.419   .     A
C204   C208    1.411   .     A
C204   O272    1.391   .     S
C205   O283    1.383   .     S
C205   C208    1.405   .     A
C206   O294    1.385   .     S
C206   C207    1.420   .     A
C209   C1776   1.560   1_554 S
C210   C1775   1.560   .     S
O217   C218    1.410   .     S
C218   H219    1.112   .     S
C218   C221    1.529   .     S
C218   H220    1.116   .     S
C221   H223    1.109   .     S
C221   H222    1.108   .     S
C221   C224    1.531   .     S
C224   H225    1.111   .     S
C224   H400    1.109   .     S
C224   H1967   1.108   1_554 S
H227   C1616   1.108   .     S
O228   C229    1.412   .     S
C229   H230    1.104   .     S
C229   H231    1.116   .     S
C229   C232    1.529   .     S
C232   H234    1.111   .     S
C232   C235    1.529   .     S
C232   H233    1.112   .     S
C235   H237    1.107   .     S
C235   H236    1.110   .     S
C235   H238    1.108   .     S
O239   C240    1.407   .     S
C240   C243    1.515   .     S
C240   H1807   1.105   .     S
C240   H1808   1.110   .     S
H241   C1806   1.105   1_554 S
H242   C1806   1.110   1_554 S
C243   H244    1.111   .     S
C243   H245    1.108   .     S
C243   C246    1.520   .     S
C246   H248    1.109   .     S
C246   H247    1.105   .     S
C246   H2337   1.104   .     S
H249   C2856   1.104   1_544 S
O250   C251    1.411   .     S
C251   H253    1.117   .     S
C251   C254    1.523   .     S
C251   H1818   1.099   1_554 S
H252   C1817   1.099   .     S
C254   C257    1.529   .     S
C254   H255    1.105   .     S
C254   H256    1.105   .     S
C257   H258    1.110   .     S
C257   H259    1.110   .     S
C257   H260    1.110   .     S
O261   C262    1.424   .     S
C262   C265    1.519   .     S
C262   H263    1.101   .     S
C262   H264    1.109   .     S
C265   H266    1.108   .     S
C265   H267    1.102   .     S
C265   C268    1.528   .     S
C268   H271    1.111   .     S
C268   H270    1.110   .     S
C268   H269    1.109   .     S
O272   C273    1.425   .     S
C273   C276    1.530   .     S
C273   H275    1.110   .     S
C273   H274    1.110   .     S
C276   C279    1.521   .     S
C276   H278    1.109   .     S
C276   H277    1.109   .     S
C279   H282    1.101   .     S
C279   H281    1.110   .     S
C279   H280    1.109   .     S
O283   C284    1.421   .     S
C284   H285    1.108   .     S
C284   C287    1.536   .     S
C284   H286    1.112   .     S
C287   C290    1.525   .     S
C287   H288    1.106   .     S
C287   H289    1.112   .     S
C290   H291    1.111   .     S
C290   H293    1.110   .     S
C290   H292    1.106   .     S
O294   C295    1.422   .     S
C295   C298    1.537   .     S
C295   H297    1.115   .     S
C295   H296    1.109   .     S
C298   C301    1.529   .     S
C298   H300    1.109   .     S
C298   H1343   1.111   1_545 S
H299   C820    1.111   .     S
C301   H303    1.110   .     S
C301   H304    1.107   .     S
C301   H302    1.110   .     S
O305   C306    1.428   .     S
C306   H307    1.108   .     S
C306   C309    1.557   .     S
C306   H308    1.111   .     S
C309   C312    1.523   .     S
H310   C483    1.110   .     S
H311   C483    1.105   .     S
C312   H314    1.103   .     S
C312   H315    1.110   .     S
H313   C486    1.109   .     S
O316   C317    1.421   .     S
C317   C320    1.535   .     S
C317   H319    1.115   .     S
C317   H318    1.111   .     S
C320   C323    1.523   .     S
C320   H495    1.103   .     S
C320   H496    1.111   .     S
C323   H325    1.108   .     S
C323   H324    1.109   .     S
C323   H848    1.111   .     S
H326   C1367   1.111   1_545 S
O327   C328    1.412   .     S
C328   H330    1.112   .     S
C328   C331    1.529   .     S
C328   H329    1.106   .     S
C331   C334    1.526   .     S
C331   H506    1.103   .     S
C331   H507    1.109   .     S
C334   H335    1.109   .     S
C334   H510    1.107   .     S
C334   H1381   1.109   1_545 S
H337   C856    1.109   .     S
O338   C339    1.408   .     S
C339   H340    1.117   .     S
C339   H341    1.106   .     S
C339   C342    1.521   .     S
C342   C345    1.505   .     S
C342   H344    1.107   .     S
C342   H343    1.093   .     S
C345   H346    1.109   .     S
C345   H347    1.109   .     S
C345   H348    1.109   .     S
O349   Cu363   1.993   .     S
O349   C355    1.291   .     A
O350   Cu364   1.993   .     S
O350   C356    1.301   .     A
O351   C356    1.300   .     A
O351   Cu363   1.994   .     S
O352   C355    1.304   .     A
O352   Cu364   1.994   .     S
N353   C368    1.370   .     A
N353   C366    1.362   .     A
N353   Cu363   2.020   .     S
N354   C367    1.366   .     A
N354   C365    1.367   .     A
N354   Cu364   2.020   .     S
C355   C386    1.467   .     S
C356   C385    1.479   .     S
O357   C361    1.312   .     A
O357   Cu363   2.018   .     S
O358   C362    1.301   .     A
O358   Cu364   2.018   .     S
O359   C362    1.308   .     A
O359   Cu363   2.024   .     S
O360   Cu364   2.024   .     S
O360   C361    1.306   .     A
C361   C381    1.512   .     S
C362   C382    1.496   .     S
Cu363  Cu364   2.689   .     S
C365   F387    1.354   .     S
C365   C1412   1.418   1_545 S
C366   F388    1.342   .     S
C366   C889    1.415   .     S
C367   F389    1.352   .     S
C367   C1410   1.415   1_545 S
C368   F390    1.354   .     S
C368   C887    1.418   .     S
C369   O479    1.385   .     S
C369   C386    1.400   .     A
C370   C385    1.418   .     A
C370   O490    1.384   .     S
C370   C24     1.395   1_655 S
C371   C385    1.418   .     A
C371   O501    1.378   .     S
C371   C21     1.391   1_655 S
C372   O512    1.378   .     S
C372   C386    1.411   .     A
C373   O391    1.379   .     S
C373   C377    1.409   .     A
C373   C383    1.433   .     A
C374   O402    1.380   .     S
C374   C378    1.410   .     A
C374   C384    1.440   .     A
C375   C379    1.406   .     A
C375   O413    1.377   .     S
C375   C384    1.440   .     A
C376   C383    1.432   .     A
C376   C380    1.414   .     A
C376   O424    1.373   .     S
C377   O435    1.388   .     S
C377   C381    1.419   .     A
C378   C382    1.411   .     A
C378   O446    1.391   .     S
C379   O457    1.383   .     S
C379   C382    1.405   .     A
C380   O468    1.385   .     S
C380   C381    1.420   .     A
C383   C1950   1.560   1_554 S
C384   C1949   1.560   .     S
O391   C392    1.410   .     S
C392   H393    1.112   .     S
C392   C395    1.529   .     S
C392   H394    1.116   .     S
C395   H397    1.109   .     S
C395   H396    1.108   .     S
C395   C398    1.531   .     S
C398   H399    1.111   .     S
C398   H52     1.109   1_655 S
C398   H1619   1.108   1_654 S
H401   C1790   1.108   .     S
O402   C403    1.412   .     S
C403   H404    1.104   .     S
C403   H405    1.116   .     S
C403   C406    1.529   .     S
C406   H408    1.111   .     S
C406   C409    1.529   .     S
C406   H407    1.112   .     S
C409   H411    1.107   .     S
C409   H410    1.110   .     S
C409   H412    1.108   .     S
O413   C414    1.407   .     S
C414   C417    1.515   .     S
C414   H1981   1.105   .     S
C414   H1982   1.110   .     S
H415   C1980   1.105   1_554 S
H416   C1980   1.110   1_554 S
C417   H418    1.111   .     S
C417   H419    1.108   .     S
C417   C420    1.520   .     S
C420   H422    1.109   .     S
C420   H421    1.105   .     S
C420   H2511   1.104   .     S
H423   C3030   1.104   1_544 S
O424   C425    1.411   .     S
C425   H427    1.117   .     S
C425   C428    1.523   .     S
C425   H1992   1.099   1_554 S
H426   C1991   1.099   .     S
C428   C431    1.529   .     S
C428   H429    1.105   .     S
C428   H430    1.105   .     S
C431   H432    1.110   .     S
C431   H433    1.110   .     S
C431   H434    1.110   .     S
O435   C436    1.424   .     S
C436   C439    1.519   .     S
C436   H437    1.101   .     S
C436   H438    1.109   .     S
C439   H440    1.108   .     S
C439   H441    1.102   .     S
C439   C442    1.528   .     S
C442   H445    1.111   .     S
C442   H444    1.110   .     S
C442   H443    1.109   .     S
O446   C447    1.425   .     S
C447   C450    1.530   .     S
C447   H449    1.110   .     S
C447   H448    1.110   .     S
C450   C453    1.521   .     S
C450   H452    1.109   .     S
C450   H451    1.109   .     S
C453   H456    1.101   .     S
C453   H455    1.110   .     S
C453   H454    1.109   .     S
O457   C458    1.421   .     S
C458   H459    1.108   .     S
C458   C461    1.536   .     S
C458   H460    1.112   .     S
C461   C464    1.525   .     S
C461   H462    1.106   .     S
C461   H463    1.112   .     S
C464   H465    1.111   .     S
C464   H467    1.110   .     S
C464   H466    1.106   .     S
O468   C469    1.422   .     S
C469   C472    1.537   .     S
C469   H471    1.115   .     S
C469   H470    1.109   .     S
C472   C475    1.529   .     S
C472   H474    1.109   .     S
C472   H1517   1.111   1_545 S
H473   C994    1.111   .     S
C475   H477    1.110   .     S
C475   H478    1.107   .     S
C475   H476    1.110   .     S
O479   C480    1.428   .     S
C480   H481    1.108   .     S
C480   C483    1.557   .     S
C480   H482    1.111   .     S
C483   C486    1.523   .     S
H484   C135    1.110   1_655 S
H485   C135    1.105   1_655 S
C486   H488    1.103   .     S
C486   H489    1.110   .     S
H487   C138    1.109   1_655 S
O490   C491    1.421   .     S
C491   C494    1.535   .     S
C491   H493    1.115   .     S
C491   H492    1.111   .     S
C494   C497    1.523   .     S
C494   H147    1.103   1_655 S
C494   H148    1.111   1_655 S
C497   H499    1.108   .     S
C497   H498    1.109   .     S
C497   H1022   1.111   .     S
H500   C1541   1.111   1_545 S
O501   C502    1.412   .     S
C502   H504    1.112   .     S
C502   C505    1.529   .     S
C502   H503    1.106   .     S
C505   C508    1.526   .     S
C505   H158    1.103   1_655 S
C505   H159    1.109   1_655 S
C508   H509    1.109   .     S
C508   H162    1.107   1_655 S
C508   H1555   1.109   1_545 S
H511   C1030   1.109   .     S
O512   C513    1.408   .     S
C513   H514    1.117   .     S
C513   H515    1.106   .     S
C513   C516    1.521   .     S
C516   C519    1.505   .     S
C516   H518    1.107   .     S
C516   H517    1.093   .     S
C519   H520    1.109   .     S
C519   H521    1.109   .     S
C519   H522    1.109   .     S
O523   Cu537   1.993   .     S
O523   C529    1.291   .     A
O524   Cu538   1.993   .     S
O524   C530    1.301   .     A
O525   C530    1.300   .     A
O525   Cu537   1.994   .     S
O526   C529    1.304   .     A
O526   Cu538   1.994   .     S
N527   C542    1.370   .     A
N527   C540    1.362   .     A
N527   Cu537   2.020   .     S
N528   C541    1.366   .     A
N528   C539    1.367   .     A
N528   Cu538   2.020   .     S
C529   C560    1.467   .     S
C530   C559    1.479   .     S
O531   C535    1.312   .     A
O531   Cu537   2.018   .     S
O532   C536    1.301   .     A
O532   Cu538   2.018   .     S
O533   C536    1.308   .     A
O533   Cu537   2.024   .     S
O534   Cu538   2.024   .     S
O534   C535    1.306   .     A
C535   C555    1.512   .     S
C536   C556    1.496   .     S
Cu537  Cu538   2.689   .     S
C539   F561    1.354   .     S
C540   F562    1.342   .     S
C540   C1063   1.415   .     S
C541   F563    1.352   .     S
C542   F564    1.354   .     S
C542   C1061   1.418   .     S
C543   O653    1.385   .     S
C543   C560    1.400   .     A
C543   C893    1.391   1_455 S
C544   C559    1.418   .     A
C544   O664    1.384   .     S
C544   C720    1.395   .     S
C545   C559    1.418   .     A
C545   O675    1.378   .     S
C545   C717    1.391   .     S
C546   O686    1.378   .     S
C546   C560    1.411   .     A
C546   C892    1.395   1_455 S
C547   O565    1.379   .     S
C547   C551    1.409   .     A
C547   C557    1.433   .     A
C548   O576    1.380   .     S
C548   C552    1.410   .     A
C548   C558    1.440   .     A
C549   C553    1.406   .     A
C549   O587    1.377   .     S
C549   C558    1.440   .     A
C550   C557    1.432   .     A
C550   C554    1.414   .     A
C550   O598    1.373   .     S
C551   O609    1.388   .     S
C551   C555    1.419   .     A
C552   C556    1.411   .     A
C552   O620    1.391   .     S
C553   O631    1.383   .     S
C553   C556    1.405   .     A
C554   O642    1.385   .     S
C554   C555    1.420   .     A
C557   C2124   1.560   1_554 S
C558   C2123   1.560   .     S
O565   C566    1.410   .     S
C566   H567    1.112   .     S
C566   C569    1.529   .     S
C566   H568    1.116   .     S
C569   H571    1.109   .     S
C569   H570    1.108   .     S
C569   C572    1.531   .     S
C572   H573    1.111   .     S
C572   H748    1.109   .     S
C572   H2315   1.108   1_554 S
H574   C920    1.109   1_455 S
H575   C2486   1.108   1_455 S
O576   C577    1.412   .     S
C577   H578    1.104   .     S
C577   H579    1.116   .     S
C577   C580    1.529   .     S
C580   H582    1.111   .     S
C580   C583    1.529   .     S
C580   H581    1.112   .     S
C583   H585    1.107   .     S
C583   H584    1.110   .     S
C583   H586    1.108   .     S
O587   C588    1.407   .     S
C588   C591    1.515   .     S
C588   H2155   1.105   .     S
C588   H2156   1.110   .     S
H589   C2154   1.105   1_554 S
H590   C2154   1.110   1_554 S
C591   H592    1.111   .     S
C591   H593    1.108   .     S
C591   C594    1.520   .     S
C594   H596    1.109   .     S
C594   H595    1.105   .     S
C594   H2685   1.104   .     S
H597   C1638   1.104   1_554 S
O598   C599    1.411   .     S
C599   H601    1.117   .     S
C599   C602    1.523   .     S
C599   H2166   1.099   1_554 S
H600   C2165   1.099   .     S
C602   C605    1.529   .     S
C602   H603    1.105   .     S
C602   H604    1.105   .     S
C605   H606    1.110   .     S
C605   H607    1.110   .     S
C605   H608    1.110   .     S
O609   C610    1.424   .     S
C610   C613    1.519   .     S
C610   H611    1.101   .     S
C610   H612    1.109   .     S
C613   H614    1.108   .     S
C613   H615    1.102   .     S
C613   C616    1.528   .     S
C616   H619    1.111   .     S
C616   H618    1.110   .     S
C616   H617    1.109   .     S
O620   C621    1.425   .     S
C621   C624    1.530   .     S
C621   H623    1.110   .     S
C621   H622    1.110   .     S
C624   C627    1.521   .     S
C624   H626    1.109   .     S
C624   H625    1.109   .     S
C627   H630    1.101   .     S
C627   H629    1.110   .     S
C627   H628    1.109   .     S
O631   C632    1.421   .     S
C632   H633    1.108   .     S
C632   C635    1.536   .     S
C632   H634    1.112   .     S
C635   C638    1.525   .     S
C635   H636    1.106   .     S
C635   H637    1.112   .     S
C638   H639    1.111   .     S
C638   H641    1.110   .     S
C638   H640    1.106   .     S
O642   C643    1.422   .     S
C643   C646    1.537   .     S
C643   H645    1.115   .     S
C643   H644    1.109   .     S
C646   C649    1.529   .     S
C646   H648    1.109   .     S
H647   C1168   1.111   .     S
C649   H651    1.110   .     S
C649   H652    1.107   .     S
C649   H650    1.110   .     S
O653   C654    1.428   .     S
C654   H655    1.108   .     S
C654   C657    1.557   .     S
C654   H656    1.111   .     S
C657   C660    1.523   .     S
C657   H1006   1.110   1_455 S
C657   H1007   1.105   1_455 S
H658   C831    1.110   .     S
H659   C831    1.105   .     S
C660   H662    1.103   .     S
C660   H663    1.110   .     S
C660   H1009   1.109   1_455 S
H661   C834    1.109   .     S
O664   C665    1.421   .     S
C665   C668    1.535   .     S
C665   H667    1.115   .     S
C665   H666    1.111   .     S
C668   C671    1.523   .     S
C668   H843    1.103   .     S
C668   H844    1.111   .     S
H669   C1016   1.103   1_455 S
H670   C1016   1.111   1_455 S
C671   H673    1.108   .     S
C671   H672    1.109   .     S
C671   H1196   1.111   .     S
O675   C676    1.412   .     S
C676   H678    1.112   .     S
C676   C679    1.529   .     S
C676   H677    1.106   .     S
C679   C682    1.526   .     S
C679   H854    1.103   .     S
C679   H855    1.109   .     S
H680   C1027   1.103   1_455 S
H681   C1027   1.109   1_455 S
C682   H683    1.109   .     S
C682   H858    1.107   .     S
H684   C1030   1.107   1_455 S
H685   C1204   1.109   .     S
O686   C687    1.408   .     S
C687   H688    1.117   .     S
C687   H689    1.106   .     S
C687   C690    1.521   .     S
C690   C693    1.505   .     S
C690   H692    1.107   .     S
C690   H691    1.093   .     S
C693   H694    1.109   .     S
C693   H695    1.109   .     S
C693   H696    1.109   .     S
O697   Cu711   1.993   .     S
O697   C703    1.291   .     A
O698   Cu712   1.993   .     S
O698   C704    1.301   .     A
O699   C704    1.300   .     A
O699   Cu711   1.994   .     S
O700   C703    1.304   .     A
O700   Cu712   1.994   .     S
N701   C716    1.370   .     A
N701   C714    1.362   .     A
N701   Cu711   2.020   .     S
N702   C715    1.366   .     A
N702   C713    1.367   .     A
N702   Cu712   2.020   .     S
C703   C734    1.467   .     S
C704   C733    1.479   .     S
O705   C709    1.312   .     A
O705   Cu711   2.018   .     S
O706   C710    1.301   .     A
O706   Cu712   2.018   .     S
O707   C710    1.308   .     A
O707   Cu711   2.024   .     S
O708   Cu712   2.024   .     S
O708   C709    1.306   .     A
C709   C729    1.512   .     S
C710   C730    1.496   .     S
Cu711  Cu712   2.689   .     S
C713   F735    1.354   .     S
C714   F736    1.342   .     S
C714   C1237   1.415   .     S
C715   F737    1.352   .     S
C716   F738    1.354   .     S
C716   C1235   1.418   .     S
C717   O827    1.385   .     S
C717   C734    1.400   .     A
C718   C733    1.418   .     A
C718   O838    1.384   .     S
C718   C894    1.395   .     S
C719   C733    1.418   .     A
C719   O849    1.378   .     S
C719   C891    1.391   .     S
C720   O860    1.378   .     S
C720   C734    1.411   .     A
C721   O739    1.379   .     S
C721   C725    1.409   .     A
C721   C731    1.433   .     A
C722   O750    1.380   .     S
C722   C726    1.410   .     A
C722   C732    1.440   .     A
C723   C727    1.406   .     A
C723   O761    1.377   .     S
C723   C732    1.440   .     A
C724   C731    1.432   .     A
C724   C728    1.414   .     A
C724   O772    1.373   .     S
C725   O783    1.388   .     S
C725   C729    1.419   .     A
C726   C730    1.411   .     A
C726   O794    1.391   .     S
C727   O805    1.383   .     S
C727   C730    1.405   .     A
C728   O816    1.385   .     S
C728   C729    1.420   .     A
C731   C2298   1.560   1_554 S
C732   C2297   1.560   .     S
O739   C740    1.410   .     S
C740   H741    1.112   .     S
C740   C743    1.529   .     S
C740   H742    1.116   .     S
C743   H745    1.109   .     S
C743   H744    1.108   .     S
C743   C746    1.531   .     S
C746   H747    1.111   .     S
C746   H922    1.109   .     S
C746   H2489   1.108   1_554 S
H749   C2138   1.108   .     S
O750   C751    1.412   .     S
C751   H752    1.104   .     S
C751   H753    1.116   .     S
C751   C754    1.529   .     S
C754   H756    1.111   .     S
C754   C757    1.529   .     S
C754   H755    1.112   .     S
C757   H759    1.107   .     S
C757   H758    1.110   .     S
C757   H760    1.108   .     S
O761   C762    1.407   .     S
C762   C765    1.515   .     S
C762   H2329   1.105   .     S
C762   H2330   1.110   .     S
H763   C2328   1.105   1_554 S
H764   C2328   1.110   1_554 S
C765   H766    1.111   .     S
C765   H767    1.108   .     S
C765   C768    1.520   .     S
C768   H770    1.109   .     S
C768   H769    1.105   .     S
C768   H2859   1.104   .     S
H771   C1812   1.104   1_554 S
O772   C773    1.411   .     S
C773   H775    1.117   .     S
C773   C776    1.523   .     S
C773   H2340   1.099   1_554 S
H774   C2339   1.099   .     S
C776   C779    1.529   .     S
C776   H777    1.105   .     S
C776   H778    1.105   .     S
C779   H780    1.110   .     S
C779   H781    1.110   .     S
C779   H782    1.110   .     S
O783   C784    1.424   .     S
C784   C787    1.519   .     S
C784   H785    1.101   .     S
C784   H786    1.109   .     S
C787   H788    1.108   .     S
C787   H789    1.102   .     S
C787   C790    1.528   .     S
C790   H793    1.111   .     S
C790   H792    1.110   .     S
C790   H791    1.109   .     S
O794   C795    1.425   .     S
C795   C798    1.530   .     S
C795   H797    1.110   .     S
C795   H796    1.110   .     S
C798   C801    1.521   .     S
C798   H800    1.109   .     S
C798   H799    1.109   .     S
C801   H804    1.101   .     S
C801   H803    1.110   .     S
C801   H802    1.109   .     S
O805   C806    1.421   .     S
C806   H807    1.108   .     S
C806   C809    1.536   .     S
C806   H808    1.112   .     S
C809   C812    1.525   .     S
C809   H810    1.106   .     S
C809   H811    1.112   .     S
C812   H813    1.111   .     S
C812   H815    1.110   .     S
C812   H814    1.106   .     S
O816   C817    1.422   .     S
C817   C820    1.537   .     S
C817   H819    1.115   .     S
C817   H818    1.109   .     S
C820   C823    1.529   .     S
C820   H822    1.109   .     S
H821   C1342   1.111   .     S
C823   H825    1.110   .     S
C823   H826    1.107   .     S
C823   H824    1.110   .     S
O827   C828    1.428   .     S
C828   H829    1.108   .     S
C828   C831    1.557   .     S
C828   H830    1.111   .     S
C831   C834    1.523   .     S
H832   C1005   1.110   .     S
H833   C1005   1.105   .     S
C834   H836    1.103   .     S
C834   H837    1.110   .     S
H835   C1008   1.109   .     S
O838   C839    1.421   .     S
C839   C842    1.535   .     S
C839   H841    1.115   .     S
C839   H840    1.111   .     S
C842   C845    1.523   .     S
C842   H1017   1.103   .     S
C842   H1018   1.111   .     S
C845   H847    1.108   .     S
C845   H846    1.109   .     S
C845   H1370   1.111   .     S
O849   C850    1.412   .     S
C850   H852    1.112   .     S
C850   C853    1.529   .     S
C850   H851    1.106   .     S
C853   C856    1.526   .     S
C853   H1028   1.103   .     S
C853   H1029   1.109   .     S
C856   H857    1.109   .     S
C856   H1032   1.107   .     S
H859   C1378   1.109   .     S
O860   C861    1.408   .     S
C861   H862    1.117   .     S
C861   H863    1.106   .     S
C861   C864    1.521   .     S
C864   C867    1.505   .     S
C864   H866    1.107   .     S
C864   H865    1.093   .     S
C867   H868    1.109   .     S
C867   H869    1.109   .     S
C867   H870    1.109   .     S
O871   Cu885   1.993   .     S
O871   C877    1.291   .     A
O872   Cu886   1.993   .     S
O872   C878    1.301   .     A
O873   C878    1.300   .     A
O873   Cu885   1.994   .     S
O874   C877    1.304   .     A
O874   Cu886   1.994   .     S
N875   C890    1.370   .     A
N875   C888    1.362   .     A
N875   Cu885   2.020   .     S
N876   C889    1.366   .     A
N876   C887    1.367   .     A
N876   Cu886   2.020   .     S
C877   C908    1.467   .     S
C878   C907    1.479   .     S
O879   C883    1.312   .     A
O879   Cu885   2.018   .     S
O880   C884    1.301   .     A
O880   Cu886   2.018   .     S
O881   C884    1.308   .     A
O881   Cu885   2.024   .     S
O882   Cu886   2.024   .     S
O882   C883    1.306   .     A
C883   C903    1.512   .     S
C884   C904    1.496   .     S
Cu885  Cu886   2.689   .     S
C887   F909    1.354   .     S
C888   F910    1.342   .     S
C888   C1411   1.415   .     S
C889   F911    1.352   .     S
C890   F912    1.354   .     S
C890   C1409   1.418   .     S
C891   O1001   1.385   .     S
C891   C908    1.400   .     A
C892   C907    1.418   .     A
C892   O1012   1.384   .     S
C892   C546    1.395   1_655 S
C893   C907    1.418   .     A
C893   O1023   1.378   .     S
C893   C543    1.391   1_655 S
C894   O1034   1.378   .     S
C894   C908    1.411   .     A
C895   O913    1.379   .     S
C895   C899    1.409   .     A
C895   C905    1.433   .     A
C896   O924    1.380   .     S
C896   C900    1.410   .     A
C896   C906    1.440   .     A
C897   C901    1.406   .     A
C897   O935    1.377   .     S
C897   C906    1.440   .     A
C898   C905    1.432   .     A
C898   C902    1.414   .     A
C898   O946    1.373   .     S
C899   O957    1.388   .     S
C899   C903    1.419   .     A
C900   C904    1.411   .     A
C900   O968    1.391   .     S
C901   O979    1.383   .     S
C901   C904    1.405   .     A
C902   O990    1.385   .     S
C902   C903    1.420   .     A
C905   C2472   1.560   1_554 S
C906   C2471   1.560   .     S
O913   C914    1.410   .     S
C914   H915    1.112   .     S
C914   C917    1.529   .     S
C914   H916    1.116   .     S
C917   H919    1.109   .     S
C917   H918    1.108   .     S
C917   C920    1.531   .     S
C920   H921    1.111   .     S
C920   H574    1.109   1_655 S
C920   H2141   1.108   1_654 S
H923   C2312   1.108   .     S
O924   C925    1.412   .     S
C925   H926    1.104   .     S
C925   H927    1.116   .     S
C925   C928    1.529   .     S
C928   H930    1.111   .     S
C928   C931    1.529   .     S
C928   H929    1.112   .     S
C931   H933    1.107   .     S
C931   H932    1.110   .     S
C931   H934    1.108   .     S
O935   C936    1.407   .     S
C936   C939    1.515   .     S
C936   H2503   1.105   .     S
C936   H2504   1.110   .     S
H937   C2502   1.105   1_554 S
H938   C2502   1.110   1_554 S
C939   H940    1.111   .     S
C939   H941    1.108   .     S
C939   C942    1.520   .     S
C942   H944    1.109   .     S
C942   H943    1.105   .     S
C942   H3033   1.104   .     S
H945   C1986   1.104   1_554 S
O946   C947    1.411   .     S
C947   H949    1.117   .     S
C947   C950    1.523   .     S
C947   H2514   1.099   1_554 S
H948   C2513   1.099   .     S
C950   C953    1.529   .     S
C950   H951    1.105   .     S
C950   H952    1.105   .     S
C953   H954    1.110   .     S
C953   H955    1.110   .     S
C953   H956    1.110   .     S
O957   C958    1.424   .     S
C958   C961    1.519   .     S
C958   H959    1.101   .     S
C958   H960    1.109   .     S
C961   H962    1.108   .     S
C961   H963    1.102   .     S
C961   C964    1.528   .     S
C964   H967    1.111   .     S
C964   H966    1.110   .     S
C964   H965    1.109   .     S
O968   C969    1.425   .     S
C969   C972    1.530   .     S
C969   H971    1.110   .     S
C969   H970    1.110   .     S
C972   C975    1.521   .     S
C972   H974    1.109   .     S
C972   H973    1.109   .     S
C975   H978    1.101   .     S
C975   H977    1.110   .     S
C975   H976    1.109   .     S
O979   C980    1.421   .     S
C980   H981    1.108   .     S
C980   C983    1.536   .     S
C980   H982    1.112   .     S
C983   C986    1.525   .     S
C983   H984    1.106   .     S
C983   H985    1.112   .     S
C986   H987    1.111   .     S
C986   H989    1.110   .     S
C986   H988    1.106   .     S
O990   C991    1.422   .     S
C991   C994    1.537   .     S
C991   H993    1.115   .     S
C991   H992    1.109   .     S
C994   C997    1.529   .     S
C994   H996    1.109   .     S
H995   C1516   1.111   .     S
C997   H999    1.110   .     S
C997   H1000   1.107   .     S
C997   H998    1.110   .     S
O1001  C1002   1.428   .     S
C1002  H1003   1.108   .     S
C1002  C1005   1.557   .     S
C1002  H1004   1.111   .     S
C1005  C1008   1.523   .     S
H1006  C657    1.110   1_655 S
H1007  C657    1.105   1_655 S
C1008  H1010   1.103   .     S
C1008  H1011   1.110   .     S
H1009  C660    1.109   1_655 S
O1012  C1013   1.421   .     S
C1013  C1016   1.535   .     S
C1013  H1015   1.115   .     S
C1013  H1014   1.111   .     S
C1016  C1019   1.523   .     S
C1016  H669    1.103   1_655 S
C1016  H670    1.111   1_655 S
C1019  H1021   1.108   .     S
C1019  H1020   1.109   .     S
C1019  H1544   1.111   .     S
O1023  C1024   1.412   .     S
C1024  H1026   1.112   .     S
C1024  C1027   1.529   .     S
C1024  H1025   1.106   .     S
C1027  C1030   1.526   .     S
C1027  H680    1.103   1_655 S
C1027  H681    1.109   1_655 S
C1030  H1031   1.109   .     S
C1030  H684    1.107   1_655 S
H1033  C1552   1.109   .     S
O1034  C1035   1.408   .     S
C1035  H1036   1.117   .     S
C1035  H1037   1.106   .     S
C1035  C1038   1.521   .     S
C1038  C1041   1.505   .     S
C1038  H1040   1.107   .     S
C1038  H1039   1.093   .     S
C1041  H1042   1.109   .     S
C1041  H1043   1.109   .     S
C1041  H1044   1.109   .     S
O1045  Cu1059  1.993   .     S
O1045  C1051   1.291   .     A
O1046  Cu1060  1.993   .     S
O1046  C1052   1.301   .     A
O1047  C1052   1.300   .     A
O1047  Cu1059  1.994   .     S
O1048  C1051   1.304   .     A
O1048  Cu1060  1.994   .     S
N1049  C1064   1.370   .     A
N1049  C1062   1.362   .     A
N1049  Cu1059  2.020   .     S
N1050  C1063   1.366   .     A
N1050  C1061   1.367   .     A
N1050  Cu1060  2.020   .     S
C1051  C1082   1.467   .     S
C1052  C1081   1.479   .     S
O1053  C1057   1.312   .     A
O1053  Cu1059  2.018   .     S
O1054  C1058   1.301   .     A
O1054  Cu1060  2.018   .     S
O1055  C1058   1.308   .     A
O1055  Cu1059  2.024   .     S
O1056  Cu1060  2.024   .     S
O1056  C1057   1.306   .     A
C1057  C1077   1.512   .     S
C1058  C1078   1.496   .     S
Cu1059 Cu1060  2.689   .     S
C1061  F1083   1.354   .     S
C1062  F1084   1.342   .     S
C1062  C19     1.415   1_565 S
C1063  F1085   1.352   .     S
C1064  F1086   1.354   .     S
C1064  C17     1.418   1_565 S
C1065  O1175   1.385   .     S
C1065  C1082   1.400   .     A
C1065  C1415   1.391   1_455 S
C1066  C1081   1.418   .     A
C1066  O1186   1.384   .     S
C1066  C1242   1.395   .     S
C1067  C1081   1.418   .     A
C1067  O1197   1.378   .     S
C1067  C1239   1.391   .     S
C1068  O1208   1.378   .     S
C1068  C1082   1.411   .     A
C1068  C1414   1.395   1_455 S
C1069  O1087   1.379   .     S
C1069  C1073   1.409   .     A
C1069  C1079   1.433   .     A
C1070  O1098   1.380   .     S
C1070  C1074   1.410   .     A
C1070  C1080   1.440   .     A
C1071  C1075   1.406   .     A
C1071  O1109   1.377   .     S
C1071  C1080   1.440   .     A
C1072  C1079   1.432   .     A
C1072  C1076   1.414   .     A
C1072  O1120   1.373   .     S
C1073  O1131   1.388   .     S
C1073  C1077   1.419   .     A
C1074  C1078   1.411   .     A
C1074  O1142   1.391   .     S
C1075  O1153   1.383   .     S
C1075  C1078   1.405   .     A
C1076  O1164   1.385   .     S
C1076  C1077   1.420   .     A
C1079  C2646   1.560   1_554 S
C1080  C2645   1.560   .     S
O1087  C1088   1.410   .     S
C1088  H1089   1.112   .     S
C1088  C1091   1.529   .     S
C1088  H1090   1.116   .     S
C1091  H1093   1.109   .     S
C1091  H1092   1.108   .     S
C1091  C1094   1.531   .     S
C1094  H1095   1.111   .     S
C1094  H1270   1.109   .     S
C1094  H2837   1.108   1_554 S
H1096  C1442   1.109   1_455 S
H1097  C3008   1.108   1_455 S
O1098  C1099   1.412   .     S
C1099  H1100   1.104   .     S
C1099  H1101   1.116   .     S
C1099  C1102   1.529   .     S
C1102  H1104   1.111   .     S
C1102  C1105   1.529   .     S
C1102  H1103   1.112   .     S
C1105  H1107   1.107   .     S
C1105  H1106   1.110   .     S
C1105  H1108   1.108   .     S
O1109  C1110   1.407   .     S
C1110  C1113   1.515   .     S
C1110  H2677   1.105   .     S
C1110  H2678   1.110   .     S
H1111  C2676   1.105   1_554 S
H1112  C2676   1.110   1_554 S
C1113  H1114   1.111   .     S
C1113  H1115   1.108   .     S
C1113  C1116   1.520   .     S
C1116  H1118   1.109   .     S
C1116  H1117   1.105   .     S
C1116  H1641   1.104   1_565 S
H1119  C2160   1.104   1_554 S
O1120  C1121   1.411   .     S
C1121  H1123   1.117   .     S
C1121  C1124   1.523   .     S
C1121  H2688   1.099   1_554 S
H1122  C2687   1.099   .     S
C1124  C1127   1.529   .     S
C1124  H1125   1.105   .     S
C1124  H1126   1.105   .     S
C1127  H1128   1.110   .     S
C1127  H1129   1.110   .     S
C1127  H1130   1.110   .     S
O1131  C1132   1.424   .     S
C1132  C1135   1.519   .     S
C1132  H1133   1.101   .     S
C1132  H1134   1.109   .     S
C1135  H1136   1.108   .     S
C1135  H1137   1.102   .     S
C1135  C1138   1.528   .     S
C1138  H1141   1.111   .     S
C1138  H1140   1.110   .     S
C1138  H1139   1.109   .     S
O1142  C1143   1.425   .     S
C1143  C1146   1.530   .     S
C1143  H1145   1.110   .     S
C1143  H1144   1.110   .     S
C1146  C1149   1.521   .     S
C1146  H1148   1.109   .     S
C1146  H1147   1.109   .     S
C1149  H1152   1.101   .     S
C1149  H1151   1.110   .     S
C1149  H1150   1.109   .     S
O1153  C1154   1.421   .     S
C1154  H1155   1.108   .     S
C1154  C1157   1.536   .     S
C1154  H1156   1.112   .     S
C1157  C1160   1.525   .     S
C1157  H1158   1.106   .     S
C1157  H1159   1.112   .     S
C1160  H1161   1.111   .     S
C1160  H1163   1.110   .     S
C1160  H1162   1.106   .     S
O1164  C1165   1.422   .     S
C1165  C1168   1.537   .     S
C1165  H1167   1.115   .     S
C1165  H1166   1.109   .     S
C1168  C1171   1.529   .     S
C1168  H1170   1.109   .     S
H1169  C124    1.111   1_565 S
C1171  H1173   1.110   .     S
C1171  H1174   1.107   .     S
C1171  H1172   1.110   .     S
O1175  C1176   1.428   .     S
C1176  H1177   1.108   .     S
C1176  C1179   1.557   .     S
C1176  H1178   1.111   .     S
C1179  C1182   1.523   .     S
C1179  H1528   1.110   1_455 S
C1179  H1529   1.105   1_455 S
H1180  C1353   1.110   .     S
H1181  C1353   1.105   .     S
C1182  H1184   1.103   .     S
C1182  H1185   1.110   .     S
C1182  H1531   1.109   1_455 S
H1183  C1356   1.109   .     S
O1186  C1187   1.421   .     S
C1187  C1190   1.535   .     S
C1187  H1189   1.115   .     S
C1187  H1188   1.111   .     S
C1190  C1193   1.523   .     S
C1190  H1365   1.103   .     S
C1190  H1366   1.111   .     S
H1191  C1538   1.103   1_455 S
H1192  C1538   1.111   1_455 S
C1193  H1195   1.108   .     S
C1193  H1194   1.109   .     S
C1193  H152    1.111   1_565 S
O1197  C1198   1.412   .     S
C1198  H1200   1.112   .     S
C1198  C1201   1.529   .     S
C1198  H1199   1.106   .     S
C1201  C1204   1.526   .     S
C1201  H1376   1.103   .     S
C1201  H1377   1.109   .     S
H1202  C1549   1.103   1_455 S
H1203  C1549   1.109   1_455 S
C1204  H1205   1.109   .     S
C1204  H1380   1.107   .     S
H1206  C1552   1.107   1_455 S
H1207  C160    1.109   1_565 S
O1208  C1209   1.408   .     S
C1209  H1210   1.117   .     S
C1209  H1211   1.106   .     S
C1209  C1212   1.521   .     S
C1212  C1215   1.505   .     S
C1212  H1214   1.107   .     S
C1212  H1213   1.093   .     S
C1215  H1216   1.109   .     S
C1215  H1217   1.109   .     S
C1215  H1218   1.109   .     S
O1219  Cu1233  1.993   .     S
O1219  C1225   1.291   .     A
O1220  Cu1234  1.993   .     S
O1220  C1226   1.301   .     A
O1221  C1226   1.300   .     A
O1221  Cu1233  1.994   .     S
O1222  C1225   1.304   .     A
O1222  Cu1234  1.994   .     S
N1223  C1238   1.370   .     A
N1223  C1236   1.362   .     A
N1223  Cu1233  2.020   .     S
N1224  C1237   1.366   .     A
N1224  C1235   1.367   .     A
N1224  Cu1234  2.020   .     S
C1225  C1256   1.467   .     S
C1226  C1255   1.479   .     S
O1227  C1231   1.312   .     A
O1227  Cu1233  2.018   .     S
O1228  C1232   1.301   .     A
O1228  Cu1234  2.018   .     S
O1229  C1232   1.308   .     A
O1229  Cu1233  2.024   .     S
O1230  Cu1234  2.024   .     S
O1230  C1231   1.306   .     A
C1231  C1251   1.512   .     S
C1232  C1252   1.496   .     S
Cu1233 Cu1234  2.689   .     S
C1235  F1257   1.354   .     S
C1236  F1258   1.342   .     S
C1236  C193    1.415   1_565 S
C1237  F1259   1.352   .     S
C1238  F1260   1.354   .     S
C1238  C191    1.418   1_565 S
C1239  O1349   1.385   .     S
C1239  C1256   1.400   .     A
C1240  C1255   1.418   .     A
C1240  O1360   1.384   .     S
C1240  C1416   1.395   .     S
C1241  C1255   1.418   .     A
C1241  O1371   1.378   .     S
C1241  C1413   1.391   .     S
C1242  O1382   1.378   .     S
C1242  C1256   1.411   .     A
C1243  O1261   1.379   .     S
C1243  C1247   1.409   .     A
C1243  C1253   1.433   .     A
C1244  O1272   1.380   .     S
C1244  C1248   1.410   .     A
C1244  C1254   1.440   .     A
C1245  C1249   1.406   .     A
C1245  O1283   1.377   .     S
C1245  C1254   1.440   .     A
C1246  C1253   1.432   .     A
C1246  C1250   1.414   .     A
C1246  O1294   1.373   .     S
C1247  O1305   1.388   .     S
C1247  C1251   1.419   .     A
C1248  C1252   1.411   .     A
C1248  O1316   1.391   .     S
C1249  O1327   1.383   .     S
C1249  C1252   1.405   .     A
C1250  O1338   1.385   .     S
C1250  C1251   1.420   .     A
C1253  C2820   1.560   1_554 S
C1254  C2819   1.560   .     S
O1261  C1262   1.410   .     S
C1262  H1263   1.112   .     S
C1262  C1265   1.529   .     S
C1262  H1264   1.116   .     S
C1265  H1267   1.109   .     S
C1265  H1266   1.108   .     S
C1265  C1268   1.531   .     S
C1268  H1269   1.111   .     S
C1268  H1444   1.109   .     S
C1268  H3011   1.108   1_554 S
H1271  C2660   1.108   .     S
O1272  C1273   1.412   .     S
C1273  H1274   1.104   .     S
C1273  H1275   1.116   .     S
C1273  C1276   1.529   .     S
C1276  H1278   1.111   .     S
C1276  C1279   1.529   .     S
C1276  H1277   1.112   .     S
C1279  H1281   1.107   .     S
C1279  H1280   1.110   .     S
C1279  H1282   1.108   .     S
O1283  C1284   1.407   .     S
C1284  C1287   1.515   .     S
C1284  H2851   1.105   .     S
C1284  H2852   1.110   .     S
H1285  C2850   1.105   1_554 S
H1286  C2850   1.110   1_554 S
C1287  H1288   1.111   .     S
C1287  H1289   1.108   .     S
C1287  C1290   1.520   .     S
C1290  H1292   1.109   .     S
C1290  H1291   1.105   .     S
C1290  H1815   1.104   1_565 S
H1293  C2334   1.104   1_554 S
O1294  C1295   1.411   .     S
C1295  H1297   1.117   .     S
C1295  C1298   1.523   .     S
C1295  H2862   1.099   1_554 S
H1296  C2861   1.099   .     S
C1298  C1301   1.529   .     S
C1298  H1299   1.105   .     S
C1298  H1300   1.105   .     S
C1301  H1302   1.110   .     S
C1301  H1303   1.110   .     S
C1301  H1304   1.110   .     S
O1305  C1306   1.424   .     S
C1306  C1309   1.519   .     S
C1306  H1307   1.101   .     S
C1306  H1308   1.109   .     S
C1309  H1310   1.108   .     S
C1309  H1311   1.102   .     S
C1309  C1312   1.528   .     S
C1312  H1315   1.111   .     S
C1312  H1314   1.110   .     S
C1312  H1313   1.109   .     S
O1316  C1317   1.425   .     S
C1317  C1320   1.530   .     S
C1317  H1319   1.110   .     S
C1317  H1318   1.110   .     S
C1320  C1323   1.521   .     S
C1320  H1322   1.109   .     S
C1320  H1321   1.109   .     S
C1323  H1326   1.101   .     S
C1323  H1325   1.110   .     S
C1323  H1324   1.109   .     S
O1327  C1328   1.421   .     S
C1328  H1329   1.108   .     S
C1328  C1331   1.536   .     S
C1328  H1330   1.112   .     S
C1331  C1334   1.525   .     S
C1331  H1332   1.106   .     S
C1331  H1333   1.112   .     S
C1334  H1335   1.111   .     S
C1334  H1337   1.110   .     S
C1334  H1336   1.106   .     S
O1338  C1339   1.422   .     S
C1339  C1342   1.537   .     S
C1339  H1341   1.115   .     S
C1339  H1340   1.109   .     S
C1342  C1345   1.529   .     S
C1342  H1344   1.109   .     S
H1343  C298    1.111   1_565 S
C1345  H1347   1.110   .     S
C1345  H1348   1.107   .     S
C1345  H1346   1.110   .     S
O1349  C1350   1.428   .     S
C1350  H1351   1.108   .     S
C1350  C1353   1.557   .     S
C1350  H1352   1.111   .     S
C1353  C1356   1.523   .     S
H1354  C1527   1.110   .     S
H1355  C1527   1.105   .     S
C1356  H1358   1.103   .     S
C1356  H1359   1.110   .     S
H1357  C1530   1.109   .     S
O1360  C1361   1.421   .     S
C1361  C1364   1.535   .     S
C1361  H1363   1.115   .     S
C1361  H1362   1.111   .     S
C1364  C1367   1.523   .     S
C1364  H1539   1.103   .     S
C1364  H1540   1.111   .     S
C1367  H1369   1.108   .     S
C1367  H1368   1.109   .     S
C1367  H326    1.111   1_565 S
O1371  C1372   1.412   .     S
C1372  H1374   1.112   .     S
C1372  C1375   1.529   .     S
C1372  H1373   1.106   .     S
C1375  C1378   1.526   .     S
C1375  H1550   1.103   .     S
C1375  H1551   1.109   .     S
C1378  H1379   1.109   .     S
C1378  H1554   1.107   .     S
H1381  C334    1.109   1_565 S
O1382  C1383   1.408   .     S
C1383  H1384   1.117   .     S
C1383  H1385   1.106   .     S
C1383  C1386   1.521   .     S
C1386  C1389   1.505   .     S
C1386  H1388   1.107   .     S
C1386  H1387   1.093   .     S
C1389  H1390   1.109   .     S
C1389  H1391   1.109   .     S
C1389  H1392   1.109   .     S
O1393  Cu1407  1.993   .     S
O1393  C1399   1.291   .     A
O1394  Cu1408  1.993   .     S
O1394  C1400   1.301   .     A
O1395  C1400   1.300   .     A
O1395  Cu1407  1.994   .     S
O1396  C1399   1.304   .     A
O1396  Cu1408  1.994   .     S
N1397  C1412   1.370   .     A
N1397  C1410   1.362   .     A
N1397  Cu1407  2.020   .     S
N1398  C1411   1.366   .     A
N1398  C1409   1.367   .     A
N1398  Cu1408  2.020   .     S
C1399  C1430   1.467   .     S
C1400  C1429   1.479   .     S
O1401  C1405   1.312   .     A
O1401  Cu1407  2.018   .     S
O1402  C1406   1.301   .     A
O1402  Cu1408  2.018   .     S
O1403  C1406   1.308   .     A
O1403  Cu1407  2.024   .     S
O1404  Cu1408  2.024   .     S
O1404  C1405   1.306   .     A
C1405  C1425   1.512   .     S
C1406  C1426   1.496   .     S
Cu1407 Cu1408  2.689   .     S
C1409  F1431   1.354   .     S
C1410  F1432   1.342   .     S
C1410  C367    1.415   1_565 S
C1411  F1433   1.352   .     S
C1412  F1434   1.354   .     S
C1412  C365    1.418   1_565 S
C1413  O1523   1.385   .     S
C1413  C1430   1.400   .     A
C1414  C1429   1.418   .     A
C1414  O1534   1.384   .     S
C1414  C1068   1.395   1_655 S
C1415  C1429   1.418   .     A
C1415  O1545   1.378   .     S
C1415  C1065   1.391   1_655 S
C1416  O1556   1.378   .     S
C1416  C1430   1.411   .     A
C1417  O1435   1.379   .     S
C1417  C1421   1.409   .     A
C1417  C1427   1.433   .     A
C1418  O1446   1.380   .     S
C1418  C1422   1.410   .     A
C1418  C1428   1.440   .     A
C1419  C1423   1.406   .     A
C1419  O1457   1.377   .     S
C1419  C1428   1.440   .     A
C1420  C1427   1.432   .     A
C1420  C1424   1.414   .     A
C1420  O1468   1.373   .     S
C1421  O1479   1.388   .     S
C1421  C1425   1.419   .     A
C1422  C1426   1.411   .     A
C1422  O1490   1.391   .     S
C1423  O1501   1.383   .     S
C1423  C1426   1.405   .     A
C1424  O1512   1.385   .     S
C1424  C1425   1.420   .     A
C1427  C2994   1.560   1_554 S
C1428  C2993   1.560   .     S
O1435  C1436   1.410   .     S
C1436  H1437   1.112   .     S
C1436  C1439   1.529   .     S
C1436  H1438   1.116   .     S
C1439  H1441   1.109   .     S
C1439  H1440   1.108   .     S
C1439  C1442   1.531   .     S
C1442  H1443   1.111   .     S
C1442  H1096   1.109   1_655 S
C1442  H2663   1.108   1_654 S
H1445  C2834   1.108   .     S
O1446  C1447   1.412   .     S
C1447  H1448   1.104   .     S
C1447  H1449   1.116   .     S
C1447  C1450   1.529   .     S
C1450  H1452   1.111   .     S
C1450  C1453   1.529   .     S
C1450  H1451   1.112   .     S
C1453  H1455   1.107   .     S
C1453  H1454   1.110   .     S
C1453  H1456   1.108   .     S
O1457  C1458   1.407   .     S
C1458  C1461   1.515   .     S
C1458  H3025   1.105   .     S
C1458  H3026   1.110   .     S
H1459  C3024   1.105   1_554 S
H1460  C3024   1.110   1_554 S
C1461  H1462   1.111   .     S
C1461  H1463   1.108   .     S
C1461  C1464   1.520   .     S
C1464  H1466   1.109   .     S
C1464  H1465   1.105   .     S
C1464  H1989   1.104   1_565 S
H1467  C2508   1.104   1_554 S
O1468  C1469   1.411   .     S
C1469  H1471   1.117   .     S
C1469  C1472   1.523   .     S
C1469  H3036   1.099   1_554 S
H1470  C3035   1.099   .     S
C1472  C1475   1.529   .     S
C1472  H1473   1.105   .     S
C1472  H1474   1.105   .     S
C1475  H1476   1.110   .     S
C1475  H1477   1.110   .     S
C1475  H1478   1.110   .     S
O1479  C1480   1.424   .     S
C1480  C1483   1.519   .     S
C1480  H1481   1.101   .     S
C1480  H1482   1.109   .     S
C1483  H1484   1.108   .     S
C1483  H1485   1.102   .     S
C1483  C1486   1.528   .     S
C1486  H1489   1.111   .     S
C1486  H1488   1.110   .     S
C1486  H1487   1.109   .     S
O1490  C1491   1.425   .     S
C1491  C1494   1.530   .     S
C1491  H1493   1.110   .     S
C1491  H1492   1.110   .     S
C1494  C1497   1.521   .     S
C1494  H1496   1.109   .     S
C1494  H1495   1.109   .     S
C1497  H1500   1.101   .     S
C1497  H1499   1.110   .     S
C1497  H1498   1.109   .     S
O1501  C1502   1.421   .     S
C1502  H1503   1.108   .     S
C1502  C1505   1.536   .     S
C1502  H1504   1.112   .     S
C1505  C1508   1.525   .     S
C1505  H1506   1.106   .     S
C1505  H1507   1.112   .     S
C1508  H1509   1.111   .     S
C1508  H1511   1.110   .     S
C1508  H1510   1.106   .     S
O1512  C1513   1.422   .     S
C1513  C1516   1.537   .     S
C1513  H1515   1.115   .     S
C1513  H1514   1.109   .     S
C1516  C1519   1.529   .     S
C1516  H1518   1.109   .     S
H1517  C472    1.111   1_565 S
C1519  H1521   1.110   .     S
C1519  H1522   1.107   .     S
C1519  H1520   1.110   .     S
O1523  C1524   1.428   .     S
C1524  H1525   1.108   .     S
C1524  C1527   1.557   .     S
C1524  H1526   1.111   .     S
C1527  C1530   1.523   .     S
H1528  C1179   1.110   1_655 S
H1529  C1179   1.105   1_655 S
C1530  H1532   1.103   .     S
C1530  H1533   1.110   .     S
H1531  C1182   1.109   1_655 S
O1534  C1535   1.421   .     S
C1535  C1538   1.535   .     S
C1535  H1537   1.115   .     S
C1535  H1536   1.111   .     S
C1538  C1541   1.523   .     S
C1538  H1191   1.103   1_655 S
C1538  H1192   1.111   1_655 S
C1541  H1543   1.108   .     S
C1541  H1542   1.109   .     S
C1541  H500    1.111   1_565 S
O1545  C1546   1.412   .     S
C1546  H1548   1.112   .     S
C1546  C1549   1.529   .     S
C1546  H1547   1.106   .     S
C1549  C1552   1.526   .     S
C1549  H1202   1.103   1_655 S
C1549  H1203   1.109   1_655 S
C1552  H1553   1.109   .     S
C1552  H1206   1.107   1_655 S
H1555  C508    1.109   1_565 S
O1556  C1557   1.408   .     S
C1557  H1558   1.117   .     S
C1557  H1559   1.106   .     S
C1557  C1560   1.521   .     S
C1560  C1563   1.505   .     S
C1560  H1562   1.107   .     S
C1560  H1561   1.093   .     S
C1563  H1564   1.109   .     S
C1563  H1565   1.109   .     S
C1563  H1566   1.109   .     S
O1567  Cu1581  1.993   .     S
O1567  C1573   1.291   .     A
O1568  Cu1582  1.993   .     S
O1568  C1574   1.301   .     A
O1569  C1574   1.300   .     A
O1569  Cu1581  1.994   .     S
O1570  C1573   1.304   .     A
O1570  Cu1582  1.994   .     S
N1571  C1586   1.370   .     A
N1571  C1584   1.362   .     A
N1571  Cu1581  2.020   .     S
N1572  C1585   1.366   .     A
N1572  C1583   1.367   .     A
N1572  Cu1582  2.020   .     S
C1573  C1604   1.467   .     S
C1574  C1603   1.479   .     S
O1575  C1579   1.312   .     A
O1575  Cu1581  2.018   .     S
O1576  C1580   1.301   .     A
O1576  Cu1582  2.018   .     S
O1577  C1580   1.308   .     A
O1577  Cu1581  2.024   .     S
O1578  Cu1582  2.024   .     S
O1578  C1579   1.306   .     A
C1579  C1599   1.512   .     S
C1580  C1600   1.496   .     S
Cu1581 Cu1582  2.689   .     S
C1583  F1605   1.354   .     S
C1583  C2630   1.418   1_545 S
C1584  F1606   1.342   .     S
C1584  C2107   1.415   .     S
C1585  F1607   1.352   .     S
C1585  C2628   1.415   1_545 S
C1586  F1608   1.354   .     S
C1586  C2105   1.418   .     S
C1587  O1697   1.385   .     S
C1587  C1604   1.400   .     A
C1587  C1937   1.391   1_455 S
C1588  C1603   1.418   .     A
C1588  O1708   1.384   .     S
C1588  C1764   1.395   .     S
C1589  C1603   1.418   .     A
C1589  O1719   1.378   .     S
C1589  C1761   1.391   .     S
C1590  O1730   1.378   .     S
C1590  C1604   1.411   .     A
C1590  C1936   1.395   1_455 S
C1591  O1609   1.379   .     S
C1591  C1595   1.409   .     A
C1591  C1601   1.433   .     A
C1592  O1620   1.380   .     S
C1592  C1596   1.410   .     A
C1592  C1602   1.440   .     A
C1593  C1597   1.406   .     A
C1593  O1631   1.377   .     S
C1593  C1602   1.440   .     A
C1594  C1601   1.432   .     A
C1594  C1598   1.414   .     A
C1594  O1642   1.373   .     S
C1595  O1653   1.388   .     S
C1595  C1599   1.419   .     A
C1596  C1600   1.411   .     A
C1596  O1664   1.391   .     S
C1597  O1675   1.383   .     S
C1597  C1600   1.405   .     A
C1598  O1686   1.385   .     S
C1598  C1599   1.420   .     A
C1602  C35     1.560   1_556 S
O1609  C1610   1.410   .     S
C1610  H1611   1.112   .     S
C1610  C1613   1.529   .     S
C1610  H1612   1.116   .     S
C1613  H1615   1.109   .     S
C1613  H1614   1.108   .     S
C1613  C1616   1.531   .     S
C1616  H1617   1.111   .     S
C1616  H1792   1.109   .     S
H1618  C1964   1.109   1_455 S
H1619  C398    1.108   1_456 S
O1620  C1621   1.412   .     S
C1621  H1622   1.104   .     S
C1621  H1623   1.116   .     S
C1621  C1624   1.529   .     S
C1624  H1626   1.111   .     S
C1624  C1627   1.529   .     S
C1624  H1625   1.112   .     S
C1627  H1629   1.107   .     S
C1627  H1628   1.110   .     S
C1627  H1630   1.108   .     S
O1631  C1632   1.407   .     S
C1632  C1635   1.515   .     S
C1632  H67     1.105   1_556 S
C1632  H68     1.110   1_556 S
C1635  H1636   1.111   .     S
C1635  H1637   1.108   .     S
C1635  C1638   1.520   .     S
C1638  H1640   1.109   .     S
C1638  H1639   1.105   .     S
C1638  H597    1.104   1_556 S
H1641  C1116   1.104   1_545 S
O1642  C1643   1.411   .     S
C1643  H1645   1.117   .     S
C1643  C1646   1.523   .     S
H1644  C77     1.099   1_556 S
C1646  C1649   1.529   .     S
C1646  H1647   1.105   .     S
C1646  H1648   1.105   .     S
C1649  H1650   1.110   .     S
C1649  H1651   1.110   .     S
C1649  H1652   1.110   .     S
O1653  C1654   1.424   .     S
C1654  C1657   1.519   .     S
C1654  H1655   1.101   .     S
C1654  H1656   1.109   .     S
C1657  H1658   1.108   .     S
C1657  H1659   1.102   .     S
C1657  C1660   1.528   .     S
C1660  H1663   1.111   .     S
C1660  H1662   1.110   .     S
C1660  H1661   1.109   .     S
O1664  C1665   1.425   .     S
C1665  C1668   1.530   .     S
C1665  H1667   1.110   .     S
C1665  H1666   1.110   .     S
C1668  C1671   1.521   .     S
C1668  H1670   1.109   .     S
C1668  H1669   1.109   .     S
C1671  H1674   1.101   .     S
C1671  H1673   1.110   .     S
C1671  H1672   1.109   .     S
O1675  C1676   1.421   .     S
C1676  H1677   1.108   .     S
C1676  C1679   1.536   .     S
C1676  H1678   1.112   .     S
C1679  C1682   1.525   .     S
C1679  H1680   1.106   .     S
C1679  H1681   1.112   .     S
C1682  H1683   1.111   .     S
C1682  H1685   1.110   .     S
C1682  H1684   1.106   .     S
O1686  C1687   1.422   .     S
C1687  C1690   1.537   .     S
C1687  H1689   1.115   .     S
C1687  H1688   1.109   .     S
C1690  C1693   1.529   .     S
C1690  H1692   1.109   .     S
C1690  H2735   1.111   1_545 S
H1691  C2212   1.111   .     S
C1693  H1695   1.110   .     S
C1693  H1696   1.107   .     S
C1693  H1694   1.110   .     S
O1697  C1698   1.428   .     S
C1698  H1699   1.108   .     S
C1698  C1701   1.557   .     S
C1698  H1700   1.111   .     S
C1701  C1704   1.523   .     S
C1701  H2050   1.110   1_455 S
C1701  H2051   1.105   1_455 S
H1702  C1875   1.110   .     S
H1703  C1875   1.105   .     S
C1704  H1706   1.103   .     S
C1704  H1707   1.110   .     S
C1704  H2053   1.109   1_455 S
H1705  C1878   1.109   .     S
O1708  C1709   1.421   .     S
C1709  C1712   1.535   .     S
C1709  H1711   1.115   .     S
C1709  H1710   1.111   .     S
C1712  C1715   1.523   .     S
C1712  H1887   1.103   .     S
C1712  H1888   1.111   .     S
H1713  C2060   1.103   1_455 S
H1714  C2060   1.111   1_455 S
C1715  H1717   1.108   .     S
C1715  H1716   1.109   .     S
C1715  H2240   1.111   .     S
H1718  C2759   1.111   1_545 S
O1719  C1720   1.412   .     S
C1720  H1722   1.112   .     S
C1720  C1723   1.529   .     S
C1720  H1721   1.106   .     S
C1723  C1726   1.526   .     S
C1723  H1898   1.103   .     S
C1723  H1899   1.109   .     S
H1724  C2071   1.103   1_455 S
H1725  C2071   1.109   1_455 S
C1726  H1727   1.109   .     S
C1726  H1902   1.107   .     S
C1726  H2773   1.109   1_545 S
H1728  C2074   1.107   1_455 S
H1729  C2248   1.109   .     S
O1730  C1731   1.408   .     S
C1731  H1732   1.117   .     S
C1731  H1733   1.106   .     S
C1731  C1734   1.521   .     S
C1734  C1737   1.505   .     S
C1734  H1736   1.107   .     S
C1734  H1735   1.093   .     S
C1737  H1738   1.109   .     S
C1737  H1739   1.109   .     S
C1737  H1740   1.109   .     S
O1741  Cu1755  1.993   .     S
O1741  C1747   1.291   .     A
O1742  Cu1756  1.993   .     S
O1742  C1748   1.301   .     A
O1743  C1748   1.300   .     A
O1743  Cu1755  1.994   .     S
O1744  C1747   1.304   .     A
O1744  Cu1756  1.994   .     S
N1745  C1760   1.370   .     A
N1745  C1758   1.362   .     A
N1745  Cu1755  2.020   .     S
N1746  C1759   1.366   .     A
N1746  C1757   1.367   .     A
N1746  Cu1756  2.020   .     S
C1747  C1778   1.467   .     S
C1748  C1777   1.479   .     S
O1749  C1753   1.312   .     A
O1749  Cu1755  2.018   .     S
O1750  C1754   1.301   .     A
O1750  Cu1756  2.018   .     S
O1751  C1754   1.308   .     A
O1751  Cu1755  2.024   .     S
O1752  Cu1756  2.024   .     S
O1752  C1753   1.306   .     A
C1753  C1773   1.512   .     S
C1754  C1774   1.496   .     S
Cu1755 Cu1756  2.689   .     S
C1757  F1779   1.354   .     S
C1757  C2804   1.418   1_545 S
C1758  F1780   1.342   .     S
C1758  C2281   1.415   .     S
C1759  F1781   1.352   .     S
C1759  C2802   1.415   1_545 S
C1760  F1782   1.354   .     S
C1760  C2279   1.418   .     S
C1761  O1871   1.385   .     S
C1761  C1778   1.400   .     A
C1762  C1777   1.418   .     A
C1762  O1882   1.384   .     S
C1762  C1938   1.395   .     S
C1763  C1777   1.418   .     A
C1763  O1893   1.378   .     S
C1763  C1935   1.391   .     S
C1764  O1904   1.378   .     S
C1764  C1778   1.411   .     A
C1765  O1783   1.379   .     S
C1765  C1769   1.409   .     A
C1765  C1775   1.433   .     A
C1766  O1794   1.380   .     S
C1766  C1770   1.410   .     A
C1766  C1776   1.440   .     A
C1767  C1771   1.406   .     A
C1767  O1805   1.377   .     S
C1767  C1776   1.440   .     A
C1768  C1775   1.432   .     A
C1768  C1772   1.414   .     A
C1768  O1816   1.373   .     S
C1769  O1827   1.388   .     S
C1769  C1773   1.419   .     A
C1770  C1774   1.411   .     A
C1770  O1838   1.391   .     S
C1771  O1849   1.383   .     S
C1771  C1774   1.405   .     A
C1772  O1860   1.385   .     S
C1772  C1773   1.420   .     A
C1776  C209    1.560   1_556 S
O1783  C1784   1.410   .     S
C1784  H1785   1.112   .     S
C1784  C1787   1.529   .     S
C1784  H1786   1.116   .     S
C1787  H1789   1.109   .     S
C1787  H1788   1.108   .     S
C1787  C1790   1.531   .     S
C1790  H1791   1.111   .     S
C1790  H1966   1.109   .     S
H1793  C50     1.108   1_556 S
O1794  C1795   1.412   .     S
C1795  H1796   1.104   .     S
C1795  H1797   1.116   .     S
C1795  C1798   1.529   .     S
C1798  H1800   1.111   .     S
C1798  C1801   1.529   .     S
C1798  H1799   1.112   .     S
C1801  H1803   1.107   .     S
C1801  H1802   1.110   .     S
C1801  H1804   1.108   .     S
O1805  C1806   1.407   .     S
C1806  C1809   1.515   .     S
C1806  H241    1.105   1_556 S
C1806  H242    1.110   1_556 S
C1809  H1810   1.111   .     S
C1809  H1811   1.108   .     S
C1809  C1812   1.520   .     S
C1812  H1814   1.109   .     S
C1812  H1813   1.105   .     S
C1812  H771    1.104   1_556 S
H1815  C1290   1.104   1_545 S
O1816  C1817   1.411   .     S
C1817  H1819   1.117   .     S
C1817  C1820   1.523   .     S
H1818  C251    1.099   1_556 S
C1820  C1823   1.529   .     S
C1820  H1821   1.105   .     S
C1820  H1822   1.105   .     S
C1823  H1824   1.110   .     S
C1823  H1825   1.110   .     S
C1823  H1826   1.110   .     S
O1827  C1828   1.424   .     S
C1828  C1831   1.519   .     S
C1828  H1829   1.101   .     S
C1828  H1830   1.109   .     S
C1831  H1832   1.108   .     S
C1831  H1833   1.102   .     S
C1831  C1834   1.528   .     S
C1834  H1837   1.111   .     S
C1834  H1836   1.110   .     S
C1834  H1835   1.109   .     S
O1838  C1839   1.425   .     S
C1839  C1842   1.530   .     S
C1839  H1841   1.110   .     S
C1839  H1840   1.110   .     S
C1842  C1845   1.521   .     S
C1842  H1844   1.109   .     S
C1842  H1843   1.109   .     S
C1845  H1848   1.101   .     S
C1845  H1847   1.110   .     S
C1845  H1846   1.109   .     S
O1849  C1850   1.421   .     S
C1850  H1851   1.108   .     S
C1850  C1853   1.536   .     S
C1850  H1852   1.112   .     S
C1853  C1856   1.525   .     S
C1853  H1854   1.106   .     S
C1853  H1855   1.112   .     S
C1856  H1857   1.111   .     S
C1856  H1859   1.110   .     S
C1856  H1858   1.106   .     S
O1860  C1861   1.422   .     S
C1861  C1864   1.537   .     S
C1861  H1863   1.115   .     S
C1861  H1862   1.109   .     S
C1864  C1867   1.529   .     S
C1864  H1866   1.109   .     S
C1864  H2909   1.111   1_545 S
H1865  C2386   1.111   .     S
C1867  H1869   1.110   .     S
C1867  H1870   1.107   .     S
C1867  H1868   1.110   .     S
O1871  C1872   1.428   .     S
C1872  H1873   1.108   .     S
C1872  C1875   1.557   .     S
C1872  H1874   1.111   .     S
C1875  C1878   1.523   .     S
H1876  C2049   1.110   .     S
H1877  C2049   1.105   .     S
C1878  H1880   1.103   .     S
C1878  H1881   1.110   .     S
H1879  C2052   1.109   .     S
O1882  C1883   1.421   .     S
C1883  C1886   1.535   .     S
C1883  H1885   1.115   .     S
C1883  H1884   1.111   .     S
C1886  C1889   1.523   .     S
C1886  H2061   1.103   .     S
C1886  H2062   1.111   .     S
C1889  H1891   1.108   .     S
C1889  H1890   1.109   .     S
C1889  H2414   1.111   .     S
H1892  C2933   1.111   1_545 S
O1893  C1894   1.412   .     S
C1894  H1896   1.112   .     S
C1894  C1897   1.529   .     S
C1894  H1895   1.106   .     S
C1897  C1900   1.526   .     S
C1897  H2072   1.103   .     S
C1897  H2073   1.109   .     S
C1900  H1901   1.109   .     S
C1900  H2076   1.107   .     S
C1900  H2947   1.109   1_545 S
H1903  C2422   1.109   .     S
O1904  C1905   1.408   .     S
C1905  H1906   1.117   .     S
C1905  H1907   1.106   .     S
C1905  C1908   1.521   .     S
C1908  C1911   1.505   .     S
C1908  H1910   1.107   .     S
C1908  H1909   1.093   .     S
C1911  H1912   1.109   .     S
C1911  H1913   1.109   .     S
C1911  H1914   1.109   .     S
O1915  Cu1929  1.993   .     S
O1915  C1921   1.291   .     A
O1916  Cu1930  1.993   .     S
O1916  C1922   1.301   .     A
O1917  C1922   1.300   .     A
O1917  Cu1929  1.994   .     S
O1918  C1921   1.304   .     A
O1918  Cu1930  1.994   .     S
N1919  C1934   1.370   .     A
N1919  C1932   1.362   .     A
N1919  Cu1929  2.020   .     S
N1920  C1933   1.366   .     A
N1920  C1931   1.367   .     A
N1920  Cu1930  2.020   .     S
C1921  C1952   1.467   .     S
C1922  C1951   1.479   .     S
O1923  C1927   1.312   .     A
O1923  Cu1929  2.018   .     S
O1924  C1928   1.301   .     A
O1924  Cu1930  2.018   .     S
O1925  C1928   1.308   .     A
O1925  Cu1929  2.024   .     S
O1926  Cu1930  2.024   .     S
O1926  C1927   1.306   .     A
C1927  C1947   1.512   .     S
C1928  C1948   1.496   .     S
Cu1929 Cu1930  2.689   .     S
C1931  F1953   1.354   .     S
C1931  C2978   1.418   1_545 S
C1932  F1954   1.342   .     S
C1932  C2455   1.415   .     S
C1933  F1955   1.352   .     S
C1933  C2976   1.415   1_545 S
C1934  F1956   1.354   .     S
C1934  C2453   1.418   .     S
C1935  O2045   1.385   .     S
C1935  C1952   1.400   .     A
C1936  C1951   1.418   .     A
C1936  O2056   1.384   .     S
C1936  C1590   1.395   1_655 S
C1937  C1951   1.418   .     A
C1937  O2067   1.378   .     S
C1937  C1587   1.391   1_655 S
C1938  O2078   1.378   .     S
C1938  C1952   1.411   .     A
C1939  O1957   1.379   .     S
C1939  C1943   1.409   .     A
C1939  C1949   1.433   .     A
C1940  O1968   1.380   .     S
C1940  C1944   1.410   .     A
C1940  C1950   1.440   .     A
C1941  C1945   1.406   .     A
C1941  O1979   1.377   .     S
C1941  C1950   1.440   .     A
C1942  C1949   1.432   .     A
C1942  C1946   1.414   .     A
C1942  O1990   1.373   .     S
C1943  O2001   1.388   .     S
C1943  C1947   1.419   .     A
C1944  C1948   1.411   .     A
C1944  O2012   1.391   .     S
C1945  O2023   1.383   .     S
C1945  C1948   1.405   .     A
C1946  O2034   1.385   .     S
C1946  C1947   1.420   .     A
C1950  C383    1.560   1_556 S
O1957  C1958   1.410   .     S
C1958  H1959   1.112   .     S
C1958  C1961   1.529   .     S
C1958  H1960   1.116   .     S
C1961  H1963   1.109   .     S
C1961  H1962   1.108   .     S
C1961  C1964   1.531   .     S
C1964  H1965   1.111   .     S
C1964  H1618   1.109   1_655 S
C1964  H53     1.108   1_655 S
H1967  C224    1.108   1_556 S
O1968  C1969   1.412   .     S
C1969  H1970   1.104   .     S
C1969  H1971   1.116   .     S
C1969  C1972   1.529   .     S
C1972  H1974   1.111   .     S
C1972  C1975   1.529   .     S
C1972  H1973   1.112   .     S
C1975  H1977   1.107   .     S
C1975  H1976   1.110   .     S
C1975  H1978   1.108   .     S
O1979  C1980   1.407   .     S
C1980  C1983   1.515   .     S
C1980  H415    1.105   1_556 S
C1980  H416    1.110   1_556 S
C1983  H1984   1.111   .     S
C1983  H1985   1.108   .     S
C1983  C1986   1.520   .     S
C1986  H1988   1.109   .     S
C1986  H1987   1.105   .     S
C1986  H945    1.104   1_556 S
H1989  C1464   1.104   1_545 S
O1990  C1991   1.411   .     S
C1991  H1993   1.117   .     S
C1991  C1994   1.523   .     S
H1992  C425    1.099   1_556 S
C1994  C1997   1.529   .     S
C1994  H1995   1.105   .     S
C1994  H1996   1.105   .     S
C1997  H1998   1.110   .     S
C1997  H1999   1.110   .     S
C1997  H2000   1.110   .     S
O2001  C2002   1.424   .     S
C2002  C2005   1.519   .     S
C2002  H2003   1.101   .     S
C2002  H2004   1.109   .     S
C2005  H2006   1.108   .     S
C2005  H2007   1.102   .     S
C2005  C2008   1.528   .     S
C2008  H2011   1.111   .     S
C2008  H2010   1.110   .     S
C2008  H2009   1.109   .     S
O2012  C2013   1.425   .     S
C2013  C2016   1.530   .     S
C2013  H2015   1.110   .     S
C2013  H2014   1.110   .     S
C2016  C2019   1.521   .     S
C2016  H2018   1.109   .     S
C2016  H2017   1.109   .     S
C2019  H2022   1.101   .     S
C2019  H2021   1.110   .     S
C2019  H2020   1.109   .     S
O2023  C2024   1.421   .     S
C2024  H2025   1.108   .     S
C2024  C2027   1.536   .     S
C2024  H2026   1.112   .     S
C2027  C2030   1.525   .     S
C2027  H2028   1.106   .     S
C2027  H2029   1.112   .     S
C2030  H2031   1.111   .     S
C2030  H2033   1.110   .     S
C2030  H2032   1.106   .     S
O2034  C2035   1.422   .     S
C2035  C2038   1.537   .     S
C2035  H2037   1.115   .     S
C2035  H2036   1.109   .     S
C2038  C2041   1.529   .     S
C2038  H2040   1.109   .     S
C2038  H3083   1.111   1_545 S
H2039  C2560   1.111   .     S
C2041  H2043   1.110   .     S
C2041  H2044   1.107   .     S
C2041  H2042   1.110   .     S
O2045  C2046   1.428   .     S
C2046  H2047   1.108   .     S
C2046  C2049   1.557   .     S
C2046  H2048   1.111   .     S
C2049  C2052   1.523   .     S
H2050  C1701   1.110   1_655 S
H2051  C1701   1.105   1_655 S
C2052  H2054   1.103   .     S
C2052  H2055   1.110   .     S
H2053  C1704   1.109   1_655 S
O2056  C2057   1.421   .     S
C2057  C2060   1.535   .     S
C2057  H2059   1.115   .     S
C2057  H2058   1.111   .     S
C2060  C2063   1.523   .     S
C2060  H1713   1.103   1_655 S
C2060  H1714   1.111   1_655 S
C2063  H2065   1.108   .     S
C2063  H2064   1.109   .     S
C2063  H2588   1.111   .     S
H2066  C3107   1.111   1_545 S
O2067  C2068   1.412   .     S
C2068  H2070   1.112   .     S
C2068  C2071   1.529   .     S
C2068  H2069   1.106   .     S
C2071  C2074   1.526   .     S
C2071  H1724   1.103   1_655 S
C2071  H1725   1.109   1_655 S
C2074  H2075   1.109   .     S
C2074  H1728   1.107   1_655 S
C2074  H3121   1.109   1_545 S
H2077  C2596   1.109   .     S
O2078  C2079   1.408   .     S
C2079  H2080   1.117   .     S
C2079  H2081   1.106   .     S
C2079  C2082   1.521   .     S
C2082  C2085   1.505   .     S
C2082  H2084   1.107   .     S
C2082  H2083   1.093   .     S
C2085  H2086   1.109   .     S
C2085  H2087   1.109   .     S
C2085  H2088   1.109   .     S
O2089  Cu2103  1.993   .     S
O2089  C2095   1.291   .     A
O2090  Cu2104  1.993   .     S
O2090  C2096   1.301   .     A
O2091  C2096   1.300   .     A
O2091  Cu2103  1.994   .     S
O2092  C2095   1.304   .     A
O2092  Cu2104  1.994   .     S
N2093  C2108   1.370   .     A
N2093  C2106   1.362   .     A
N2093  Cu2103  2.020   .     S
N2094  C2107   1.366   .     A
N2094  C2105   1.367   .     A
N2094  Cu2104  2.020   .     S
C2095  C2126   1.467   .     S
C2096  C2125   1.479   .     S
O2097  C2101   1.312   .     A
O2097  Cu2103  2.018   .     S
O2098  C2102   1.301   .     A
O2098  Cu2104  2.018   .     S
O2099  C2102   1.308   .     A
O2099  Cu2103  2.024   .     S
O2100  Cu2104  2.024   .     S
O2100  C2101   1.306   .     A
C2101  C2121   1.512   .     S
C2102  C2122   1.496   .     S
Cu2103 Cu2104  2.689   .     S
C2105  F2127   1.354   .     S
C2106  F2128   1.342   .     S
C2106  C2629   1.415   .     S
C2107  F2129   1.352   .     S
C2108  F2130   1.354   .     S
C2108  C2627   1.418   .     S
C2109  O2219   1.385   .     S
C2109  C2126   1.400   .     A
C2109  C2459   1.391   1_455 S
C2110  C2125   1.418   .     A
C2110  O2230   1.384   .     S
C2110  C2286   1.395   .     S
C2111  C2125   1.418   .     A
C2111  O2241   1.378   .     S
C2111  C2283   1.391   .     S
C2112  O2252   1.378   .     S
C2112  C2126   1.411   .     A
C2112  C2458   1.395   1_455 S
C2113  O2131   1.379   .     S
C2113  C2117   1.409   .     A
C2113  C2123   1.433   .     A
C2114  O2142   1.380   .     S
C2114  C2118   1.410   .     A
C2114  C2124   1.440   .     A
C2115  C2119   1.406   .     A
C2115  O2153   1.377   .     S
C2115  C2124   1.440   .     A
C2116  C2123   1.432   .     A
C2116  C2120   1.414   .     A
C2116  O2164   1.373   .     S
C2117  O2175   1.388   .     S
C2117  C2121   1.419   .     A
C2118  C2122   1.411   .     A
C2118  O2186   1.391   .     S
C2119  O2197   1.383   .     S
C2119  C2122   1.405   .     A
C2120  O2208   1.385   .     S
C2120  C2121   1.420   .     A
C2124  C557    1.560   1_556 S
O2131  C2132   1.410   .     S
C2132  H2133   1.112   .     S
C2132  C2135   1.529   .     S
C2132  H2134   1.116   .     S
C2135  H2137   1.109   .     S
C2135  H2136   1.108   .     S
C2135  C2138   1.531   .     S
C2138  H2139   1.111   .     S
C2138  H2314   1.109   .     S
H2140  C2486   1.109   1_455 S
H2141  C920    1.108   1_456 S
O2142  C2143   1.412   .     S
C2143  H2144   1.104   .     S
C2143  H2145   1.116   .     S
C2143  C2146   1.529   .     S
C2146  H2148   1.111   .     S
C2146  C2149   1.529   .     S
C2146  H2147   1.112   .     S
C2149  H2151   1.107   .     S
C2149  H2150   1.110   .     S
C2149  H2152   1.108   .     S
O2153  C2154   1.407   .     S
C2154  C2157   1.515   .     S
C2154  H589    1.105   1_556 S
C2154  H590    1.110   1_556 S
C2157  H2158   1.111   .     S
C2157  H2159   1.108   .     S
C2157  C2160   1.520   .     S
C2160  H2162   1.109   .     S
C2160  H2161   1.105   .     S
C2160  H1119   1.104   1_556 S
O2164  C2165   1.411   .     S
C2165  H2167   1.117   .     S
C2165  C2168   1.523   .     S
H2166  C599    1.099   1_556 S
C2168  C2171   1.529   .     S
C2168  H2169   1.105   .     S
C2168  H2170   1.105   .     S
C2171  H2172   1.110   .     S
C2171  H2173   1.110   .     S
C2171  H2174   1.110   .     S
O2175  C2176   1.424   .     S
C2176  C2179   1.519   .     S
C2176  H2177   1.101   .     S
C2176  H2178   1.109   .     S
C2179  H2180   1.108   .     S
C2179  H2181   1.102   .     S
C2179  C2182   1.528   .     S
C2182  H2185   1.111   .     S
C2182  H2184   1.110   .     S
C2182  H2183   1.109   .     S
O2186  C2187   1.425   .     S
C2187  C2190   1.530   .     S
C2187  H2189   1.110   .     S
C2187  H2188   1.110   .     S
C2190  C2193   1.521   .     S
C2190  H2192   1.109   .     S
C2190  H2191   1.109   .     S
C2193  H2196   1.101   .     S
C2193  H2195   1.110   .     S
C2193  H2194   1.109   .     S
O2197  C2198   1.421   .     S
C2198  H2199   1.108   .     S
C2198  C2201   1.536   .     S
C2198  H2200   1.112   .     S
C2201  C2204   1.525   .     S
C2201  H2202   1.106   .     S
C2201  H2203   1.112   .     S
C2204  H2205   1.111   .     S
C2204  H2207   1.110   .     S
C2204  H2206   1.106   .     S
O2208  C2209   1.422   .     S
C2209  C2212   1.537   .     S
C2209  H2211   1.115   .     S
C2209  H2210   1.109   .     S
C2212  C2215   1.529   .     S
C2212  H2214   1.109   .     S
H2213  C2734   1.111   .     S
C2215  H2217   1.110   .     S
C2215  H2218   1.107   .     S
C2215  H2216   1.110   .     S
O2219  C2220   1.428   .     S
C2220  H2221   1.108   .     S
C2220  C2223   1.557   .     S
C2220  H2222   1.111   .     S
C2223  C2226   1.523   .     S
C2223  H2572   1.110   1_455 S
C2223  H2573   1.105   1_455 S
H2224  C2397   1.110   .     S
H2225  C2397   1.105   .     S
C2226  H2228   1.103   .     S
C2226  H2229   1.110   .     S
C2226  H2575   1.109   1_455 S
H2227  C2400   1.109   .     S
O2230  C2231   1.421   .     S
C2231  C2234   1.535   .     S
C2231  H2233   1.115   .     S
C2231  H2232   1.111   .     S
C2234  C2237   1.523   .     S
C2234  H2409   1.103   .     S
C2234  H2410   1.111   .     S
H2235  C2582   1.103   1_455 S
H2236  C2582   1.111   1_455 S
C2237  H2239   1.108   .     S
C2237  H2238   1.109   .     S
C2237  H2762   1.111   .     S
O2241  C2242   1.412   .     S
C2242  H2244   1.112   .     S
C2242  C2245   1.529   .     S
C2242  H2243   1.106   .     S
C2245  C2248   1.526   .     S
C2245  H2420   1.103   .     S
C2245  H2421   1.109   .     S
H2246  C2593   1.103   1_455 S
H2247  C2593   1.109   1_455 S
C2248  H2249   1.109   .     S
C2248  H2424   1.107   .     S
H2250  C2596   1.107   1_455 S
H2251  C2770   1.109   .     S
O2252  C2253   1.408   .     S
C2253  H2254   1.117   .     S
C2253  H2255   1.106   .     S
C2253  C2256   1.521   .     S
C2256  C2259   1.505   .     S
C2256  H2258   1.107   .     S
C2256  H2257   1.093   .     S
C2259  H2260   1.109   .     S
C2259  H2261   1.109   .     S
C2259  H2262   1.109   .     S
O2263  Cu2277  1.993   .     S
O2263  C2269   1.291   .     A
O2264  Cu2278  1.993   .     S
O2264  C2270   1.301   .     A
O2265  C2270   1.300   .     A
O2265  Cu2277  1.994   .     S
O2266  C2269   1.304   .     A
O2266  Cu2278  1.994   .     S
N2267  C2282   1.370   .     A
N2267  C2280   1.362   .     A
N2267  Cu2277  2.020   .     S
N2268  C2281   1.366   .     A
N2268  C2279   1.367   .     A
N2268  Cu2278  2.020   .     S
C2269  C2300   1.467   .     S
C2270  C2299   1.479   .     S
O2271  C2275   1.312   .     A
O2271  Cu2277  2.018   .     S
O2272  C2276   1.301   .     A
O2272  Cu2278  2.018   .     S
O2273  C2276   1.308   .     A
O2273  Cu2277  2.024   .     S
O2274  Cu2278  2.024   .     S
O2274  C2275   1.306   .     A
C2275  C2295   1.512   .     S
C2276  C2296   1.496   .     S
Cu2277 Cu2278  2.689   .     S
C2279  F2301   1.354   .     S
C2280  F2302   1.342   .     S
C2280  C2803   1.415   .     S
C2281  F2303   1.352   .     S
C2282  F2304   1.354   .     S
C2282  C2801   1.418   .     S
C2283  O2393   1.385   .     S
C2283  C2300   1.400   .     A
C2284  C2299   1.418   .     A
C2284  O2404   1.384   .     S
C2284  C2460   1.395   .     S
C2285  C2299   1.418   .     A
C2285  O2415   1.378   .     S
C2285  C2457   1.391   .     S
C2286  O2426   1.378   .     S
C2286  C2300   1.411   .     A
C2287  O2305   1.379   .     S
C2287  C2291   1.409   .     A
C2287  C2297   1.433   .     A
C2288  O2316   1.380   .     S
C2288  C2292   1.410   .     A
C2288  C2298   1.440   .     A
C2289  C2293   1.406   .     A
C2289  O2327   1.377   .     S
C2289  C2298   1.440   .     A
C2290  C2297   1.432   .     A
C2290  C2294   1.414   .     A
C2290  O2338   1.373   .     S
C2291  O2349   1.388   .     S
C2291  C2295   1.419   .     A
C2292  C2296   1.411   .     A
C2292  O2360   1.391   .     S
C2293  O2371   1.383   .     S
C2293  C2296   1.405   .     A
C2294  O2382   1.385   .     S
C2294  C2295   1.420   .     A
C2298  C731    1.560   1_556 S
O2305  C2306   1.410   .     S
C2306  H2307   1.112   .     S
C2306  C2309   1.529   .     S
C2306  H2308   1.116   .     S
C2309  H2311   1.109   .     S
C2309  H2310   1.108   .     S
C2309  C2312   1.531   .     S
C2312  H2313   1.111   .     S
C2312  H2488   1.109   .     S
H2315  C572    1.108   1_556 S
O2316  C2317   1.412   .     S
C2317  H2318   1.104   .     S
C2317  H2319   1.116   .     S
C2317  C2320   1.529   .     S
C2320  H2322   1.111   .     S
C2320  C2323   1.529   .     S
C2320  H2321   1.112   .     S
C2323  H2325   1.107   .     S
C2323  H2324   1.110   .     S
C2323  H2326   1.108   .     S
O2327  C2328   1.407   .     S
C2328  C2331   1.515   .     S
C2328  H763    1.105   1_556 S
C2328  H764    1.110   1_556 S
C2331  H2332   1.111   .     S
C2331  H2333   1.108   .     S
C2331  C2334   1.520   .     S
C2334  H2336   1.109   .     S
C2334  H2335   1.105   .     S
C2334  H1293   1.104   1_556 S
O2338  C2339   1.411   .     S
C2339  H2341   1.117   .     S
C2339  C2342   1.523   .     S
H2340  C773    1.099   1_556 S
C2342  C2345   1.529   .     S
C2342  H2343   1.105   .     S
C2342  H2344   1.105   .     S
C2345  H2346   1.110   .     S
C2345  H2347   1.110   .     S
C2345  H2348   1.110   .     S
O2349  C2350   1.424   .     S
C2350  C2353   1.519   .     S
C2350  H2351   1.101   .     S
C2350  H2352   1.109   .     S
C2353  H2354   1.108   .     S
C2353  H2355   1.102   .     S
C2353  C2356   1.528   .     S
C2356  H2359   1.111   .     S
C2356  H2358   1.110   .     S
C2356  H2357   1.109   .     S
O2360  C2361   1.425   .     S
C2361  C2364   1.530   .     S
C2361  H2363   1.110   .     S
C2361  H2362   1.110   .     S
C2364  C2367   1.521   .     S
C2364  H2366   1.109   .     S
C2364  H2365   1.109   .     S
C2367  H2370   1.101   .     S
C2367  H2369   1.110   .     S
C2367  H2368   1.109   .     S
O2371  C2372   1.421   .     S
C2372  H2373   1.108   .     S
C2372  C2375   1.536   .     S
C2372  H2374   1.112   .     S
C2375  C2378   1.525   .     S
C2375  H2376   1.106   .     S
C2375  H2377   1.112   .     S
C2378  H2379   1.111   .     S
C2378  H2381   1.110   .     S
C2378  H2380   1.106   .     S
O2382  C2383   1.422   .     S
C2383  C2386   1.537   .     S
C2383  H2385   1.115   .     S
C2383  H2384   1.109   .     S
C2386  C2389   1.529   .     S
C2386  H2388   1.109   .     S
H2387  C2908   1.111   .     S
C2389  H2391   1.110   .     S
C2389  H2392   1.107   .     S
C2389  H2390   1.110   .     S
O2393  C2394   1.428   .     S
C2394  H2395   1.108   .     S
C2394  C2397   1.557   .     S
C2394  H2396   1.111   .     S
C2397  C2400   1.523   .     S
H2398  C2571   1.110   .     S
H2399  C2571   1.105   .     S
C2400  H2402   1.103   .     S
C2400  H2403   1.110   .     S
H2401  C2574   1.109   .     S
O2404  C2405   1.421   .     S
C2405  C2408   1.535   .     S
C2405  H2407   1.115   .     S
C2405  H2406   1.111   .     S
C2408  C2411   1.523   .     S
C2408  H2583   1.103   .     S
C2408  H2584   1.111   .     S
C2411  H2413   1.108   .     S
C2411  H2412   1.109   .     S
C2411  H2936   1.111   .     S
O2415  C2416   1.412   .     S
C2416  H2418   1.112   .     S
C2416  C2419   1.529   .     S
C2416  H2417   1.106   .     S
C2419  C2422   1.526   .     S
C2419  H2594   1.103   .     S
C2419  H2595   1.109   .     S
C2422  H2423   1.109   .     S
C2422  H2598   1.107   .     S
H2425  C2944   1.109   .     S
O2426  C2427   1.408   .     S
C2427  H2428   1.117   .     S
C2427  H2429   1.106   .     S
C2427  C2430   1.521   .     S
C2430  C2433   1.505   .     S
C2430  H2432   1.107   .     S
C2430  H2431   1.093   .     S
C2433  H2434   1.109   .     S
C2433  H2435   1.109   .     S
C2433  H2436   1.109   .     S
O2437  Cu2451  1.993   .     S
O2437  C2443   1.291   .     A
O2438  Cu2452  1.993   .     S
O2438  C2444   1.301   .     A
O2439  C2444   1.300   .     A
O2439  Cu2451  1.994   .     S
O2440  C2443   1.304   .     A
O2440  Cu2452  1.994   .     S
N2441  C2456   1.370   .     A
N2441  C2454   1.362   .     A
N2441  Cu2451  2.020   .     S
N2442  C2455   1.366   .     A
N2442  C2453   1.367   .     A
N2442  Cu2452  2.020   .     S
C2443  C2474   1.467   .     S
C2444  C2473   1.479   .     S
O2445  C2449   1.312   .     A
O2445  Cu2451  2.018   .     S
O2446  C2450   1.301   .     A
O2446  Cu2452  2.018   .     S
O2447  C2450   1.308   .     A
O2447  Cu2451  2.024   .     S
O2448  Cu2452  2.024   .     S
O2448  C2449   1.306   .     A
C2449  C2469   1.512   .     S
C2450  C2470   1.496   .     S
Cu2451 Cu2452  2.689   .     S
C2453  F2475   1.354   .     S
C2454  F2476   1.342   .     S
C2454  C2977   1.415   .     S
C2455  F2477   1.352   .     S
C2456  F2478   1.354   .     S
C2456  C2975   1.418   .     S
C2457  O2567   1.385   .     S
C2457  C2474   1.400   .     A
C2458  C2473   1.418   .     A
C2458  O2578   1.384   .     S
C2458  C2112   1.395   1_655 S
C2459  C2473   1.418   .     A
C2459  O2589   1.378   .     S
C2459  C2109   1.391   1_655 S
C2460  O2600   1.378   .     S
C2460  C2474   1.411   .     A
C2461  O2479   1.379   .     S
C2461  C2465   1.409   .     A
C2461  C2471   1.433   .     A
C2462  O2490   1.380   .     S
C2462  C2466   1.410   .     A
C2462  C2472   1.440   .     A
C2463  C2467   1.406   .     A
C2463  O2501   1.377   .     S
C2463  C2472   1.440   .     A
C2464  C2471   1.432   .     A
C2464  C2468   1.414   .     A
C2464  O2512   1.373   .     S
C2465  O2523   1.388   .     S
C2465  C2469   1.419   .     A
C2466  C2470   1.411   .     A
C2466  O2534   1.391   .     S
C2467  O2545   1.383   .     S
C2467  C2470   1.405   .     A
C2468  O2556   1.385   .     S
C2468  C2469   1.420   .     A
C2472  C905    1.560   1_556 S
O2479  C2480   1.410   .     S
C2480  H2481   1.112   .     S
C2480  C2483   1.529   .     S
C2480  H2482   1.116   .     S
C2483  H2485   1.109   .     S
C2483  H2484   1.108   .     S
C2483  C2486   1.531   .     S
C2486  H2487   1.111   .     S
C2486  H2140   1.109   1_655 S
C2486  H575    1.108   1_655 S
H2489  C746    1.108   1_556 S
O2490  C2491   1.412   .     S
C2491  H2492   1.104   .     S
C2491  H2493   1.116   .     S
C2491  C2494   1.529   .     S
C2494  H2496   1.111   .     S
C2494  C2497   1.529   .     S
C2494  H2495   1.112   .     S
C2497  H2499   1.107   .     S
C2497  H2498   1.110   .     S
C2497  H2500   1.108   .     S
O2501  C2502   1.407   .     S
C2502  C2505   1.515   .     S
C2502  H937    1.105   1_556 S
C2502  H938    1.110   1_556 S
C2505  H2506   1.111   .     S
C2505  H2507   1.108   .     S
C2505  C2508   1.520   .     S
C2508  H2510   1.109   .     S
C2508  H2509   1.105   .     S
C2508  H1467   1.104   1_556 S
O2512  C2513   1.411   .     S
C2513  H2515   1.117   .     S
C2513  C2516   1.523   .     S
H2514  C947    1.099   1_556 S
C2516  C2519   1.529   .     S
C2516  H2517   1.105   .     S
C2516  H2518   1.105   .     S
C2519  H2520   1.110   .     S
C2519  H2521   1.110   .     S
C2519  H2522   1.110   .     S
O2523  C2524   1.424   .     S
C2524  C2527   1.519   .     S
C2524  H2525   1.101   .     S
C2524  H2526   1.109   .     S
C2527  H2528   1.108   .     S
C2527  H2529   1.102   .     S
C2527  C2530   1.528   .     S
C2530  H2533   1.111   .     S
C2530  H2532   1.110   .     S
C2530  H2531   1.109   .     S
O2534  C2535   1.425   .     S
C2535  C2538   1.530   .     S
C2535  H2537   1.110   .     S
C2535  H2536   1.110   .     S
C2538  C2541   1.521   .     S
C2538  H2540   1.109   .     S
C2538  H2539   1.109   .     S
C2541  H2544   1.101   .     S
C2541  H2543   1.110   .     S
C2541  H2542   1.109   .     S
O2545  C2546   1.421   .     S
C2546  H2547   1.108   .     S
C2546  C2549   1.536   .     S
C2546  H2548   1.112   .     S
C2549  C2552   1.525   .     S
C2549  H2550   1.106   .     S
C2549  H2551   1.112   .     S
C2552  H2553   1.111   .     S
C2552  H2555   1.110   .     S
C2552  H2554   1.106   .     S
O2556  C2557   1.422   .     S
C2557  C2560   1.537   .     S
C2557  H2559   1.115   .     S
C2557  H2558   1.109   .     S
C2560  C2563   1.529   .     S
C2560  H2562   1.109   .     S
H2561  C3082   1.111   .     S
C2563  H2565   1.110   .     S
C2563  H2566   1.107   .     S
C2563  H2564   1.110   .     S
O2567  C2568   1.428   .     S
C2568  H2569   1.108   .     S
C2568  C2571   1.557   .     S
C2568  H2570   1.111   .     S
C2571  C2574   1.523   .     S
H2572  C2223   1.110   1_655 S
H2573  C2223   1.105   1_655 S
C2574  H2576   1.103   .     S
C2574  H2577   1.110   .     S
H2575  C2226   1.109   1_655 S
O2578  C2579   1.421   .     S
C2579  C2582   1.535   .     S
C2579  H2581   1.115   .     S
C2579  H2580   1.111   .     S
C2582  C2585   1.523   .     S
C2582  H2235   1.103   1_655 S
C2582  H2236   1.111   1_655 S
C2585  H2587   1.108   .     S
C2585  H2586   1.109   .     S
C2585  H3110   1.111   .     S
O2589  C2590   1.412   .     S
C2590  H2592   1.112   .     S
C2590  C2593   1.529   .     S
C2590  H2591   1.106   .     S
C2593  C2596   1.526   .     S
C2593  H2246   1.103   1_655 S
C2593  H2247   1.109   1_655 S
C2596  H2597   1.109   .     S
C2596  H2250   1.107   1_655 S
H2599  C3118   1.109   .     S
O2600  C2601   1.408   .     S
C2601  H2602   1.117   .     S
C2601  H2603   1.106   .     S
C2601  C2604   1.521   .     S
C2604  C2607   1.505   .     S
C2604  H2606   1.107   .     S
C2604  H2605   1.093   .     S
C2607  H2608   1.109   .     S
C2607  H2609   1.109   .     S
C2607  H2610   1.109   .     S
O2611  Cu2625  1.993   .     S
O2611  C2617   1.291   .     A
O2612  Cu2626  1.993   .     S
O2612  C2618   1.301   .     A
O2613  C2618   1.300   .     A
O2613  Cu2625  1.994   .     S
O2614  C2617   1.304   .     A
O2614  Cu2626  1.994   .     S
N2615  C2630   1.370   .     A
N2615  C2628   1.362   .     A
N2615  Cu2625  2.020   .     S
N2616  C2629   1.366   .     A
N2616  C2627   1.367   .     A
N2616  Cu2626  2.020   .     S
C2617  C2648   1.467   .     S
C2618  C2647   1.479   .     S
O2619  C2623   1.312   .     A
O2619  Cu2625  2.018   .     S
O2620  C2624   1.301   .     A
O2620  Cu2626  2.018   .     S
O2621  C2624   1.308   .     A
O2621  Cu2625  2.024   .     S
O2622  Cu2626  2.024   .     S
O2622  C2623   1.306   .     A
C2623  C2643   1.512   .     S
C2624  C2644   1.496   .     S
Cu2625 Cu2626  2.689   .     S
C2627  F2649   1.354   .     S
C2628  F2650   1.342   .     S
C2628  C1585   1.415   1_565 S
C2629  F2651   1.352   .     S
C2630  F2652   1.354   .     S
C2630  C1583   1.418   1_565 S
C2631  O2741   1.385   .     S
C2631  C2648   1.400   .     A
C2631  C2981   1.391   1_455 S
C2632  C2647   1.418   .     A
C2632  O2752   1.384   .     S
C2632  C2808   1.395   .     S
C2633  C2647   1.418   .     A
C2633  O2763   1.378   .     S
C2633  C2805   1.391   .     S
C2634  O2774   1.378   .     S
C2634  C2648   1.411   .     A
C2634  C2980   1.395   1_455 S
C2635  O2653   1.379   .     S
C2635  C2639   1.409   .     A
C2635  C2645   1.433   .     A
C2636  O2664   1.380   .     S
C2636  C2640   1.410   .     A
C2636  C2646   1.440   .     A
C2637  C2641   1.406   .     A
C2637  O2675   1.377   .     S
C2637  C2646   1.440   .     A
C2638  C2645   1.432   .     A
C2638  C2642   1.414   .     A
C2638  O2686   1.373   .     S
C2639  O2697   1.388   .     S
C2639  C2643   1.419   .     A
C2640  C2644   1.411   .     A
C2640  O2708   1.391   .     S
C2641  O2719   1.383   .     S
C2641  C2644   1.405   .     A
C2642  O2730   1.385   .     S
C2642  C2643   1.420   .     A
C2646  C1079   1.560   1_556 S
O2653  C2654   1.410   .     S
C2654  H2655   1.112   .     S
C2654  C2657   1.529   .     S
C2654  H2656   1.116   .     S
C2657  H2659   1.109   .     S
C2657  H2658   1.108   .     S
C2657  C2660   1.531   .     S
C2660  H2661   1.111   .     S
C2660  H2836   1.109   .     S
H2662  C3008   1.109   1_455 S
H2663  C1442   1.108   1_456 S
O2664  C2665   1.412   .     S
C2665  H2666   1.104   .     S
C2665  H2667   1.116   .     S
C2665  C2668   1.529   .     S
C2668  H2670   1.111   .     S
C2668  C2671   1.529   .     S
C2668  H2669   1.112   .     S
C2671  H2673   1.107   .     S
C2671  H2672   1.110   .     S
C2671  H2674   1.108   .     S
O2675  C2676   1.407   .     S
C2676  C2679   1.515   .     S
C2676  H1111   1.105   1_556 S
C2676  H1112   1.110   1_556 S
C2679  H2680   1.111   .     S
C2679  H2681   1.108   .     S
C2679  C2682   1.520   .     S
C2682  H2684   1.109   .     S
C2682  H2683   1.105   .     S
C2682  H75     1.104   1_566 S
O2686  C2687   1.411   .     S
C2687  H2689   1.117   .     S
C2687  C2690   1.523   .     S
H2688  C1121   1.099   1_556 S
C2690  C2693   1.529   .     S
C2690  H2691   1.105   .     S
C2690  H2692   1.105   .     S
C2693  H2694   1.110   .     S
C2693  H2695   1.110   .     S
C2693  H2696   1.110   .     S
O2697  C2698   1.424   .     S
C2698  C2701   1.519   .     S
C2698  H2699   1.101   .     S
C2698  H2700   1.109   .     S
C2701  H2702   1.108   .     S
C2701  H2703   1.102   .     S
C2701  C2704   1.528   .     S
C2704  H2707   1.111   .     S
C2704  H2706   1.110   .     S
C2704  H2705   1.109   .     S
O2708  C2709   1.425   .     S
C2709  C2712   1.530   .     S
C2709  H2711   1.110   .     S
C2709  H2710   1.110   .     S
C2712  C2715   1.521   .     S
C2712  H2714   1.109   .     S
C2712  H2713   1.109   .     S
C2715  H2718   1.101   .     S
C2715  H2717   1.110   .     S
C2715  H2716   1.109   .     S
O2719  C2720   1.421   .     S
C2720  H2721   1.108   .     S
C2720  C2723   1.536   .     S
C2720  H2722   1.112   .     S
C2723  C2726   1.525   .     S
C2723  H2724   1.106   .     S
C2723  H2725   1.112   .     S
C2726  H2727   1.111   .     S
C2726  H2729   1.110   .     S
C2726  H2728   1.106   .     S
O2730  C2731   1.422   .     S
C2731  C2734   1.537   .     S
C2731  H2733   1.115   .     S
C2731  H2732   1.109   .     S
C2734  C2737   1.529   .     S
C2734  H2736   1.109   .     S
H2735  C1690   1.111   1_565 S
C2737  H2739   1.110   .     S
C2737  H2740   1.107   .     S
C2737  H2738   1.110   .     S
O2741  C2742   1.428   .     S
C2742  H2743   1.108   .     S
C2742  C2745   1.557   .     S
C2742  H2744   1.111   .     S
C2745  C2748   1.523   .     S
C2745  H3094   1.110   1_455 S
C2745  H3095   1.105   1_455 S
H2746  C2919   1.110   .     S
H2747  C2919   1.105   .     S
C2748  H2750   1.103   .     S
C2748  H2751   1.110   .     S
C2748  H3097   1.109   1_455 S
H2749  C2922   1.109   .     S
O2752  C2753   1.421   .     S
C2753  C2756   1.535   .     S
C2753  H2755   1.115   .     S
C2753  H2754   1.111   .     S
C2756  C2759   1.523   .     S
C2756  H2931   1.103   .     S
C2756  H2932   1.111   .     S
H2757  C3104   1.103   1_455 S
H2758  C3104   1.111   1_455 S
C2759  H2761   1.108   .     S
C2759  H2760   1.109   .     S
C2759  H1718   1.111   1_565 S
O2763  C2764   1.412   .     S
C2764  H2766   1.112   .     S
C2764  C2767   1.529   .     S
C2764  H2765   1.106   .     S
C2767  C2770   1.526   .     S
C2767  H2942   1.103   .     S
C2767  H2943   1.109   .     S
H2768  C3115   1.103   1_455 S
H2769  C3115   1.109   1_455 S
C2770  H2771   1.109   .     S
C2770  H2946   1.107   .     S
H2772  C3118   1.107   1_455 S
H2773  C1726   1.109   1_565 S
O2774  C2775   1.408   .     S
C2775  H2776   1.117   .     S
C2775  H2777   1.106   .     S
C2775  C2778   1.521   .     S
C2778  C2781   1.505   .     S
C2778  H2780   1.107   .     S
C2778  H2779   1.093   .     S
C2781  H2782   1.109   .     S
C2781  H2783   1.109   .     S
C2781  H2784   1.109   .     S
O2785  Cu2799  1.993   .     S
O2785  C2791   1.291   .     A
O2786  Cu2800  1.993   .     S
O2786  C2792   1.301   .     A
O2787  C2792   1.300   .     A
O2787  Cu2799  1.994   .     S
O2788  C2791   1.304   .     A
O2788  Cu2800  1.994   .     S
N2789  C2804   1.370   .     A
N2789  C2802   1.362   .     A
N2789  Cu2799  2.020   .     S
N2790  C2803   1.366   .     A
N2790  C2801   1.367   .     A
N2790  Cu2800  2.020   .     S
C2791  C2822   1.467   .     S
C2792  C2821   1.479   .     S
O2793  C2797   1.312   .     A
O2793  Cu2799  2.018   .     S
O2794  C2798   1.301   .     A
O2794  Cu2800  2.018   .     S
O2795  C2798   1.308   .     A
O2795  Cu2799  2.024   .     S
O2796  Cu2800  2.024   .     S
O2796  C2797   1.306   .     A
C2797  C2817   1.512   .     S
C2798  C2818   1.496   .     S
Cu2799 Cu2800  2.689   .     S
C2801  F2823   1.354   .     S
C2802  F2824   1.342   .     S
C2802  C1759   1.415   1_565 S
C2803  F2825   1.352   .     S
C2804  F2826   1.354   .     S
C2804  C1757   1.418   1_565 S
C2805  O2915   1.385   .     S
C2805  C2822   1.400   .     A
C2806  C2821   1.418   .     A
C2806  O2926   1.384   .     S
C2806  C2982   1.395   .     S
C2807  C2821   1.418   .     A
C2807  O2937   1.378   .     S
C2807  C2979   1.391   .     S
C2808  O2948   1.378   .     S
C2808  C2822   1.411   .     A
C2809  O2827   1.379   .     S
C2809  C2813   1.409   .     A
C2809  C2819   1.433   .     A
C2810  O2838   1.380   .     S
C2810  C2814   1.410   .     A
C2810  C2820   1.440   .     A
C2811  C2815   1.406   .     A
C2811  O2849   1.377   .     S
C2811  C2820   1.440   .     A
C2812  C2819   1.432   .     A
C2812  C2816   1.414   .     A
C2812  O2860   1.373   .     S
C2813  O2871   1.388   .     S
C2813  C2817   1.419   .     A
C2814  C2818   1.411   .     A
C2814  O2882   1.391   .     S
C2815  O2893   1.383   .     S
C2815  C2818   1.405   .     A
C2816  O2904   1.385   .     S
C2816  C2817   1.420   .     A
C2820  C1253   1.560   1_556 S
O2827  C2828   1.410   .     S
C2828  H2829   1.112   .     S
C2828  C2831   1.529   .     S
C2828  H2830   1.116   .     S
C2831  H2833   1.109   .     S
C2831  H2832   1.108   .     S
C2831  C2834   1.531   .     S
C2834  H2835   1.111   .     S
C2834  H3010   1.109   .     S
H2837  C1094   1.108   1_556 S
O2838  C2839   1.412   .     S
C2839  H2840   1.104   .     S
C2839  H2841   1.116   .     S
C2839  C2842   1.529   .     S
C2842  H2844   1.111   .     S
C2842  C2845   1.529   .     S
C2842  H2843   1.112   .     S
C2845  H2847   1.107   .     S
C2845  H2846   1.110   .     S
C2845  H2848   1.108   .     S
O2849  C2850   1.407   .     S
C2850  C2853   1.515   .     S
C2850  H1285   1.105   1_556 S
C2850  H1286   1.110   1_556 S
C2853  H2854   1.111   .     S
C2853  H2855   1.108   .     S
C2853  C2856   1.520   .     S
C2856  H2858   1.109   .     S
C2856  H2857   1.105   .     S
C2856  H249    1.104   1_566 S
O2860  C2861   1.411   .     S
C2861  H2863   1.117   .     S
C2861  C2864   1.523   .     S
H2862  C1295   1.099   1_556 S
C2864  C2867   1.529   .     S
C2864  H2865   1.105   .     S
C2864  H2866   1.105   .     S
C2867  H2868   1.110   .     S
C2867  H2869   1.110   .     S
C2867  H2870   1.110   .     S
O2871  C2872   1.424   .     S
C2872  C2875   1.519   .     S
C2872  H2873   1.101   .     S
C2872  H2874   1.109   .     S
C2875  H2876   1.108   .     S
C2875  H2877   1.102   .     S
C2875  C2878   1.528   .     S
C2878  H2881   1.111   .     S
C2878  H2880   1.110   .     S
C2878  H2879   1.109   .     S
O2882  C2883   1.425   .     S
C2883  C2886   1.530   .     S
C2883  H2885   1.110   .     S
C2883  H2884   1.110   .     S
C2886  C2889   1.521   .     S
C2886  H2888   1.109   .     S
C2886  H2887   1.109   .     S
C2889  H2892   1.101   .     S
C2889  H2891   1.110   .     S
C2889  H2890   1.109   .     S
O2893  C2894   1.421   .     S
C2894  H2895   1.108   .     S
C2894  C2897   1.536   .     S
C2894  H2896   1.112   .     S
C2897  C2900   1.525   .     S
C2897  H2898   1.106   .     S
C2897  H2899   1.112   .     S
C2900  H2901   1.111   .     S
C2900  H2903   1.110   .     S
C2900  H2902   1.106   .     S
O2904  C2905   1.422   .     S
C2905  C2908   1.537   .     S
C2905  H2907   1.115   .     S
C2905  H2906   1.109   .     S
C2908  C2911   1.529   .     S
C2908  H2910   1.109   .     S
H2909  C1864   1.111   1_565 S
C2911  H2913   1.110   .     S
C2911  H2914   1.107   .     S
C2911  H2912   1.110   .     S
O2915  C2916   1.428   .     S
C2916  H2917   1.108   .     S
C2916  C2919   1.557   .     S
C2916  H2918   1.111   .     S
C2919  C2922   1.523   .     S
H2920  C3093   1.110   .     S
H2921  C3093   1.105   .     S
C2922  H2924   1.103   .     S
C2922  H2925   1.110   .     S
H2923  C3096   1.109   .     S
O2926  C2927   1.421   .     S
C2927  C2930   1.535   .     S
C2927  H2929   1.115   .     S
C2927  H2928   1.111   .     S
C2930  C2933   1.523   .     S
C2930  H3105   1.103   .     S
C2930  H3106   1.111   .     S
C2933  H2935   1.108   .     S
C2933  H2934   1.109   .     S
C2933  H1892   1.111   1_565 S
O2937  C2938   1.412   .     S
C2938  H2940   1.112   .     S
C2938  C2941   1.529   .     S
C2938  H2939   1.106   .     S
C2941  C2944   1.526   .     S
C2941  H3116   1.103   .     S
C2941  H3117   1.109   .     S
C2944  H2945   1.109   .     S
C2944  H3120   1.107   .     S
H2947  C1900   1.109   1_565 S
O2948  C2949   1.408   .     S
C2949  H2950   1.117   .     S
C2949  H2951   1.106   .     S
C2949  C2952   1.521   .     S
C2952  C2955   1.505   .     S
C2952  H2954   1.107   .     S
C2952  H2953   1.093   .     S
C2955  H2956   1.109   .     S
C2955  H2957   1.109   .     S
C2955  H2958   1.109   .     S
O2959  Cu2973  1.993   .     S
O2959  C2965   1.291   .     A
O2960  Cu2974  1.993   .     S
O2960  C2966   1.301   .     A
O2961  C2966   1.300   .     A
O2961  Cu2973  1.994   .     S
O2962  C2965   1.304   .     A
O2962  Cu2974  1.994   .     S
N2963  C2978   1.370   .     A
N2963  C2976   1.362   .     A
N2963  Cu2973  2.020   .     S
N2964  C2977   1.366   .     A
N2964  C2975   1.367   .     A
N2964  Cu2974  2.020   .     S
C2965  C2996   1.467   .     S
C2966  C2995   1.479   .     S
O2967  C2971   1.312   .     A
O2967  Cu2973  2.018   .     S
O2968  C2972   1.301   .     A
O2968  Cu2974  2.018   .     S
O2969  C2972   1.308   .     A
O2969  Cu2973  2.024   .     S
O2970  Cu2974  2.024   .     S
O2970  C2971   1.306   .     A
C2971  C2991   1.512   .     S
C2972  C2992   1.496   .     S
Cu2973 Cu2974  2.689   .     S
C2975  F2997   1.354   .     S
C2976  F2998   1.342   .     S
C2976  C1933   1.415   1_565 S
C2977  F2999   1.352   .     S
C2978  F3000   1.354   .     S
C2978  C1931   1.418   1_565 S
C2979  O3089   1.385   .     S
C2979  C2996   1.400   .     A
C2980  C2995   1.418   .     A
C2980  O3100   1.384   .     S
C2980  C2634   1.395   1_655 S
C2981  C2995   1.418   .     A
C2981  O3111   1.378   .     S
C2981  C2631   1.391   1_655 S
C2982  O3122   1.378   .     S
C2982  C2996   1.411   .     A
C2983  O3001   1.379   .     S
C2983  C2987   1.409   .     A
C2983  C2993   1.433   .     A
C2984  O3012   1.380   .     S
C2984  C2988   1.410   .     A
C2984  C2994   1.440   .     A
C2985  C2989   1.406   .     A
C2985  O3023   1.377   .     S
C2985  C2994   1.440   .     A
C2986  C2993   1.432   .     A
C2986  C2990   1.414   .     A
C2986  O3034   1.373   .     S
C2987  O3045   1.388   .     S
C2987  C2991   1.419   .     A
C2988  C2992   1.411   .     A
C2988  O3056   1.391   .     S
C2989  O3067   1.383   .     S
C2989  C2992   1.405   .     A
C2990  O3078   1.385   .     S
C2990  C2991   1.420   .     A
C2994  C1427   1.560   1_556 S
O3001  C3002   1.410   .     S
C3002  H3003   1.112   .     S
C3002  C3005   1.529   .     S
C3002  H3004   1.116   .     S
C3005  H3007   1.109   .     S
C3005  H3006   1.108   .     S
C3005  C3008   1.531   .     S
C3008  H3009   1.111   .     S
C3008  H2662   1.109   1_655 S
C3008  H1097   1.108   1_655 S
H3011  C1268   1.108   1_556 S
O3012  C3013   1.412   .     S
C3013  H3014   1.104   .     S
C3013  H3015   1.116   .     S
C3013  C3016   1.529   .     S
C3016  H3018   1.111   .     S
C3016  C3019   1.529   .     S
C3016  H3017   1.112   .     S
C3019  H3021   1.107   .     S
C3019  H3020   1.110   .     S
C3019  H3022   1.108   .     S
O3023  C3024   1.407   .     S
C3024  C3027   1.515   .     S
C3024  H1459   1.105   1_556 S
C3024  H1460   1.110   1_556 S
C3027  H3028   1.111   .     S
C3027  H3029   1.108   .     S
C3027  C3030   1.520   .     S
C3030  H3032   1.109   .     S
C3030  H3031   1.105   .     S
C3030  H423    1.104   1_566 S
O3034  C3035   1.411   .     S
C3035  H3037   1.117   .     S
C3035  C3038   1.523   .     S
H3036  C1469   1.099   1_556 S
C3038  C3041   1.529   .     S
C3038  H3039   1.105   .     S
C3038  H3040   1.105   .     S
C3041  H3042   1.110   .     S
C3041  H3043   1.110   .     S
C3041  H3044   1.110   .     S
O3045  C3046   1.424   .     S
C3046  C3049   1.519   .     S
C3046  H3047   1.101   .     S
C3046  H3048   1.109   .     S
C3049  H3050   1.108   .     S
C3049  H3051   1.102   .     S
C3049  C3052   1.528   .     S
C3052  H3055   1.111   .     S
C3052  H3054   1.110   .     S
C3052  H3053   1.109   .     S
O3056  C3057   1.425   .     S
C3057  C3060   1.530   .     S
C3057  H3059   1.110   .     S
C3057  H3058   1.110   .     S
C3060  C3063   1.521   .     S
C3060  H3062   1.109   .     S
C3060  H3061   1.109   .     S
C3063  H3066   1.101   .     S
C3063  H3065   1.110   .     S
C3063  H3064   1.109   .     S
O3067  C3068   1.421   .     S
C3068  H3069   1.108   .     S
C3068  C3071   1.536   .     S
C3068  H3070   1.112   .     S
C3071  C3074   1.525   .     S
C3071  H3072   1.106   .     S
C3071  H3073   1.112   .     S
C3074  H3075   1.111   .     S
C3074  H3077   1.110   .     S
C3074  H3076   1.106   .     S
O3078  C3079   1.422   .     S
C3079  C3082   1.537   .     S
C3079  H3081   1.115   .     S
C3079  H3080   1.109   .     S
C3082  C3085   1.529   .     S
C3082  H3084   1.109   .     S
H3083  C2038   1.111   1_565 S
C3085  H3087   1.110   .     S
C3085  H3088   1.107   .     S
C3085  H3086   1.110   .     S
O3089  C3090   1.428   .     S
C3090  H3091   1.108   .     S
C3090  C3093   1.557   .     S
C3090  H3092   1.111   .     S
C3093  C3096   1.523   .     S
H3094  C2745   1.110   1_655 S
H3095  C2745   1.105   1_655 S
C3096  H3098   1.103   .     S
C3096  H3099   1.110   .     S
H3097  C2748   1.109   1_655 S
O3100  C3101   1.421   .     S
C3101  C3104   1.535   .     S
C3101  H3103   1.115   .     S
C3101  H3102   1.111   .     S
C3104  C3107   1.523   .     S
C3104  H2757   1.103   1_655 S
C3104  H2758   1.111   1_655 S
C3107  H3109   1.108   .     S
C3107  H3108   1.109   .     S
C3107  H2066   1.111   1_565 S
O3111  C3112   1.412   .     S
C3112  H3114   1.112   .     S
C3112  C3115   1.529   .     S
C3112  H3113   1.106   .     S
C3115  C3118   1.526   .     S
C3115  H2768   1.103   1_655 S
C3115  H2769   1.109   1_655 S
C3118  H3119   1.109   .     S
C3118  H2772   1.107   1_655 S
H3121  C2074   1.109   1_565 S
O3122  C3123   1.408   .     S
C3123  H3124   1.117   .     S
C3123  H3125   1.106   .     S
C3123  C3126   1.521   .     S
C3126  C3129   1.505   .     S
C3126  H3128   1.107   .     S
C3126  H3127   1.093   .     S
C3129  H3130   1.109   .     S
C3129  H3131   1.109   .     S
C3129  H3132   1.109   .     S
