data_str_m2_o1_o18_pcu_sym.155
_audit_creation_date              2020-01-03
_audit_creation_method            'Materials Studio'
_symmetry_space_group_name_H-M    'P1'
_symmetry_Int_Tables_number       1
_symmetry_cell_setting            triclinic
loop_
_symmetry_equiv_pos_as_xyz
  x,y,z
_cell_length_a                    28.6281
_cell_length_b                    32.3625
_cell_length_c                    30.6713
_cell_angle_alpha                 89.5627
_cell_angle_beta                  74.3055
_cell_angle_gamma                 89.8607
loop_
_atom_site_label
_atom_site_type_symbol
_atom_site_fract_x
_atom_site_fract_y
_atom_site_fract_z
_atom_site_U_iso_or_equiv
_atom_site_adp_type
_atom_site_occupancy
C1     C     0.33319   0.08748   0.25079   0.00000  Uiso   1.00
C2     C     0.00015   0.24585   0.24918   0.00000  Uiso   1.00
C3     C     0.19551   0.16927   0.05164   0.00000  Uiso   1.00
C4     C     0.15041   0.21104   0.45809   0.00000  Uiso   1.00
C5     C     0.24418   0.16010   0.02979   0.00000  Uiso   1.00
C6     C     0.10144   0.21943   0.47994   0.00000  Uiso   1.00
C7     C     0.29684   0.02045   0.28317   0.00000  Uiso   1.00
C8     C     0.03646   0.31286   0.21674   0.00000  Uiso   1.00
C9     C     0.29684   0.31100   0.28061   0.00000  Uiso   1.00
C10    C     0.03648   0.02231   0.21932   0.00000  Uiso   1.00
C11    C     0.33333   0.29047   0.24826   0.00000  Uiso   1.00
C12    C     0.00000   0.04285   0.25167   0.00000  Uiso   1.00
C13    C     0.18340   0.14048   0.27774   0.00000  Uiso   1.00
C14    C     0.14990   0.19290   0.22232   0.00000  Uiso   1.00
C15    C     0.13389   0.14050   0.27773   0.00000  Uiso   1.00
C16    C     0.19935   0.19300   0.22249   0.00000  Uiso   1.00
C17    C     0.30609   0.16605   0.33645   0.00000  Uiso   1.00
C18    C     0.02730   0.16828   0.16369   0.00000  Uiso   1.00
C19    C     0.29168   0.16542   0.38650   0.00000  Uiso   1.00
C20    C     0.04259   0.17695   0.11464   0.00000  Uiso   1.00
C21    C     0.31009   0.15419   0.45888   0.00000  Uiso   1.00
C22    C     0.03176   0.21321   0.04806   0.00000  Uiso   1.00
C23    C     0.32518   0.15651   0.41122   0.00000  Uiso   1.00
C24    C     0.01341   0.19979   0.09332   0.00000  Uiso   1.00
C25    C     0.24357   0.17363   0.40960   0.00000  Uiso   1.00
C26    C     0.08998   0.16749   0.09079   0.00000  Uiso   1.00
C27    C     0.22827   0.17599   0.45710   0.00000  Uiso   1.00
C28    C     0.11146   0.18457   0.04780   0.00000  Uiso   1.00
C29    C     0.26106   0.16328   0.48215   0.00000  Uiso   1.00
C30    C     0.08128   0.20570   0.02494   0.00000  Uiso   1.00
C31    C     0.18008   0.18832   0.47997   0.00000  Uiso   1.00
C32    C     0.16201   0.17986   0.02678   0.00000  Uiso   1.00
Cu33   Cu    0.04689   0.16667   0.25000   0.00000  Uiso   1.00
Cu34   Cu    0.28645   0.16666   0.25000   0.00000  Uiso   1.00
H35    H     0.10963   0.14629   0.10665   0.00000  Uiso   1.00
H36    H     0.21775   0.17663   0.38987   0.00000  Uiso   1.00
N37    N     0.11736   0.16668   0.24999   0.00000  Uiso   1.00
N38    N     0.21597   0.16666   0.25001   0.00000  Uiso   1.00
O39    O     0.03958   0.10655   0.25000   0.00000  Uiso   1.00
O40    O     0.29375   0.22678   0.25000   0.00000  Uiso   1.00
O41    O     0.29372   0.10654   0.25000   0.00000  Uiso   1.00
O42    O     0.03961   0.22679   0.24999   0.00000  Uiso   1.00
O43    O     0.01852   0.16668   0.31491   0.00000  Uiso   1.00
O44    O     0.31481   0.16666   0.18508   0.00000  Uiso   1.00
O45    O     0.27267   0.16667   0.31492   0.00000  Uiso   1.00
O46    O     0.06067   0.16667   0.18508   0.00000  Uiso   1.00
O47    O     0.27554   0.14743   0.05457   0.00000  Uiso   1.00
H48    H     0.25758   0.14269   0.08665   0.00000  Uiso   1.00
O49    O     0.07289   0.24122   0.45780   0.00000  Uiso   1.00
H50    H     0.09047   0.24543   0.42553   0.00000  Uiso   1.00
F51    F     0.30095   0.21020   0.11685   0.00000  Uiso   1.00
F52    F     0.03882   0.14833   0.38907   0.00000  Uiso   1.00
O53    O     0.00928   0.14314   0.48311   0.00000  Uiso   1.00
H54    H     0.04190   0.13840   0.46236   0.00000  Uiso   1.00
O55    O     0.00240   0.23463   0.02650   0.00000  Uiso   1.00
H56    H     0.30222   0.23636   0.04645   0.00000  Uiso   1.00
F57    F     0.18310   0.17279   0.09747   0.00000  Uiso   1.00
F58    F     0.17014   0.23000   0.41763   0.00000  Uiso   1.00
O59    O     0.26159   0.03876   0.31751   0.00000  Uiso   1.00
H60    H     0.27217   0.06686   0.32302   0.00000  Uiso   1.00
O61    O     0.07164   0.29454   0.18235   0.00000  Uiso   1.00
H62    H     0.06102   0.26645   0.17683   0.00000  Uiso   1.00
F63    F     0.26235   0.28926   0.31138   0.00000  Uiso   1.00
F64    F     0.07098   0.04405   0.18857   0.00000  Uiso   1.00
F65    F     0.19840   0.11417   0.30577   0.00000  Uiso   1.00
F66    F     0.13487   0.21927   0.19437   0.00000  Uiso   1.00
F67    F     0.10268   0.11411   0.30556   0.00000  Uiso   1.00
F68    F     0.23029   0.21991   0.19528   0.00000  Uiso   1.00
C69    C     0.66652   0.08748   0.25079   0.00000  Uiso   1.00
C70    C     0.33348   0.24585   0.24918   0.00000  Uiso   1.00
C71    C     0.52885   0.16927   0.05164   0.00000  Uiso   1.00
C72    C     0.48374   0.21104   0.45809   0.00000  Uiso   1.00
C73    C     0.57752   0.16010   0.02979   0.00000  Uiso   1.00
C74    C     0.43477   0.21943   0.47994   0.00000  Uiso   1.00
C75    C     0.63017   0.02045   0.28317   0.00000  Uiso   1.00
C76    C     0.36979   0.31286   0.21674   0.00000  Uiso   1.00
C77    C     0.63017   0.31100   0.28061   0.00000  Uiso   1.00
C78    C     0.36982   0.02231   0.21932   0.00000  Uiso   1.00
C79    C     0.66666   0.29047   0.24826   0.00000  Uiso   1.00
C80    C     0.33333   0.04285   0.25167   0.00000  Uiso   1.00
C81    C     0.51674   0.14048   0.27774   0.00000  Uiso   1.00
C82    C     0.48323   0.19290   0.22232   0.00000  Uiso   1.00
C83    C     0.46722   0.14050   0.27773   0.00000  Uiso   1.00
C84    C     0.53268   0.19300   0.22249   0.00000  Uiso   1.00
C85    C     0.63942   0.16605   0.33645   0.00000  Uiso   1.00
C86    C     0.36063   0.16828   0.16369   0.00000  Uiso   1.00
C87    C     0.62502   0.16542   0.38650   0.00000  Uiso   1.00
C88    C     0.37592   0.17695   0.11464   0.00000  Uiso   1.00
C89    C     0.64343   0.15419   0.45888   0.00000  Uiso   1.00
C90    C     0.36510   0.21321   0.04806   0.00000  Uiso   1.00
C91    C     0.65851   0.15651   0.41122   0.00000  Uiso   1.00
C92    C     0.34675   0.19979   0.09332   0.00000  Uiso   1.00
C93    C     0.57690   0.17363   0.40960   0.00000  Uiso   1.00
C94    C     0.42332   0.16749   0.09079   0.00000  Uiso   1.00
C95    C     0.56160   0.17599   0.45710   0.00000  Uiso   1.00
C96    C     0.44479   0.18457   0.04780   0.00000  Uiso   1.00
C97    C     0.59439   0.16328   0.48215   0.00000  Uiso   1.00
C98    C     0.41461   0.20570   0.02494   0.00000  Uiso   1.00
C99    C     0.51342   0.18832   0.47997   0.00000  Uiso   1.00
C100   C     0.49535   0.17986   0.02678   0.00000  Uiso   1.00
Cu101  Cu    0.38022   0.16667   0.25000   0.00000  Uiso   1.00
Cu102  Cu    0.61978   0.16666   0.25000   0.00000  Uiso   1.00
H103   H     0.44297   0.14629   0.10665   0.00000  Uiso   1.00
H104   H     0.55108   0.17663   0.38987   0.00000  Uiso   1.00
N105   N     0.45069   0.16668   0.24999   0.00000  Uiso   1.00
N106   N     0.54931   0.16666   0.25001   0.00000  Uiso   1.00
O107   O     0.37291   0.10655   0.25000   0.00000  Uiso   1.00
O108   O     0.62709   0.22678   0.25000   0.00000  Uiso   1.00
O109   O     0.62706   0.10654   0.25000   0.00000  Uiso   1.00
O110   O     0.37294   0.22679   0.24999   0.00000  Uiso   1.00
O111   O     0.35186   0.16668   0.31491   0.00000  Uiso   1.00
O112   O     0.64814   0.16666   0.18508   0.00000  Uiso   1.00
O113   O     0.60600   0.16667   0.31492   0.00000  Uiso   1.00
O114   O     0.39400   0.16667   0.18508   0.00000  Uiso   1.00
O115   O     0.60888   0.14743   0.05457   0.00000  Uiso   1.00
H116   H     0.59091   0.14269   0.08665   0.00000  Uiso   1.00
O117   O     0.40623   0.24122   0.45780   0.00000  Uiso   1.00
H118   H     0.42380   0.24543   0.42553   0.00000  Uiso   1.00
F119   F     0.63429   0.21020   0.11685   0.00000  Uiso   1.00
F120   F     0.37215   0.14833   0.38907   0.00000  Uiso   1.00
O121   O     0.34261   0.14314   0.48311   0.00000  Uiso   1.00
H122   H     0.37523   0.13840   0.46236   0.00000  Uiso   1.00
O123   O     0.33573   0.23463   0.02650   0.00000  Uiso   1.00
H124   H     0.63556   0.23636   0.04645   0.00000  Uiso   1.00
F125   F     0.51643   0.17279   0.09747   0.00000  Uiso   1.00
F126   F     0.50348   0.23000   0.41763   0.00000  Uiso   1.00
O127   O     0.59492   0.03876   0.31751   0.00000  Uiso   1.00
H128   H     0.60550   0.06686   0.32302   0.00000  Uiso   1.00
O129   O     0.40497   0.29454   0.18235   0.00000  Uiso   1.00
H130   H     0.39435   0.26645   0.17683   0.00000  Uiso   1.00
F131   F     0.59568   0.28926   0.31138   0.00000  Uiso   1.00
F132   F     0.40431   0.04405   0.18857   0.00000  Uiso   1.00
F133   F     0.53174   0.11417   0.30577   0.00000  Uiso   1.00
F134   F     0.46821   0.21927   0.19437   0.00000  Uiso   1.00
F135   F     0.43601   0.11411   0.30556   0.00000  Uiso   1.00
F136   F     0.56363   0.21991   0.19528   0.00000  Uiso   1.00
C137   C     0.99985   0.08748   0.25079   0.00000  Uiso   1.00
C138   C     0.66682   0.24585   0.24918   0.00000  Uiso   1.00
C139   C     0.86218   0.16927   0.05164   0.00000  Uiso   1.00
C140   C     0.81707   0.21104   0.45809   0.00000  Uiso   1.00
C141   C     0.91085   0.16010   0.02979   0.00000  Uiso   1.00
C142   C     0.76811   0.21943   0.47994   0.00000  Uiso   1.00
C143   C     0.96350   0.02045   0.28317   0.00000  Uiso   1.00
C144   C     0.70313   0.31286   0.21674   0.00000  Uiso   1.00
C145   C     0.96350   0.31100   0.28061   0.00000  Uiso   1.00
C146   C     0.70315   0.02231   0.21932   0.00000  Uiso   1.00
C147   C     0.99999   0.29047   0.24826   0.00000  Uiso   1.00
C148   C     0.66667   0.04285   0.25167   0.00000  Uiso   1.00
C149   C     0.85007   0.14048   0.27774   0.00000  Uiso   1.00
C150   C     0.81657   0.19290   0.22232   0.00000  Uiso   1.00
C151   C     0.80055   0.14050   0.27773   0.00000  Uiso   1.00
C152   C     0.86601   0.19300   0.22249   0.00000  Uiso   1.00
C153   C     0.97276   0.16605   0.33645   0.00000  Uiso   1.00
C154   C     0.69397   0.16828   0.16369   0.00000  Uiso   1.00
C155   C     0.95835   0.16542   0.38650   0.00000  Uiso   1.00
C156   C     0.70926   0.17695   0.11464   0.00000  Uiso   1.00
C157   C     0.97676   0.15419   0.45888   0.00000  Uiso   1.00
C158   C     0.69843   0.21321   0.04806   0.00000  Uiso   1.00
C159   C     0.99184   0.15651   0.41122   0.00000  Uiso   1.00
C160   C     0.68008   0.19979   0.09332   0.00000  Uiso   1.00
C161   C     0.91023   0.17363   0.40960   0.00000  Uiso   1.00
C162   C     0.75665   0.16749   0.09079   0.00000  Uiso   1.00
C163   C     0.89493   0.17599   0.45710   0.00000  Uiso   1.00
C164   C     0.77813   0.18457   0.04780   0.00000  Uiso   1.00
C165   C     0.92773   0.16328   0.48215   0.00000  Uiso   1.00
C166   C     0.74794   0.20570   0.02494   0.00000  Uiso   1.00
C167   C     0.84675   0.18832   0.47997   0.00000  Uiso   1.00
C168   C     0.82868   0.17986   0.02678   0.00000  Uiso   1.00
Cu169  Cu    0.71355   0.16667   0.25000   0.00000  Uiso   1.00
Cu170  Cu    0.95311   0.16666   0.25000   0.00000  Uiso   1.00
H171   H     0.77630   0.14629   0.10665   0.00000  Uiso   1.00
H172   H     0.88441   0.17663   0.38987   0.00000  Uiso   1.00
N173   N     0.78403   0.16668   0.24999   0.00000  Uiso   1.00
N174   N     0.88264   0.16666   0.25001   0.00000  Uiso   1.00
O175   O     0.70625   0.10655   0.25000   0.00000  Uiso   1.00
O176   O     0.96042   0.22678   0.25000   0.00000  Uiso   1.00
O177   O     0.96039   0.10654   0.25000   0.00000  Uiso   1.00
O178   O     0.70628   0.22679   0.24999   0.00000  Uiso   1.00
O179   O     0.68519   0.16668   0.31491   0.00000  Uiso   1.00
O180   O     0.98148   0.16666   0.18508   0.00000  Uiso   1.00
O181   O     0.93933   0.16667   0.31492   0.00000  Uiso   1.00
O182   O     0.72733   0.16667   0.18508   0.00000  Uiso   1.00
O183   O     0.94221   0.14743   0.05457   0.00000  Uiso   1.00
H184   H     0.92424   0.14269   0.08665   0.00000  Uiso   1.00
O185   O     0.73956   0.24122   0.45780   0.00000  Uiso   1.00
H186   H     0.75714   0.24543   0.42553   0.00000  Uiso   1.00
F187   F     0.96762   0.21020   0.11685   0.00000  Uiso   1.00
F188   F     0.70548   0.14833   0.38907   0.00000  Uiso   1.00
O189   O     0.67594   0.14314   0.48311   0.00000  Uiso   1.00
H190   H     0.70856   0.13840   0.46236   0.00000  Uiso   1.00
O191   O     0.66906   0.23463   0.02650   0.00000  Uiso   1.00
H192   H     0.96889   0.23636   0.04645   0.00000  Uiso   1.00
F193   F     0.84977   0.17279   0.09747   0.00000  Uiso   1.00
F194   F     0.83681   0.23000   0.41763   0.00000  Uiso   1.00
O195   O     0.92826   0.03876   0.31751   0.00000  Uiso   1.00
H196   H     0.93883   0.06686   0.32302   0.00000  Uiso   1.00
O197   O     0.73831   0.29454   0.18235   0.00000  Uiso   1.00
H198   H     0.72768   0.26645   0.17683   0.00000  Uiso   1.00
F199   F     0.92902   0.28926   0.31138   0.00000  Uiso   1.00
F200   F     0.73765   0.04405   0.18857   0.00000  Uiso   1.00
F201   F     0.86507   0.11417   0.30577   0.00000  Uiso   1.00
F202   F     0.80154   0.21927   0.19437   0.00000  Uiso   1.00
F203   F     0.76934   0.11411   0.30556   0.00000  Uiso   1.00
F204   F     0.89696   0.21991   0.19528   0.00000  Uiso   1.00
C205   C     0.33319   0.42081   0.25079   0.00000  Uiso   1.00
C206   C     0.00015   0.57919   0.24918   0.00000  Uiso   1.00
C207   C     0.19551   0.50260   0.05164   0.00000  Uiso   1.00
C208   C     0.15041   0.54437   0.45809   0.00000  Uiso   1.00
C209   C     0.24418   0.49344   0.02979   0.00000  Uiso   1.00
C210   C     0.10144   0.55276   0.47994   0.00000  Uiso   1.00
C211   C     0.29684   0.35378   0.28317   0.00000  Uiso   1.00
C212   C     0.03646   0.64619   0.21674   0.00000  Uiso   1.00
C213   C     0.29684   0.64434   0.28061   0.00000  Uiso   1.00
C214   C     0.03648   0.35564   0.21932   0.00000  Uiso   1.00
C215   C     0.33333   0.62380   0.24826   0.00000  Uiso   1.00
C216   C     0.00000   0.37618   0.25167   0.00000  Uiso   1.00
C217   C     0.18340   0.47381   0.27774   0.00000  Uiso   1.00
C218   C     0.14990   0.52623   0.22232   0.00000  Uiso   1.00
C219   C     0.13389   0.47384   0.27773   0.00000  Uiso   1.00
C220   C     0.19935   0.52633   0.22249   0.00000  Uiso   1.00
C221   C     0.30609   0.49938   0.33645   0.00000  Uiso   1.00
C222   C     0.02730   0.50161   0.16369   0.00000  Uiso   1.00
C223   C     0.29168   0.49876   0.38650   0.00000  Uiso   1.00
C224   C     0.04259   0.51028   0.11464   0.00000  Uiso   1.00
C225   C     0.31009   0.48752   0.45888   0.00000  Uiso   1.00
C226   C     0.03176   0.54655   0.04806   0.00000  Uiso   1.00
C227   C     0.32518   0.48985   0.41122   0.00000  Uiso   1.00
C228   C     0.01341   0.53313   0.09332   0.00000  Uiso   1.00
C229   C     0.24357   0.50696   0.40960   0.00000  Uiso   1.00
C230   C     0.08998   0.50082   0.09079   0.00000  Uiso   1.00
C231   C     0.22827   0.50933   0.45710   0.00000  Uiso   1.00
C232   C     0.11146   0.51790   0.04780   0.00000  Uiso   1.00
C233   C     0.26106   0.49662   0.48215   0.00000  Uiso   1.00
C234   C     0.08128   0.53903   0.02494   0.00000  Uiso   1.00
C235   C     0.18008   0.52165   0.47997   0.00000  Uiso   1.00
C236   C     0.16201   0.51319   0.02678   0.00000  Uiso   1.00
Cu237  Cu    0.04689   0.50001   0.25000   0.00000  Uiso   1.00
Cu238  Cu    0.28645   0.49999   0.25000   0.00000  Uiso   1.00
H239   H     0.10963   0.47962   0.10665   0.00000  Uiso   1.00
H240   H     0.21775   0.50996   0.38987   0.00000  Uiso   1.00
N241   N     0.11736   0.50001   0.24999   0.00000  Uiso   1.00
N242   N     0.21597   0.49999   0.25001   0.00000  Uiso   1.00
O243   O     0.03958   0.43989   0.25000   0.00000  Uiso   1.00
O244   O     0.29375   0.56011   0.25000   0.00000  Uiso   1.00
O245   O     0.29372   0.43988   0.25000   0.00000  Uiso   1.00
O246   O     0.03961   0.56012   0.24999   0.00000  Uiso   1.00
O247   O     0.01852   0.50001   0.31491   0.00000  Uiso   1.00
O248   O     0.31481   0.49999   0.18508   0.00000  Uiso   1.00
O249   O     0.27267   0.50000   0.31492   0.00000  Uiso   1.00
O250   O     0.06067   0.50000   0.18508   0.00000  Uiso   1.00
O251   O     0.27554   0.48076   0.05457   0.00000  Uiso   1.00
H252   H     0.25758   0.47603   0.08665   0.00000  Uiso   1.00
O253   O     0.07289   0.57456   0.45780   0.00000  Uiso   1.00
H254   H     0.09047   0.57876   0.42553   0.00000  Uiso   1.00
F255   F     0.30095   0.54353   0.11685   0.00000  Uiso   1.00
F256   F     0.03882   0.48167   0.38907   0.00000  Uiso   1.00
O257   O     0.00928   0.47648   0.48311   0.00000  Uiso   1.00
H258   H     0.04190   0.47173   0.46236   0.00000  Uiso   1.00
O259   O     0.00240   0.56797   0.02650   0.00000  Uiso   1.00
H260   H     0.30222   0.56970   0.04645   0.00000  Uiso   1.00
F261   F     0.18310   0.50612   0.09747   0.00000  Uiso   1.00
F262   F     0.17014   0.56333   0.41763   0.00000  Uiso   1.00
O263   O     0.26159   0.37209   0.31751   0.00000  Uiso   1.00
H264   H     0.27217   0.40019   0.32302   0.00000  Uiso   1.00
O265   O     0.07164   0.62787   0.18235   0.00000  Uiso   1.00
H266   H     0.06102   0.59979   0.17683   0.00000  Uiso   1.00
F267   F     0.26235   0.62260   0.31138   0.00000  Uiso   1.00
F268   F     0.07098   0.37738   0.18857   0.00000  Uiso   1.00
F269   F     0.19840   0.44751   0.30577   0.00000  Uiso   1.00
F270   F     0.13487   0.55260   0.19437   0.00000  Uiso   1.00
F271   F     0.10268   0.44745   0.30556   0.00000  Uiso   1.00
F272   F     0.23029   0.55325   0.19528   0.00000  Uiso   1.00
C273   C     0.66652   0.42081   0.25079   0.00000  Uiso   1.00
C274   C     0.33348   0.57919   0.24918   0.00000  Uiso   1.00
C275   C     0.52885   0.50260   0.05164   0.00000  Uiso   1.00
C276   C     0.48374   0.54437   0.45809   0.00000  Uiso   1.00
C277   C     0.57752   0.49344   0.02979   0.00000  Uiso   1.00
C278   C     0.43477   0.55276   0.47994   0.00000  Uiso   1.00
C279   C     0.63017   0.35378   0.28317   0.00000  Uiso   1.00
C280   C     0.36979   0.64619   0.21674   0.00000  Uiso   1.00
C281   C     0.63017   0.64434   0.28061   0.00000  Uiso   1.00
C282   C     0.36982   0.35564   0.21932   0.00000  Uiso   1.00
C283   C     0.66666   0.62380   0.24826   0.00000  Uiso   1.00
C284   C     0.33333   0.37618   0.25167   0.00000  Uiso   1.00
C285   C     0.51674   0.47381   0.27774   0.00000  Uiso   1.00
C286   C     0.48323   0.52623   0.22232   0.00000  Uiso   1.00
C287   C     0.46722   0.47384   0.27773   0.00000  Uiso   1.00
C288   C     0.53268   0.52633   0.22249   0.00000  Uiso   1.00
C289   C     0.63942   0.49938   0.33645   0.00000  Uiso   1.00
C290   C     0.36063   0.50161   0.16369   0.00000  Uiso   1.00
C291   C     0.62502   0.49876   0.38650   0.00000  Uiso   1.00
C292   C     0.37592   0.51028   0.11464   0.00000  Uiso   1.00
C293   C     0.64343   0.48752   0.45888   0.00000  Uiso   1.00
C294   C     0.36510   0.54655   0.04806   0.00000  Uiso   1.00
C295   C     0.65851   0.48985   0.41122   0.00000  Uiso   1.00
C296   C     0.34675   0.53313   0.09332   0.00000  Uiso   1.00
C297   C     0.57690   0.50696   0.40960   0.00000  Uiso   1.00
C298   C     0.42332   0.50082   0.09079   0.00000  Uiso   1.00
C299   C     0.56160   0.50933   0.45710   0.00000  Uiso   1.00
C300   C     0.44479   0.51790   0.04780   0.00000  Uiso   1.00
C301   C     0.59439   0.49662   0.48215   0.00000  Uiso   1.00
C302   C     0.41461   0.53903   0.02494   0.00000  Uiso   1.00
C303   C     0.51342   0.52165   0.47997   0.00000  Uiso   1.00
C304   C     0.49535   0.51319   0.02678   0.00000  Uiso   1.00
Cu305  Cu    0.38022   0.50001   0.25000   0.00000  Uiso   1.00
Cu306  Cu    0.61978   0.49999   0.25000   0.00000  Uiso   1.00
H307   H     0.44297   0.47962   0.10665   0.00000  Uiso   1.00
H308   H     0.55108   0.50996   0.38987   0.00000  Uiso   1.00
N309   N     0.45069   0.50001   0.24999   0.00000  Uiso   1.00
N310   N     0.54931   0.49999   0.25001   0.00000  Uiso   1.00
O311   O     0.37291   0.43989   0.25000   0.00000  Uiso   1.00
O312   O     0.62709   0.56011   0.25000   0.00000  Uiso   1.00
O313   O     0.62706   0.43988   0.25000   0.00000  Uiso   1.00
O314   O     0.37294   0.56012   0.24999   0.00000  Uiso   1.00
O315   O     0.35186   0.50001   0.31491   0.00000  Uiso   1.00
O316   O     0.64814   0.49999   0.18508   0.00000  Uiso   1.00
O317   O     0.60600   0.50000   0.31492   0.00000  Uiso   1.00
O318   O     0.39400   0.50000   0.18508   0.00000  Uiso   1.00
O319   O     0.60888   0.48076   0.05457   0.00000  Uiso   1.00
H320   H     0.59091   0.47603   0.08665   0.00000  Uiso   1.00
O321   O     0.40623   0.57456   0.45780   0.00000  Uiso   1.00
H322   H     0.42380   0.57876   0.42553   0.00000  Uiso   1.00
F323   F     0.63429   0.54353   0.11685   0.00000  Uiso   1.00
F324   F     0.37215   0.48167   0.38907   0.00000  Uiso   1.00
O325   O     0.34261   0.47648   0.48311   0.00000  Uiso   1.00
H326   H     0.37523   0.47173   0.46236   0.00000  Uiso   1.00
O327   O     0.33573   0.56797   0.02650   0.00000  Uiso   1.00
H328   H     0.63556   0.56970   0.04645   0.00000  Uiso   1.00
F329   F     0.51643   0.50612   0.09747   0.00000  Uiso   1.00
F330   F     0.50348   0.56333   0.41763   0.00000  Uiso   1.00
O331   O     0.59492   0.37209   0.31751   0.00000  Uiso   1.00
H332   H     0.60550   0.40019   0.32302   0.00000  Uiso   1.00
O333   O     0.40497   0.62787   0.18235   0.00000  Uiso   1.00
H334   H     0.39435   0.59979   0.17683   0.00000  Uiso   1.00
F335   F     0.59568   0.62260   0.31138   0.00000  Uiso   1.00
F336   F     0.40431   0.37738   0.18857   0.00000  Uiso   1.00
F337   F     0.53174   0.44751   0.30577   0.00000  Uiso   1.00
F338   F     0.46821   0.55260   0.19437   0.00000  Uiso   1.00
F339   F     0.43601   0.44745   0.30556   0.00000  Uiso   1.00
F340   F     0.56363   0.55325   0.19528   0.00000  Uiso   1.00
C341   C     0.99985   0.42081   0.25079   0.00000  Uiso   1.00
C342   C     0.66682   0.57919   0.24918   0.00000  Uiso   1.00
C343   C     0.86218   0.50260   0.05164   0.00000  Uiso   1.00
C344   C     0.81707   0.54437   0.45809   0.00000  Uiso   1.00
C345   C     0.91085   0.49344   0.02979   0.00000  Uiso   1.00
C346   C     0.76811   0.55276   0.47994   0.00000  Uiso   1.00
C347   C     0.96350   0.35378   0.28317   0.00000  Uiso   1.00
C348   C     0.70313   0.64619   0.21674   0.00000  Uiso   1.00
C349   C     0.96350   0.64434   0.28061   0.00000  Uiso   1.00
C350   C     0.70315   0.35564   0.21932   0.00000  Uiso   1.00
C351   C     0.99999   0.62380   0.24826   0.00000  Uiso   1.00
C352   C     0.66667   0.37618   0.25167   0.00000  Uiso   1.00
C353   C     0.85007   0.47381   0.27774   0.00000  Uiso   1.00
C354   C     0.81657   0.52623   0.22232   0.00000  Uiso   1.00
C355   C     0.80055   0.47384   0.27773   0.00000  Uiso   1.00
C356   C     0.86601   0.52633   0.22249   0.00000  Uiso   1.00
C357   C     0.97276   0.49938   0.33645   0.00000  Uiso   1.00
C358   C     0.69397   0.50161   0.16369   0.00000  Uiso   1.00
C359   C     0.95835   0.49876   0.38650   0.00000  Uiso   1.00
C360   C     0.70926   0.51028   0.11464   0.00000  Uiso   1.00
C361   C     0.97676   0.48752   0.45888   0.00000  Uiso   1.00
C362   C     0.69843   0.54655   0.04806   0.00000  Uiso   1.00
C363   C     0.99184   0.48985   0.41122   0.00000  Uiso   1.00
C364   C     0.68008   0.53313   0.09332   0.00000  Uiso   1.00
C365   C     0.91023   0.50696   0.40960   0.00000  Uiso   1.00
C366   C     0.75665   0.50082   0.09079   0.00000  Uiso   1.00
C367   C     0.89493   0.50933   0.45710   0.00000  Uiso   1.00
C368   C     0.77813   0.51790   0.04780   0.00000  Uiso   1.00
C369   C     0.92773   0.49662   0.48215   0.00000  Uiso   1.00
C370   C     0.74794   0.53903   0.02494   0.00000  Uiso   1.00
C371   C     0.84675   0.52165   0.47997   0.00000  Uiso   1.00
C372   C     0.82868   0.51319   0.02678   0.00000  Uiso   1.00
Cu373  Cu    0.71355   0.50001   0.25000   0.00000  Uiso   1.00
Cu374  Cu    0.95311   0.49999   0.25000   0.00000  Uiso   1.00
H375   H     0.77630   0.47962   0.10665   0.00000  Uiso   1.00
H376   H     0.88441   0.50996   0.38987   0.00000  Uiso   1.00
N377   N     0.78403   0.50001   0.24999   0.00000  Uiso   1.00
N378   N     0.88264   0.49999   0.25001   0.00000  Uiso   1.00
O379   O     0.70625   0.43989   0.25000   0.00000  Uiso   1.00
O380   O     0.96042   0.56011   0.25000   0.00000  Uiso   1.00
O381   O     0.96039   0.43988   0.25000   0.00000  Uiso   1.00
O382   O     0.70628   0.56012   0.24999   0.00000  Uiso   1.00
O383   O     0.68519   0.50001   0.31491   0.00000  Uiso   1.00
O384   O     0.98148   0.49999   0.18508   0.00000  Uiso   1.00
O385   O     0.93933   0.50000   0.31492   0.00000  Uiso   1.00
O386   O     0.72733   0.50000   0.18508   0.00000  Uiso   1.00
O387   O     0.94221   0.48076   0.05457   0.00000  Uiso   1.00
H388   H     0.92424   0.47603   0.08665   0.00000  Uiso   1.00
O389   O     0.73956   0.57456   0.45780   0.00000  Uiso   1.00
H390   H     0.75714   0.57876   0.42553   0.00000  Uiso   1.00
F391   F     0.96762   0.54353   0.11685   0.00000  Uiso   1.00
F392   F     0.70548   0.48167   0.38907   0.00000  Uiso   1.00
O393   O     0.67594   0.47648   0.48311   0.00000  Uiso   1.00
H394   H     0.70856   0.47173   0.46236   0.00000  Uiso   1.00
O395   O     0.66906   0.56797   0.02650   0.00000  Uiso   1.00
H396   H     0.96889   0.56970   0.04645   0.00000  Uiso   1.00
F397   F     0.84977   0.50612   0.09747   0.00000  Uiso   1.00
F398   F     0.83681   0.56333   0.41763   0.00000  Uiso   1.00
O399   O     0.92826   0.37209   0.31751   0.00000  Uiso   1.00
H400   H     0.93883   0.40019   0.32302   0.00000  Uiso   1.00
O401   O     0.73831   0.62787   0.18235   0.00000  Uiso   1.00
H402   H     0.72768   0.59979   0.17683   0.00000  Uiso   1.00
F403   F     0.92902   0.62260   0.31138   0.00000  Uiso   1.00
F404   F     0.73765   0.37738   0.18857   0.00000  Uiso   1.00
F405   F     0.86507   0.44751   0.30577   0.00000  Uiso   1.00
F406   F     0.80154   0.55260   0.19437   0.00000  Uiso   1.00
F407   F     0.76934   0.44745   0.30556   0.00000  Uiso   1.00
F408   F     0.89696   0.55325   0.19528   0.00000  Uiso   1.00
C409   C     0.33319   0.75414   0.25079   0.00000  Uiso   1.00
C410   C     0.00015   0.91252   0.24918   0.00000  Uiso   1.00
C411   C     0.19551   0.83594   0.05164   0.00000  Uiso   1.00
C412   C     0.15041   0.87771   0.45809   0.00000  Uiso   1.00
C413   C     0.24418   0.82677   0.02979   0.00000  Uiso   1.00
C414   C     0.10144   0.88610   0.47994   0.00000  Uiso   1.00
C415   C     0.29684   0.68712   0.28317   0.00000  Uiso   1.00
C416   C     0.03646   0.97953   0.21674   0.00000  Uiso   1.00
C417   C     0.29684   0.97767   0.28061   0.00000  Uiso   1.00
C418   C     0.03648   0.68897   0.21932   0.00000  Uiso   1.00
C419   C     0.33333   0.95713   0.24826   0.00000  Uiso   1.00
C420   C     0.00000   0.70952   0.25167   0.00000  Uiso   1.00
C421   C     0.18340   0.80714   0.27774   0.00000  Uiso   1.00
C422   C     0.14990   0.85956   0.22232   0.00000  Uiso   1.00
C423   C     0.13389   0.80717   0.27773   0.00000  Uiso   1.00
C424   C     0.19935   0.85967   0.22249   0.00000  Uiso   1.00
C425   C     0.30609   0.83272   0.33645   0.00000  Uiso   1.00
C426   C     0.02730   0.83494   0.16369   0.00000  Uiso   1.00
C427   C     0.29168   0.83209   0.38650   0.00000  Uiso   1.00
C428   C     0.04259   0.84361   0.11464   0.00000  Uiso   1.00
C429   C     0.31009   0.82086   0.45888   0.00000  Uiso   1.00
C430   C     0.03176   0.87988   0.04806   0.00000  Uiso   1.00
C431   C     0.32518   0.82318   0.41122   0.00000  Uiso   1.00
C432   C     0.01341   0.86646   0.09332   0.00000  Uiso   1.00
C433   C     0.24357   0.84030   0.40960   0.00000  Uiso   1.00
C434   C     0.08998   0.83415   0.09079   0.00000  Uiso   1.00
C435   C     0.22827   0.84266   0.45710   0.00000  Uiso   1.00
C436   C     0.11146   0.85123   0.04780   0.00000  Uiso   1.00
C437   C     0.26106   0.82995   0.48215   0.00000  Uiso   1.00
C438   C     0.08128   0.87237   0.02494   0.00000  Uiso   1.00
C439   C     0.18008   0.85499   0.47997   0.00000  Uiso   1.00
C440   C     0.16201   0.84652   0.02678   0.00000  Uiso   1.00
Cu441  Cu    0.04689   0.83334   0.25000   0.00000  Uiso   1.00
Cu442  Cu    0.28645   0.83333   0.25000   0.00000  Uiso   1.00
H443   H     0.10963   0.81295   0.10665   0.00000  Uiso   1.00
H444   H     0.21775   0.84329   0.38987   0.00000  Uiso   1.00
N445   N     0.11736   0.83334   0.24999   0.00000  Uiso   1.00
N446   N     0.21597   0.83332   0.25001   0.00000  Uiso   1.00
O447   O     0.03958   0.77322   0.25000   0.00000  Uiso   1.00
O448   O     0.29375   0.89345   0.25000   0.00000  Uiso   1.00
O449   O     0.29372   0.77321   0.25000   0.00000  Uiso   1.00
O450   O     0.03961   0.89346   0.24999   0.00000  Uiso   1.00
O451   O     0.01852   0.83334   0.31491   0.00000  Uiso   1.00
O452   O     0.31481   0.83332   0.18508   0.00000  Uiso   1.00
O453   O     0.27267   0.83333   0.31492   0.00000  Uiso   1.00
O454   O     0.06067   0.83333   0.18508   0.00000  Uiso   1.00
O455   O     0.27554   0.81409   0.05457   0.00000  Uiso   1.00
H456   H     0.25758   0.80936   0.08665   0.00000  Uiso   1.00
O457   O     0.07289   0.90789   0.45780   0.00000  Uiso   1.00
H458   H     0.09047   0.91209   0.42553   0.00000  Uiso   1.00
F459   F     0.30095   0.87686   0.11685   0.00000  Uiso   1.00
F460   F     0.03882   0.81500   0.38907   0.00000  Uiso   1.00
O461   O     0.00928   0.80981   0.48311   0.00000  Uiso   1.00
H462   H     0.04190   0.80506   0.46236   0.00000  Uiso   1.00
O463   O     0.00240   0.90130   0.02650   0.00000  Uiso   1.00
H464   H     0.30222   0.90303   0.04645   0.00000  Uiso   1.00
F465   F     0.18310   0.83946   0.09747   0.00000  Uiso   1.00
F466   F     0.17014   0.89667   0.41763   0.00000  Uiso   1.00
O467   O     0.26159   0.70542   0.31751   0.00000  Uiso   1.00
H468   H     0.27217   0.73352   0.32302   0.00000  Uiso   1.00
O469   O     0.07164   0.96121   0.18235   0.00000  Uiso   1.00
H470   H     0.06102   0.93312   0.17683   0.00000  Uiso   1.00
F471   F     0.26235   0.95593   0.31138   0.00000  Uiso   1.00
F472   F     0.07098   0.71071   0.18857   0.00000  Uiso   1.00
F473   F     0.19840   0.78084   0.30577   0.00000  Uiso   1.00
F474   F     0.13487   0.88594   0.19437   0.00000  Uiso   1.00
F475   F     0.10268   0.78078   0.30556   0.00000  Uiso   1.00
F476   F     0.23029   0.88658   0.19528   0.00000  Uiso   1.00
C477   C     0.66652   0.75414   0.25079   0.00000  Uiso   1.00
C478   C     0.33348   0.91252   0.24918   0.00000  Uiso   1.00
C479   C     0.52885   0.83594   0.05164   0.00000  Uiso   1.00
C480   C     0.48374   0.87771   0.45809   0.00000  Uiso   1.00
C481   C     0.57752   0.82677   0.02979   0.00000  Uiso   1.00
C482   C     0.43477   0.88610   0.47994   0.00000  Uiso   1.00
C483   C     0.63017   0.68712   0.28317   0.00000  Uiso   1.00
C484   C     0.36979   0.97953   0.21674   0.00000  Uiso   1.00
C485   C     0.63017   0.97767   0.28061   0.00000  Uiso   1.00
C486   C     0.36982   0.68897   0.21932   0.00000  Uiso   1.00
C487   C     0.66666   0.95713   0.24826   0.00000  Uiso   1.00
C488   C     0.33333   0.70952   0.25167   0.00000  Uiso   1.00
C489   C     0.51674   0.80714   0.27774   0.00000  Uiso   1.00
C490   C     0.48323   0.85956   0.22232   0.00000  Uiso   1.00
C491   C     0.46722   0.80717   0.27773   0.00000  Uiso   1.00
C492   C     0.53268   0.85967   0.22249   0.00000  Uiso   1.00
C493   C     0.63942   0.83272   0.33645   0.00000  Uiso   1.00
C494   C     0.36063   0.83494   0.16369   0.00000  Uiso   1.00
C495   C     0.62502   0.83209   0.38650   0.00000  Uiso   1.00
C496   C     0.37592   0.84361   0.11464   0.00000  Uiso   1.00
C497   C     0.64343   0.82086   0.45888   0.00000  Uiso   1.00
C498   C     0.36510   0.87988   0.04806   0.00000  Uiso   1.00
C499   C     0.65851   0.82318   0.41122   0.00000  Uiso   1.00
C500   C     0.34675   0.86646   0.09332   0.00000  Uiso   1.00
C501   C     0.57690   0.84030   0.40960   0.00000  Uiso   1.00
C502   C     0.42332   0.83415   0.09079   0.00000  Uiso   1.00
C503   C     0.56160   0.84266   0.45710   0.00000  Uiso   1.00
C504   C     0.44479   0.85123   0.04780   0.00000  Uiso   1.00
C505   C     0.59439   0.82995   0.48215   0.00000  Uiso   1.00
C506   C     0.41461   0.87237   0.02494   0.00000  Uiso   1.00
C507   C     0.51342   0.85499   0.47997   0.00000  Uiso   1.00
C508   C     0.49535   0.84652   0.02678   0.00000  Uiso   1.00
Cu509  Cu    0.38022   0.83334   0.25000   0.00000  Uiso   1.00
Cu510  Cu    0.61978   0.83333   0.25000   0.00000  Uiso   1.00
H511   H     0.44297   0.81295   0.10665   0.00000  Uiso   1.00
H512   H     0.55108   0.84329   0.38987   0.00000  Uiso   1.00
N513   N     0.45069   0.83334   0.24999   0.00000  Uiso   1.00
N514   N     0.54931   0.83332   0.25001   0.00000  Uiso   1.00
O515   O     0.37291   0.77322   0.25000   0.00000  Uiso   1.00
O516   O     0.62709   0.89345   0.25000   0.00000  Uiso   1.00
O517   O     0.62706   0.77321   0.25000   0.00000  Uiso   1.00
O518   O     0.37294   0.89346   0.24999   0.00000  Uiso   1.00
O519   O     0.35186   0.83334   0.31491   0.00000  Uiso   1.00
O520   O     0.64814   0.83332   0.18508   0.00000  Uiso   1.00
O521   O     0.60600   0.83333   0.31492   0.00000  Uiso   1.00
O522   O     0.39400   0.83333   0.18508   0.00000  Uiso   1.00
O523   O     0.60888   0.81409   0.05457   0.00000  Uiso   1.00
H524   H     0.59091   0.80936   0.08665   0.00000  Uiso   1.00
O525   O     0.40623   0.90789   0.45780   0.00000  Uiso   1.00
H526   H     0.42380   0.91209   0.42553   0.00000  Uiso   1.00
F527   F     0.63429   0.87686   0.11685   0.00000  Uiso   1.00
F528   F     0.37215   0.81500   0.38907   0.00000  Uiso   1.00
O529   O     0.34261   0.80981   0.48311   0.00000  Uiso   1.00
H530   H     0.37523   0.80506   0.46236   0.00000  Uiso   1.00
O531   O     0.33573   0.90130   0.02650   0.00000  Uiso   1.00
H532   H     0.63556   0.90303   0.04645   0.00000  Uiso   1.00
F533   F     0.51643   0.83946   0.09747   0.00000  Uiso   1.00
F534   F     0.50348   0.89667   0.41763   0.00000  Uiso   1.00
O535   O     0.59492   0.70542   0.31751   0.00000  Uiso   1.00
H536   H     0.60550   0.73352   0.32302   0.00000  Uiso   1.00
O537   O     0.40497   0.96121   0.18235   0.00000  Uiso   1.00
H538   H     0.39435   0.93312   0.17683   0.00000  Uiso   1.00
F539   F     0.59568   0.95593   0.31138   0.00000  Uiso   1.00
F540   F     0.40431   0.71071   0.18857   0.00000  Uiso   1.00
F541   F     0.53174   0.78084   0.30577   0.00000  Uiso   1.00
F542   F     0.46821   0.88594   0.19437   0.00000  Uiso   1.00
F543   F     0.43601   0.78078   0.30556   0.00000  Uiso   1.00
F544   F     0.56363   0.88658   0.19528   0.00000  Uiso   1.00
C545   C     0.99985   0.75414   0.25079   0.00000  Uiso   1.00
C546   C     0.66682   0.91252   0.24918   0.00000  Uiso   1.00
C547   C     0.86218   0.83594   0.05164   0.00000  Uiso   1.00
C548   C     0.81707   0.87771   0.45809   0.00000  Uiso   1.00
C549   C     0.91085   0.82677   0.02979   0.00000  Uiso   1.00
C550   C     0.76811   0.88610   0.47994   0.00000  Uiso   1.00
C551   C     0.96350   0.68712   0.28317   0.00000  Uiso   1.00
C552   C     0.70313   0.97953   0.21674   0.00000  Uiso   1.00
C553   C     0.96350   0.97767   0.28061   0.00000  Uiso   1.00
C554   C     0.70315   0.68897   0.21932   0.00000  Uiso   1.00
C555   C     0.99999   0.95713   0.24826   0.00000  Uiso   1.00
C556   C     0.66667   0.70952   0.25167   0.00000  Uiso   1.00
C557   C     0.85007   0.80714   0.27774   0.00000  Uiso   1.00
C558   C     0.81657   0.85956   0.22232   0.00000  Uiso   1.00
C559   C     0.80055   0.80717   0.27773   0.00000  Uiso   1.00
C560   C     0.86601   0.85967   0.22249   0.00000  Uiso   1.00
C561   C     0.97276   0.83272   0.33645   0.00000  Uiso   1.00
C562   C     0.69397   0.83494   0.16369   0.00000  Uiso   1.00
C563   C     0.95835   0.83209   0.38650   0.00000  Uiso   1.00
C564   C     0.70926   0.84361   0.11464   0.00000  Uiso   1.00
C565   C     0.97676   0.82086   0.45888   0.00000  Uiso   1.00
C566   C     0.69843   0.87988   0.04806   0.00000  Uiso   1.00
C567   C     0.99184   0.82318   0.41122   0.00000  Uiso   1.00
C568   C     0.68008   0.86646   0.09332   0.00000  Uiso   1.00
C569   C     0.91023   0.84030   0.40960   0.00000  Uiso   1.00
C570   C     0.75665   0.83415   0.09079   0.00000  Uiso   1.00
C571   C     0.89493   0.84266   0.45710   0.00000  Uiso   1.00
C572   C     0.77813   0.85123   0.04780   0.00000  Uiso   1.00
C573   C     0.92773   0.82995   0.48215   0.00000  Uiso   1.00
C574   C     0.74794   0.87237   0.02494   0.00000  Uiso   1.00
C575   C     0.84675   0.85499   0.47997   0.00000  Uiso   1.00
C576   C     0.82868   0.84652   0.02678   0.00000  Uiso   1.00
Cu577  Cu    0.71355   0.83334   0.25000   0.00000  Uiso   1.00
Cu578  Cu    0.95311   0.83333   0.25000   0.00000  Uiso   1.00
H579   H     0.77630   0.81295   0.10665   0.00000  Uiso   1.00
H580   H     0.88441   0.84329   0.38987   0.00000  Uiso   1.00
N581   N     0.78403   0.83334   0.24999   0.00000  Uiso   1.00
N582   N     0.88264   0.83332   0.25001   0.00000  Uiso   1.00
O583   O     0.70625   0.77322   0.25000   0.00000  Uiso   1.00
O584   O     0.96042   0.89345   0.25000   0.00000  Uiso   1.00
O585   O     0.96039   0.77321   0.25000   0.00000  Uiso   1.00
O586   O     0.70628   0.89346   0.24999   0.00000  Uiso   1.00
O587   O     0.68519   0.83334   0.31491   0.00000  Uiso   1.00
O588   O     0.98148   0.83332   0.18508   0.00000  Uiso   1.00
O589   O     0.93933   0.83333   0.31492   0.00000  Uiso   1.00
O590   O     0.72733   0.83333   0.18508   0.00000  Uiso   1.00
O591   O     0.94221   0.81409   0.05457   0.00000  Uiso   1.00
H592   H     0.92424   0.80936   0.08665   0.00000  Uiso   1.00
O593   O     0.73956   0.90789   0.45780   0.00000  Uiso   1.00
H594   H     0.75714   0.91209   0.42553   0.00000  Uiso   1.00
F595   F     0.96762   0.87686   0.11685   0.00000  Uiso   1.00
F596   F     0.70548   0.81500   0.38907   0.00000  Uiso   1.00
O597   O     0.67594   0.80981   0.48311   0.00000  Uiso   1.00
H598   H     0.70856   0.80506   0.46236   0.00000  Uiso   1.00
O599   O     0.66906   0.90130   0.02650   0.00000  Uiso   1.00
H600   H     0.96889   0.90303   0.04645   0.00000  Uiso   1.00
F601   F     0.84977   0.83946   0.09747   0.00000  Uiso   1.00
F602   F     0.83681   0.89667   0.41763   0.00000  Uiso   1.00
O603   O     0.92826   0.70542   0.31751   0.00000  Uiso   1.00
H604   H     0.93883   0.73352   0.32302   0.00000  Uiso   1.00
O605   O     0.73831   0.96121   0.18235   0.00000  Uiso   1.00
H606   H     0.72768   0.93312   0.17683   0.00000  Uiso   1.00
F607   F     0.92902   0.95593   0.31138   0.00000  Uiso   1.00
F608   F     0.73765   0.71071   0.18857   0.00000  Uiso   1.00
F609   F     0.86507   0.78084   0.30577   0.00000  Uiso   1.00
F610   F     0.80154   0.88594   0.19437   0.00000  Uiso   1.00
F611   F     0.76934   0.78078   0.30556   0.00000  Uiso   1.00
F612   F     0.89696   0.88658   0.19528   0.00000  Uiso   1.00
C613   C     0.33319   0.08748   0.75079   0.00000  Uiso   1.00
C614   C     0.00015   0.24585   0.74918   0.00000  Uiso   1.00
C615   C     0.19551   0.16927   0.55164   0.00000  Uiso   1.00
C616   C     0.15041   0.21104   0.95809   0.00000  Uiso   1.00
C617   C     0.24418   0.16010   0.52979   0.00000  Uiso   1.00
C618   C     0.10144   0.21943   0.97994   0.00000  Uiso   1.00
C619   C     0.29684   0.02045   0.78317   0.00000  Uiso   1.00
C620   C     0.03646   0.31286   0.71674   0.00000  Uiso   1.00
C621   C     0.29684   0.31100   0.78061   0.00000  Uiso   1.00
C622   C     0.03648   0.02231   0.71932   0.00000  Uiso   1.00
C623   C     0.33333   0.29047   0.74826   0.00000  Uiso   1.00
C624   C     0.00000   0.04285   0.75167   0.00000  Uiso   1.00
C625   C     0.18340   0.14048   0.77774   0.00000  Uiso   1.00
C626   C     0.14990   0.19290   0.72232   0.00000  Uiso   1.00
C627   C     0.13389   0.14050   0.77773   0.00000  Uiso   1.00
C628   C     0.19935   0.19300   0.72249   0.00000  Uiso   1.00
C629   C     0.30609   0.16605   0.83645   0.00000  Uiso   1.00
C630   C     0.02730   0.16828   0.66369   0.00000  Uiso   1.00
C631   C     0.29168   0.16542   0.88650   0.00000  Uiso   1.00
C632   C     0.04259   0.17695   0.61464   0.00000  Uiso   1.00
C633   C     0.31009   0.15419   0.95888   0.00000  Uiso   1.00
C634   C     0.03176   0.21321   0.54806   0.00000  Uiso   1.00
C635   C     0.32518   0.15651   0.91122   0.00000  Uiso   1.00
C636   C     0.01341   0.19979   0.59332   0.00000  Uiso   1.00
C637   C     0.24357   0.17363   0.90960   0.00000  Uiso   1.00
C638   C     0.08998   0.16749   0.59079   0.00000  Uiso   1.00
C639   C     0.22827   0.17599   0.95710   0.00000  Uiso   1.00
C640   C     0.11146   0.18457   0.54780   0.00000  Uiso   1.00
C641   C     0.26106   0.16328   0.98215   0.00000  Uiso   1.00
C642   C     0.08128   0.20570   0.52494   0.00000  Uiso   1.00
C643   C     0.18008   0.18832   0.97997   0.00000  Uiso   1.00
C644   C     0.16201   0.17986   0.52678   0.00000  Uiso   1.00
Cu645  Cu    0.04689   0.16667   0.75000   0.00000  Uiso   1.00
Cu646  Cu    0.28645   0.16666   0.75000   0.00000  Uiso   1.00
H647   H     0.10963   0.14629   0.60665   0.00000  Uiso   1.00
H648   H     0.21775   0.17663   0.88987   0.00000  Uiso   1.00
N649   N     0.11736   0.16668   0.74999   0.00000  Uiso   1.00
N650   N     0.21597   0.16666   0.75001   0.00000  Uiso   1.00
O651   O     0.03958   0.10655   0.75000   0.00000  Uiso   1.00
O652   O     0.29375   0.22678   0.75000   0.00000  Uiso   1.00
O653   O     0.29372   0.10654   0.75000   0.00000  Uiso   1.00
O654   O     0.03961   0.22679   0.74999   0.00000  Uiso   1.00
O655   O     0.01852   0.16668   0.81491   0.00000  Uiso   1.00
O656   O     0.31481   0.16666   0.68508   0.00000  Uiso   1.00
O657   O     0.27267   0.16667   0.81492   0.00000  Uiso   1.00
O658   O     0.06067   0.16667   0.68508   0.00000  Uiso   1.00
O659   O     0.27554   0.14743   0.55457   0.00000  Uiso   1.00
H660   H     0.25758   0.14269   0.58665   0.00000  Uiso   1.00
O661   O     0.07289   0.24122   0.95780   0.00000  Uiso   1.00
H662   H     0.09047   0.24543   0.92553   0.00000  Uiso   1.00
F663   F     0.30095   0.21020   0.61685   0.00000  Uiso   1.00
F664   F     0.03882   0.14833   0.88907   0.00000  Uiso   1.00
O665   O     0.00928   0.14314   0.98311   0.00000  Uiso   1.00
H666   H     0.04190   0.13840   0.96236   0.00000  Uiso   1.00
O667   O     0.00240   0.23463   0.52650   0.00000  Uiso   1.00
H668   H     0.30222   0.23636   0.54645   0.00000  Uiso   1.00
F669   F     0.18310   0.17279   0.59747   0.00000  Uiso   1.00
F670   F     0.17014   0.23000   0.91763   0.00000  Uiso   1.00
O671   O     0.26159   0.03876   0.81751   0.00000  Uiso   1.00
H672   H     0.27217   0.06686   0.82302   0.00000  Uiso   1.00
O673   O     0.07164   0.29454   0.68235   0.00000  Uiso   1.00
H674   H     0.06102   0.26645   0.67683   0.00000  Uiso   1.00
F675   F     0.26235   0.28926   0.81138   0.00000  Uiso   1.00
F676   F     0.07098   0.04405   0.68857   0.00000  Uiso   1.00
F677   F     0.19840   0.11417   0.80577   0.00000  Uiso   1.00
F678   F     0.13487   0.21927   0.69437   0.00000  Uiso   1.00
F679   F     0.10268   0.11411   0.80556   0.00000  Uiso   1.00
F680   F     0.23029   0.21991   0.69528   0.00000  Uiso   1.00
C681   C     0.66652   0.08748   0.75079   0.00000  Uiso   1.00
C682   C     0.33348   0.24585   0.74918   0.00000  Uiso   1.00
C683   C     0.52885   0.16927   0.55164   0.00000  Uiso   1.00
C684   C     0.48374   0.21104   0.95809   0.00000  Uiso   1.00
C685   C     0.57752   0.16010   0.52979   0.00000  Uiso   1.00
C686   C     0.43477   0.21943   0.97994   0.00000  Uiso   1.00
C687   C     0.63017   0.02045   0.78317   0.00000  Uiso   1.00
C688   C     0.36979   0.31286   0.71674   0.00000  Uiso   1.00
C689   C     0.63017   0.31100   0.78061   0.00000  Uiso   1.00
C690   C     0.36982   0.02231   0.71932   0.00000  Uiso   1.00
C691   C     0.66666   0.29047   0.74826   0.00000  Uiso   1.00
C692   C     0.33333   0.04285   0.75167   0.00000  Uiso   1.00
C693   C     0.51674   0.14048   0.77774   0.00000  Uiso   1.00
C694   C     0.48323   0.19290   0.72232   0.00000  Uiso   1.00
C695   C     0.46722   0.14050   0.77773   0.00000  Uiso   1.00
C696   C     0.53268   0.19300   0.72249   0.00000  Uiso   1.00
C697   C     0.63942   0.16605   0.83645   0.00000  Uiso   1.00
C698   C     0.36063   0.16828   0.66369   0.00000  Uiso   1.00
C699   C     0.62502   0.16542   0.88650   0.00000  Uiso   1.00
C700   C     0.37592   0.17695   0.61464   0.00000  Uiso   1.00
C701   C     0.64343   0.15419   0.95888   0.00000  Uiso   1.00
C702   C     0.36510   0.21321   0.54806   0.00000  Uiso   1.00
C703   C     0.65851   0.15651   0.91122   0.00000  Uiso   1.00
C704   C     0.34675   0.19979   0.59332   0.00000  Uiso   1.00
C705   C     0.57690   0.17363   0.90960   0.00000  Uiso   1.00
C706   C     0.42332   0.16749   0.59079   0.00000  Uiso   1.00
C707   C     0.56160   0.17599   0.95710   0.00000  Uiso   1.00
C708   C     0.44479   0.18457   0.54780   0.00000  Uiso   1.00
C709   C     0.59439   0.16328   0.98215   0.00000  Uiso   1.00
C710   C     0.41461   0.20570   0.52494   0.00000  Uiso   1.00
C711   C     0.51342   0.18832   0.97997   0.00000  Uiso   1.00
C712   C     0.49535   0.17986   0.52678   0.00000  Uiso   1.00
Cu713  Cu    0.38022   0.16667   0.75000   0.00000  Uiso   1.00
Cu714  Cu    0.61978   0.16666   0.75000   0.00000  Uiso   1.00
H715   H     0.44297   0.14629   0.60665   0.00000  Uiso   1.00
H716   H     0.55108   0.17663   0.88987   0.00000  Uiso   1.00
N717   N     0.45069   0.16668   0.74999   0.00000  Uiso   1.00
N718   N     0.54931   0.16666   0.75001   0.00000  Uiso   1.00
O719   O     0.37291   0.10655   0.75000   0.00000  Uiso   1.00
O720   O     0.62709   0.22678   0.75000   0.00000  Uiso   1.00
O721   O     0.62706   0.10654   0.75000   0.00000  Uiso   1.00
O722   O     0.37294   0.22679   0.74999   0.00000  Uiso   1.00
O723   O     0.35186   0.16668   0.81491   0.00000  Uiso   1.00
O724   O     0.64814   0.16666   0.68508   0.00000  Uiso   1.00
O725   O     0.60600   0.16667   0.81492   0.00000  Uiso   1.00
O726   O     0.39400   0.16667   0.68508   0.00000  Uiso   1.00
O727   O     0.60888   0.14743   0.55457   0.00000  Uiso   1.00
H728   H     0.59091   0.14269   0.58665   0.00000  Uiso   1.00
O729   O     0.40623   0.24122   0.95780   0.00000  Uiso   1.00
H730   H     0.42380   0.24543   0.92553   0.00000  Uiso   1.00
F731   F     0.63429   0.21020   0.61685   0.00000  Uiso   1.00
F732   F     0.37215   0.14833   0.88907   0.00000  Uiso   1.00
O733   O     0.34261   0.14314   0.98311   0.00000  Uiso   1.00
H734   H     0.37523   0.13840   0.96236   0.00000  Uiso   1.00
O735   O     0.33573   0.23463   0.52650   0.00000  Uiso   1.00
H736   H     0.63556   0.23636   0.54645   0.00000  Uiso   1.00
F737   F     0.51643   0.17279   0.59747   0.00000  Uiso   1.00
F738   F     0.50348   0.23000   0.91763   0.00000  Uiso   1.00
O739   O     0.59492   0.03876   0.81751   0.00000  Uiso   1.00
H740   H     0.60550   0.06686   0.82302   0.00000  Uiso   1.00
O741   O     0.40497   0.29454   0.68235   0.00000  Uiso   1.00
H742   H     0.39435   0.26645   0.67683   0.00000  Uiso   1.00
F743   F     0.59568   0.28926   0.81138   0.00000  Uiso   1.00
F744   F     0.40431   0.04405   0.68857   0.00000  Uiso   1.00
F745   F     0.53174   0.11417   0.80577   0.00000  Uiso   1.00
F746   F     0.46821   0.21927   0.69437   0.00000  Uiso   1.00
F747   F     0.43601   0.11411   0.80556   0.00000  Uiso   1.00
F748   F     0.56363   0.21991   0.69528   0.00000  Uiso   1.00
C749   C     0.99985   0.08748   0.75079   0.00000  Uiso   1.00
C750   C     0.66682   0.24585   0.74918   0.00000  Uiso   1.00
C751   C     0.86218   0.16927   0.55164   0.00000  Uiso   1.00
C752   C     0.81707   0.21104   0.95809   0.00000  Uiso   1.00
C753   C     0.91085   0.16010   0.52979   0.00000  Uiso   1.00
C754   C     0.76811   0.21943   0.97994   0.00000  Uiso   1.00
C755   C     0.96350   0.02045   0.78317   0.00000  Uiso   1.00
C756   C     0.70313   0.31286   0.71674   0.00000  Uiso   1.00
C757   C     0.96350   0.31100   0.78061   0.00000  Uiso   1.00
C758   C     0.70315   0.02231   0.71932   0.00000  Uiso   1.00
C759   C     0.99999   0.29047   0.74826   0.00000  Uiso   1.00
C760   C     0.66667   0.04285   0.75167   0.00000  Uiso   1.00
C761   C     0.85007   0.14048   0.77774   0.00000  Uiso   1.00
C762   C     0.81657   0.19290   0.72232   0.00000  Uiso   1.00
C763   C     0.80055   0.14050   0.77773   0.00000  Uiso   1.00
C764   C     0.86601   0.19300   0.72249   0.00000  Uiso   1.00
C765   C     0.97276   0.16605   0.83645   0.00000  Uiso   1.00
C766   C     0.69397   0.16828   0.66369   0.00000  Uiso   1.00
C767   C     0.95835   0.16542   0.88650   0.00000  Uiso   1.00
C768   C     0.70926   0.17695   0.61464   0.00000  Uiso   1.00
C769   C     0.97676   0.15419   0.95888   0.00000  Uiso   1.00
C770   C     0.69843   0.21321   0.54806   0.00000  Uiso   1.00
C771   C     0.99184   0.15651   0.91122   0.00000  Uiso   1.00
C772   C     0.68008   0.19979   0.59332   0.00000  Uiso   1.00
C773   C     0.91023   0.17363   0.90960   0.00000  Uiso   1.00
C774   C     0.75665   0.16749   0.59079   0.00000  Uiso   1.00
C775   C     0.89493   0.17599   0.95710   0.00000  Uiso   1.00
C776   C     0.77813   0.18457   0.54780   0.00000  Uiso   1.00
C777   C     0.92773   0.16328   0.98215   0.00000  Uiso   1.00
C778   C     0.74794   0.20570   0.52494   0.00000  Uiso   1.00
C779   C     0.84675   0.18832   0.97997   0.00000  Uiso   1.00
C780   C     0.82868   0.17986   0.52678   0.00000  Uiso   1.00
Cu781  Cu    0.71355   0.16667   0.75000   0.00000  Uiso   1.00
Cu782  Cu    0.95311   0.16666   0.75000   0.00000  Uiso   1.00
H783   H     0.77630   0.14629   0.60665   0.00000  Uiso   1.00
H784   H     0.88441   0.17663   0.88987   0.00000  Uiso   1.00
N785   N     0.78403   0.16668   0.74999   0.00000  Uiso   1.00
N786   N     0.88264   0.16666   0.75001   0.00000  Uiso   1.00
O787   O     0.70625   0.10655   0.75000   0.00000  Uiso   1.00
O788   O     0.96042   0.22678   0.75000   0.00000  Uiso   1.00
O789   O     0.96039   0.10654   0.75000   0.00000  Uiso   1.00
O790   O     0.70628   0.22679   0.74999   0.00000  Uiso   1.00
O791   O     0.68519   0.16668   0.81491   0.00000  Uiso   1.00
O792   O     0.98148   0.16666   0.68508   0.00000  Uiso   1.00
O793   O     0.93933   0.16667   0.81492   0.00000  Uiso   1.00
O794   O     0.72733   0.16667   0.68508   0.00000  Uiso   1.00
O795   O     0.94221   0.14743   0.55457   0.00000  Uiso   1.00
H796   H     0.92424   0.14269   0.58665   0.00000  Uiso   1.00
O797   O     0.73956   0.24122   0.95780   0.00000  Uiso   1.00
H798   H     0.75714   0.24543   0.92553   0.00000  Uiso   1.00
F799   F     0.96762   0.21020   0.61685   0.00000  Uiso   1.00
F800   F     0.70548   0.14833   0.88907   0.00000  Uiso   1.00
O801   O     0.67594   0.14314   0.98311   0.00000  Uiso   1.00
H802   H     0.70856   0.13840   0.96236   0.00000  Uiso   1.00
O803   O     0.66906   0.23463   0.52650   0.00000  Uiso   1.00
H804   H     0.96889   0.23636   0.54645   0.00000  Uiso   1.00
F805   F     0.84977   0.17279   0.59747   0.00000  Uiso   1.00
F806   F     0.83681   0.23000   0.91763   0.00000  Uiso   1.00
O807   O     0.92826   0.03876   0.81751   0.00000  Uiso   1.00
H808   H     0.93883   0.06686   0.82302   0.00000  Uiso   1.00
O809   O     0.73831   0.29454   0.68235   0.00000  Uiso   1.00
H810   H     0.72768   0.26645   0.67683   0.00000  Uiso   1.00
F811   F     0.92902   0.28926   0.81138   0.00000  Uiso   1.00
F812   F     0.73765   0.04405   0.68857   0.00000  Uiso   1.00
F813   F     0.86507   0.11417   0.80577   0.00000  Uiso   1.00
F814   F     0.80154   0.21927   0.69437   0.00000  Uiso   1.00
F815   F     0.76934   0.11411   0.80556   0.00000  Uiso   1.00
F816   F     0.89696   0.21991   0.69528   0.00000  Uiso   1.00
C817   C     0.33319   0.42081   0.75079   0.00000  Uiso   1.00
C818   C     0.00015   0.57919   0.74918   0.00000  Uiso   1.00
C819   C     0.19551   0.50260   0.55164   0.00000  Uiso   1.00
C820   C     0.15041   0.54437   0.95809   0.00000  Uiso   1.00
C821   C     0.24418   0.49344   0.52979   0.00000  Uiso   1.00
C822   C     0.10144   0.55276   0.97994   0.00000  Uiso   1.00
C823   C     0.29684   0.35378   0.78317   0.00000  Uiso   1.00
C824   C     0.03646   0.64619   0.71674   0.00000  Uiso   1.00
C825   C     0.29684   0.64434   0.78061   0.00000  Uiso   1.00
C826   C     0.03648   0.35564   0.71932   0.00000  Uiso   1.00
C827   C     0.33333   0.62380   0.74826   0.00000  Uiso   1.00
C828   C     0.00000   0.37618   0.75167   0.00000  Uiso   1.00
C829   C     0.18340   0.47381   0.77774   0.00000  Uiso   1.00
C830   C     0.14990   0.52623   0.72232   0.00000  Uiso   1.00
C831   C     0.13389   0.47384   0.77773   0.00000  Uiso   1.00
C832   C     0.19935   0.52633   0.72249   0.00000  Uiso   1.00
C833   C     0.30609   0.49938   0.83645   0.00000  Uiso   1.00
C834   C     0.02730   0.50161   0.66369   0.00000  Uiso   1.00
C835   C     0.29168   0.49876   0.88650   0.00000  Uiso   1.00
C836   C     0.04259   0.51028   0.61464   0.00000  Uiso   1.00
C837   C     0.31009   0.48752   0.95888   0.00000  Uiso   1.00
C838   C     0.03176   0.54655   0.54806   0.00000  Uiso   1.00
C839   C     0.32518   0.48985   0.91122   0.00000  Uiso   1.00
C840   C     0.01341   0.53313   0.59332   0.00000  Uiso   1.00
C841   C     0.24357   0.50696   0.90960   0.00000  Uiso   1.00
C842   C     0.08998   0.50082   0.59079   0.00000  Uiso   1.00
C843   C     0.22827   0.50933   0.95710   0.00000  Uiso   1.00
C844   C     0.11146   0.51790   0.54780   0.00000  Uiso   1.00
C845   C     0.26106   0.49662   0.98215   0.00000  Uiso   1.00
C846   C     0.08128   0.53903   0.52494   0.00000  Uiso   1.00
C847   C     0.18008   0.52165   0.97997   0.00000  Uiso   1.00
C848   C     0.16201   0.51319   0.52678   0.00000  Uiso   1.00
Cu849  Cu    0.04689   0.50001   0.75000   0.00000  Uiso   1.00
Cu850  Cu    0.28645   0.49999   0.75000   0.00000  Uiso   1.00
H851   H     0.10963   0.47962   0.60665   0.00000  Uiso   1.00
H852   H     0.21775   0.50996   0.88987   0.00000  Uiso   1.00
N853   N     0.11736   0.50001   0.74999   0.00000  Uiso   1.00
N854   N     0.21597   0.49999   0.75001   0.00000  Uiso   1.00
O855   O     0.03958   0.43989   0.75000   0.00000  Uiso   1.00
O856   O     0.29375   0.56011   0.75000   0.00000  Uiso   1.00
O857   O     0.29372   0.43988   0.75000   0.00000  Uiso   1.00
O858   O     0.03961   0.56012   0.74999   0.00000  Uiso   1.00
O859   O     0.01852   0.50001   0.81491   0.00000  Uiso   1.00
O860   O     0.31481   0.49999   0.68508   0.00000  Uiso   1.00
O861   O     0.27267   0.50000   0.81492   0.00000  Uiso   1.00
O862   O     0.06067   0.50000   0.68508   0.00000  Uiso   1.00
O863   O     0.27554   0.48076   0.55457   0.00000  Uiso   1.00
H864   H     0.25758   0.47603   0.58665   0.00000  Uiso   1.00
O865   O     0.07289   0.57456   0.95780   0.00000  Uiso   1.00
H866   H     0.09047   0.57876   0.92553   0.00000  Uiso   1.00
F867   F     0.30095   0.54353   0.61685   0.00000  Uiso   1.00
F868   F     0.03882   0.48167   0.88907   0.00000  Uiso   1.00
O869   O     0.00928   0.47648   0.98311   0.00000  Uiso   1.00
H870   H     0.04190   0.47173   0.96236   0.00000  Uiso   1.00
O871   O     0.00240   0.56797   0.52650   0.00000  Uiso   1.00
H872   H     0.30222   0.56970   0.54645   0.00000  Uiso   1.00
F873   F     0.18310   0.50612   0.59747   0.00000  Uiso   1.00
F874   F     0.17014   0.56333   0.91763   0.00000  Uiso   1.00
O875   O     0.26159   0.37209   0.81751   0.00000  Uiso   1.00
H876   H     0.27217   0.40019   0.82302   0.00000  Uiso   1.00
O877   O     0.07164   0.62787   0.68235   0.00000  Uiso   1.00
H878   H     0.06102   0.59979   0.67683   0.00000  Uiso   1.00
F879   F     0.26235   0.62260   0.81138   0.00000  Uiso   1.00
F880   F     0.07098   0.37738   0.68857   0.00000  Uiso   1.00
F881   F     0.19840   0.44751   0.80577   0.00000  Uiso   1.00
F882   F     0.13487   0.55260   0.69437   0.00000  Uiso   1.00
F883   F     0.10268   0.44745   0.80556   0.00000  Uiso   1.00
F884   F     0.23029   0.55325   0.69528   0.00000  Uiso   1.00
C885   C     0.66652   0.42081   0.75079   0.00000  Uiso   1.00
C886   C     0.33348   0.57919   0.74918   0.00000  Uiso   1.00
C887   C     0.52885   0.50260   0.55164   0.00000  Uiso   1.00
C888   C     0.48374   0.54437   0.95809   0.00000  Uiso   1.00
C889   C     0.57752   0.49344   0.52979   0.00000  Uiso   1.00
C890   C     0.43477   0.55276   0.97994   0.00000  Uiso   1.00
C891   C     0.63017   0.35378   0.78317   0.00000  Uiso   1.00
C892   C     0.36979   0.64619   0.71674   0.00000  Uiso   1.00
C893   C     0.63017   0.64434   0.78061   0.00000  Uiso   1.00
C894   C     0.36982   0.35564   0.71932   0.00000  Uiso   1.00
C895   C     0.66666   0.62380   0.74826   0.00000  Uiso   1.00
C896   C     0.33333   0.37618   0.75167   0.00000  Uiso   1.00
C897   C     0.51674   0.47381   0.77774   0.00000  Uiso   1.00
C898   C     0.48323   0.52623   0.72232   0.00000  Uiso   1.00
C899   C     0.46722   0.47384   0.77773   0.00000  Uiso   1.00
C900   C     0.53268   0.52633   0.72249   0.00000  Uiso   1.00
C901   C     0.63942   0.49938   0.83645   0.00000  Uiso   1.00
C902   C     0.36063   0.50161   0.66369   0.00000  Uiso   1.00
C903   C     0.62502   0.49876   0.88650   0.00000  Uiso   1.00
C904   C     0.37592   0.51028   0.61464   0.00000  Uiso   1.00
C905   C     0.64343   0.48752   0.95888   0.00000  Uiso   1.00
C906   C     0.36510   0.54655   0.54806   0.00000  Uiso   1.00
C907   C     0.65851   0.48985   0.91122   0.00000  Uiso   1.00
C908   C     0.34675   0.53313   0.59332   0.00000  Uiso   1.00
C909   C     0.57690   0.50696   0.90960   0.00000  Uiso   1.00
C910   C     0.42332   0.50082   0.59079   0.00000  Uiso   1.00
C911   C     0.56160   0.50933   0.95710   0.00000  Uiso   1.00
C912   C     0.44479   0.51790   0.54780   0.00000  Uiso   1.00
C913   C     0.59439   0.49662   0.98215   0.00000  Uiso   1.00
C914   C     0.41461   0.53903   0.52494   0.00000  Uiso   1.00
C915   C     0.51342   0.52165   0.97997   0.00000  Uiso   1.00
C916   C     0.49535   0.51319   0.52678   0.00000  Uiso   1.00
Cu917  Cu    0.38022   0.50001   0.75000   0.00000  Uiso   1.00
Cu918  Cu    0.61978   0.49999   0.75000   0.00000  Uiso   1.00
H919   H     0.44297   0.47962   0.60665   0.00000  Uiso   1.00
H920   H     0.55108   0.50996   0.88987   0.00000  Uiso   1.00
N921   N     0.45069   0.50001   0.74999   0.00000  Uiso   1.00
N922   N     0.54931   0.49999   0.75001   0.00000  Uiso   1.00
O923   O     0.37291   0.43989   0.75000   0.00000  Uiso   1.00
O924   O     0.62709   0.56011   0.75000   0.00000  Uiso   1.00
O925   O     0.62706   0.43988   0.75000   0.00000  Uiso   1.00
O926   O     0.37294   0.56012   0.74999   0.00000  Uiso   1.00
O927   O     0.35186   0.50001   0.81491   0.00000  Uiso   1.00
O928   O     0.64814   0.49999   0.68508   0.00000  Uiso   1.00
O929   O     0.60600   0.50000   0.81492   0.00000  Uiso   1.00
O930   O     0.39400   0.50000   0.68508   0.00000  Uiso   1.00
O931   O     0.60888   0.48076   0.55457   0.00000  Uiso   1.00
H932   H     0.59091   0.47603   0.58665   0.00000  Uiso   1.00
O933   O     0.40623   0.57456   0.95780   0.00000  Uiso   1.00
H934   H     0.42380   0.57876   0.92553   0.00000  Uiso   1.00
F935   F     0.63429   0.54353   0.61685   0.00000  Uiso   1.00
F936   F     0.37215   0.48167   0.88907   0.00000  Uiso   1.00
O937   O     0.34261   0.47648   0.98311   0.00000  Uiso   1.00
H938   H     0.37523   0.47173   0.96236   0.00000  Uiso   1.00
O939   O     0.33573   0.56797   0.52650   0.00000  Uiso   1.00
H940   H     0.63556   0.56970   0.54645   0.00000  Uiso   1.00
F941   F     0.51643   0.50612   0.59747   0.00000  Uiso   1.00
F942   F     0.50348   0.56333   0.91763   0.00000  Uiso   1.00
O943   O     0.59492   0.37209   0.81751   0.00000  Uiso   1.00
H944   H     0.60550   0.40019   0.82302   0.00000  Uiso   1.00
O945   O     0.40497   0.62787   0.68235   0.00000  Uiso   1.00
H946   H     0.39435   0.59979   0.67683   0.00000  Uiso   1.00
F947   F     0.59568   0.62260   0.81138   0.00000  Uiso   1.00
F948   F     0.40431   0.37738   0.68857   0.00000  Uiso   1.00
F949   F     0.53174   0.44751   0.80577   0.00000  Uiso   1.00
F950   F     0.46821   0.55260   0.69437   0.00000  Uiso   1.00
F951   F     0.43601   0.44745   0.80556   0.00000  Uiso   1.00
F952   F     0.56363   0.55325   0.69528   0.00000  Uiso   1.00
C953   C     0.99985   0.42081   0.75079   0.00000  Uiso   1.00
C954   C     0.66682   0.57919   0.74918   0.00000  Uiso   1.00
C955   C     0.86218   0.50260   0.55164   0.00000  Uiso   1.00
C956   C     0.81707   0.54437   0.95809   0.00000  Uiso   1.00
C957   C     0.91085   0.49344   0.52979   0.00000  Uiso   1.00
C958   C     0.76811   0.55276   0.97994   0.00000  Uiso   1.00
C959   C     0.96350   0.35378   0.78317   0.00000  Uiso   1.00
C960   C     0.70313   0.64619   0.71674   0.00000  Uiso   1.00
C961   C     0.96350   0.64434   0.78061   0.00000  Uiso   1.00
C962   C     0.70315   0.35564   0.71932   0.00000  Uiso   1.00
C963   C     0.99999   0.62380   0.74826   0.00000  Uiso   1.00
C964   C     0.66667   0.37618   0.75167   0.00000  Uiso   1.00
C965   C     0.85007   0.47381   0.77774   0.00000  Uiso   1.00
C966   C     0.81657   0.52623   0.72232   0.00000  Uiso   1.00
C967   C     0.80055   0.47384   0.77773   0.00000  Uiso   1.00
C968   C     0.86601   0.52633   0.72249   0.00000  Uiso   1.00
C969   C     0.97276   0.49938   0.83645   0.00000  Uiso   1.00
C970   C     0.69397   0.50161   0.66369   0.00000  Uiso   1.00
C971   C     0.95835   0.49876   0.88650   0.00000  Uiso   1.00
C972   C     0.70926   0.51028   0.61464   0.00000  Uiso   1.00
C973   C     0.97676   0.48752   0.95888   0.00000  Uiso   1.00
C974   C     0.69843   0.54655   0.54806   0.00000  Uiso   1.00
C975   C     0.99184   0.48985   0.91122   0.00000  Uiso   1.00
C976   C     0.68008   0.53313   0.59332   0.00000  Uiso   1.00
C977   C     0.91023   0.50696   0.90960   0.00000  Uiso   1.00
C978   C     0.75665   0.50082   0.59079   0.00000  Uiso   1.00
C979   C     0.89493   0.50933   0.95710   0.00000  Uiso   1.00
C980   C     0.77813   0.51790   0.54780   0.00000  Uiso   1.00
C981   C     0.92773   0.49662   0.98215   0.00000  Uiso   1.00
C982   C     0.74794   0.53903   0.52494   0.00000  Uiso   1.00
C983   C     0.84675   0.52165   0.97997   0.00000  Uiso   1.00
C984   C     0.82868   0.51319   0.52678   0.00000  Uiso   1.00
Cu985  Cu    0.71355   0.50001   0.75000   0.00000  Uiso   1.00
Cu986  Cu    0.95311   0.49999   0.75000   0.00000  Uiso   1.00
H987   H     0.77630   0.47962   0.60665   0.00000  Uiso   1.00
H988   H     0.88441   0.50996   0.88987   0.00000  Uiso   1.00
N989   N     0.78403   0.50001   0.74999   0.00000  Uiso   1.00
N990   N     0.88264   0.49999   0.75001   0.00000  Uiso   1.00
O991   O     0.70625   0.43989   0.75000   0.00000  Uiso   1.00
O992   O     0.96042   0.56011   0.75000   0.00000  Uiso   1.00
O993   O     0.96039   0.43988   0.75000   0.00000  Uiso   1.00
O994   O     0.70628   0.56012   0.74999   0.00000  Uiso   1.00
O995   O     0.68519   0.50001   0.81491   0.00000  Uiso   1.00
O996   O     0.98148   0.49999   0.68508   0.00000  Uiso   1.00
O997   O     0.93933   0.50000   0.81492   0.00000  Uiso   1.00
O998   O     0.72733   0.50000   0.68508   0.00000  Uiso   1.00
O999   O     0.94221   0.48076   0.55457   0.00000  Uiso   1.00
H1000  H     0.92424   0.47603   0.58665   0.00000  Uiso   1.00
O1001  O     0.73956   0.57456   0.95780   0.00000  Uiso   1.00
H1002  H     0.75714   0.57876   0.92553   0.00000  Uiso   1.00
F1003  F     0.96762   0.54353   0.61685   0.00000  Uiso   1.00
F1004  F     0.70548   0.48167   0.88907   0.00000  Uiso   1.00
O1005  O     0.67594   0.47648   0.98311   0.00000  Uiso   1.00
H1006  H     0.70856   0.47173   0.96236   0.00000  Uiso   1.00
O1007  O     0.66906   0.56797   0.52650   0.00000  Uiso   1.00
H1008  H     0.96889   0.56970   0.54645   0.00000  Uiso   1.00
F1009  F     0.84977   0.50612   0.59747   0.00000  Uiso   1.00
F1010  F     0.83681   0.56333   0.91763   0.00000  Uiso   1.00
O1011  O     0.92826   0.37209   0.81751   0.00000  Uiso   1.00
H1012  H     0.93883   0.40019   0.82302   0.00000  Uiso   1.00
O1013  O     0.73831   0.62787   0.68235   0.00000  Uiso   1.00
H1014  H     0.72768   0.59979   0.67683   0.00000  Uiso   1.00
F1015  F     0.92902   0.62260   0.81138   0.00000  Uiso   1.00
F1016  F     0.73765   0.37738   0.68857   0.00000  Uiso   1.00
F1017  F     0.86507   0.44751   0.80577   0.00000  Uiso   1.00
F1018  F     0.80154   0.55260   0.69437   0.00000  Uiso   1.00
F1019  F     0.76934   0.44745   0.80556   0.00000  Uiso   1.00
F1020  F     0.89696   0.55325   0.69528   0.00000  Uiso   1.00
C1021  C     0.33319   0.75414   0.75079   0.00000  Uiso   1.00
C1022  C     0.00015   0.91252   0.74918   0.00000  Uiso   1.00
C1023  C     0.19551   0.83594   0.55164   0.00000  Uiso   1.00
C1024  C     0.15041   0.87771   0.95809   0.00000  Uiso   1.00
C1025  C     0.24418   0.82677   0.52979   0.00000  Uiso   1.00
C1026  C     0.10144   0.88610   0.97994   0.00000  Uiso   1.00
C1027  C     0.29684   0.68712   0.78317   0.00000  Uiso   1.00
C1028  C     0.03646   0.97953   0.71674   0.00000  Uiso   1.00
C1029  C     0.29684   0.97767   0.78061   0.00000  Uiso   1.00
C1030  C     0.03648   0.68897   0.71932   0.00000  Uiso   1.00
C1031  C     0.33333   0.95713   0.74826   0.00000  Uiso   1.00
C1032  C     0.00000   0.70952   0.75167   0.00000  Uiso   1.00
C1033  C     0.18340   0.80714   0.77774   0.00000  Uiso   1.00
C1034  C     0.14990   0.85956   0.72232   0.00000  Uiso   1.00
C1035  C     0.13389   0.80717   0.77773   0.00000  Uiso   1.00
C1036  C     0.19935   0.85967   0.72249   0.00000  Uiso   1.00
C1037  C     0.30609   0.83272   0.83645   0.00000  Uiso   1.00
C1038  C     0.02730   0.83494   0.66369   0.00000  Uiso   1.00
C1039  C     0.29168   0.83209   0.88650   0.00000  Uiso   1.00
C1040  C     0.04259   0.84361   0.61464   0.00000  Uiso   1.00
C1041  C     0.31009   0.82086   0.95888   0.00000  Uiso   1.00
C1042  C     0.03176   0.87988   0.54806   0.00000  Uiso   1.00
C1043  C     0.32518   0.82318   0.91122   0.00000  Uiso   1.00
C1044  C     0.01341   0.86646   0.59332   0.00000  Uiso   1.00
C1045  C     0.24357   0.84030   0.90960   0.00000  Uiso   1.00
C1046  C     0.08998   0.83415   0.59079   0.00000  Uiso   1.00
C1047  C     0.22827   0.84266   0.95710   0.00000  Uiso   1.00
C1048  C     0.11146   0.85123   0.54780   0.00000  Uiso   1.00
C1049  C     0.26106   0.82995   0.98215   0.00000  Uiso   1.00
C1050  C     0.08128   0.87237   0.52494   0.00000  Uiso   1.00
C1051  C     0.18008   0.85499   0.97997   0.00000  Uiso   1.00
C1052  C     0.16201   0.84652   0.52678   0.00000  Uiso   1.00
Cu1053 Cu    0.04689   0.83334   0.75000   0.00000  Uiso   1.00
Cu1054 Cu    0.28645   0.83333   0.75000   0.00000  Uiso   1.00
H1055  H     0.10963   0.81295   0.60665   0.00000  Uiso   1.00
H1056  H     0.21775   0.84329   0.88987   0.00000  Uiso   1.00
N1057  N     0.11736   0.83334   0.74999   0.00000  Uiso   1.00
N1058  N     0.21597   0.83332   0.75001   0.00000  Uiso   1.00
O1059  O     0.03958   0.77322   0.75000   0.00000  Uiso   1.00
O1060  O     0.29375   0.89345   0.75000   0.00000  Uiso   1.00
O1061  O     0.29372   0.77321   0.75000   0.00000  Uiso   1.00
O1062  O     0.03961   0.89346   0.74999   0.00000  Uiso   1.00
O1063  O     0.01852   0.83334   0.81491   0.00000  Uiso   1.00
O1064  O     0.31481   0.83332   0.68508   0.00000  Uiso   1.00
O1065  O     0.27267   0.83333   0.81492   0.00000  Uiso   1.00
O1066  O     0.06067   0.83333   0.68508   0.00000  Uiso   1.00
O1067  O     0.27554   0.81409   0.55457   0.00000  Uiso   1.00
H1068  H     0.25758   0.80936   0.58665   0.00000  Uiso   1.00
O1069  O     0.07289   0.90789   0.95780   0.00000  Uiso   1.00
H1070  H     0.09047   0.91209   0.92553   0.00000  Uiso   1.00
F1071  F     0.30095   0.87686   0.61685   0.00000  Uiso   1.00
F1072  F     0.03882   0.81500   0.88907   0.00000  Uiso   1.00
O1073  O     0.00928   0.80981   0.98311   0.00000  Uiso   1.00
H1074  H     0.04190   0.80506   0.96236   0.00000  Uiso   1.00
O1075  O     0.00240   0.90130   0.52650   0.00000  Uiso   1.00
H1076  H     0.30222   0.90303   0.54645   0.00000  Uiso   1.00
F1077  F     0.18310   0.83946   0.59747   0.00000  Uiso   1.00
F1078  F     0.17014   0.89667   0.91763   0.00000  Uiso   1.00
O1079  O     0.26159   0.70542   0.81751   0.00000  Uiso   1.00
H1080  H     0.27217   0.73352   0.82302   0.00000  Uiso   1.00
O1081  O     0.07164   0.96121   0.68235   0.00000  Uiso   1.00
H1082  H     0.06102   0.93312   0.67683   0.00000  Uiso   1.00
F1083  F     0.26235   0.95593   0.81138   0.00000  Uiso   1.00
F1084  F     0.07098   0.71071   0.68857   0.00000  Uiso   1.00
F1085  F     0.19840   0.78084   0.80577   0.00000  Uiso   1.00
F1086  F     0.13487   0.88594   0.69437   0.00000  Uiso   1.00
F1087  F     0.10268   0.78078   0.80556   0.00000  Uiso   1.00
F1088  F     0.23029   0.88658   0.69528   0.00000  Uiso   1.00
C1089  C     0.66652   0.75414   0.75079   0.00000  Uiso   1.00
C1090  C     0.33348   0.91252   0.74918   0.00000  Uiso   1.00
C1091  C     0.52885   0.83594   0.55164   0.00000  Uiso   1.00
C1092  C     0.48374   0.87771   0.95809   0.00000  Uiso   1.00
C1093  C     0.57752   0.82677   0.52979   0.00000  Uiso   1.00
C1094  C     0.43477   0.88610   0.97994   0.00000  Uiso   1.00
C1095  C     0.63017   0.68712   0.78317   0.00000  Uiso   1.00
C1096  C     0.36979   0.97953   0.71674   0.00000  Uiso   1.00
C1097  C     0.63017   0.97767   0.78061   0.00000  Uiso   1.00
C1098  C     0.36982   0.68897   0.71932   0.00000  Uiso   1.00
C1099  C     0.66666   0.95713   0.74826   0.00000  Uiso   1.00
C1100  C     0.33333   0.70952   0.75167   0.00000  Uiso   1.00
C1101  C     0.51674   0.80714   0.77774   0.00000  Uiso   1.00
C1102  C     0.48323   0.85956   0.72232   0.00000  Uiso   1.00
C1103  C     0.46722   0.80717   0.77773   0.00000  Uiso   1.00
C1104  C     0.53268   0.85967   0.72249   0.00000  Uiso   1.00
C1105  C     0.63942   0.83272   0.83645   0.00000  Uiso   1.00
C1106  C     0.36063   0.83494   0.66369   0.00000  Uiso   1.00
C1107  C     0.62502   0.83209   0.88650   0.00000  Uiso   1.00
C1108  C     0.37592   0.84361   0.61464   0.00000  Uiso   1.00
C1109  C     0.64343   0.82086   0.95888   0.00000  Uiso   1.00
C1110  C     0.36510   0.87988   0.54806   0.00000  Uiso   1.00
C1111  C     0.65851   0.82318   0.91122   0.00000  Uiso   1.00
C1112  C     0.34675   0.86646   0.59332   0.00000  Uiso   1.00
C1113  C     0.57690   0.84030   0.90960   0.00000  Uiso   1.00
C1114  C     0.42332   0.83415   0.59079   0.00000  Uiso   1.00
C1115  C     0.56160   0.84266   0.95710   0.00000  Uiso   1.00
C1116  C     0.44479   0.85123   0.54780   0.00000  Uiso   1.00
C1117  C     0.59439   0.82995   0.98215   0.00000  Uiso   1.00
C1118  C     0.41461   0.87237   0.52494   0.00000  Uiso   1.00
C1119  C     0.51342   0.85499   0.97997   0.00000  Uiso   1.00
C1120  C     0.49535   0.84652   0.52678   0.00000  Uiso   1.00
Cu1121 Cu    0.38022   0.83334   0.75000   0.00000  Uiso   1.00
Cu1122 Cu    0.61978   0.83333   0.75000   0.00000  Uiso   1.00
H1123  H     0.44297   0.81295   0.60665   0.00000  Uiso   1.00
H1124  H     0.55108   0.84329   0.88987   0.00000  Uiso   1.00
N1125  N     0.45069   0.83334   0.74999   0.00000  Uiso   1.00
N1126  N     0.54931   0.83332   0.75001   0.00000  Uiso   1.00
O1127  O     0.37291   0.77322   0.75000   0.00000  Uiso   1.00
O1128  O     0.62709   0.89345   0.75000   0.00000  Uiso   1.00
O1129  O     0.62706   0.77321   0.75000   0.00000  Uiso   1.00
O1130  O     0.37294   0.89346   0.74999   0.00000  Uiso   1.00
O1131  O     0.35186   0.83334   0.81491   0.00000  Uiso   1.00
O1132  O     0.64814   0.83332   0.68508   0.00000  Uiso   1.00
O1133  O     0.60600   0.83333   0.81492   0.00000  Uiso   1.00
O1134  O     0.39400   0.83333   0.68508   0.00000  Uiso   1.00
O1135  O     0.60888   0.81409   0.55457   0.00000  Uiso   1.00
H1136  H     0.59091   0.80936   0.58665   0.00000  Uiso   1.00
O1137  O     0.40623   0.90789   0.95780   0.00000  Uiso   1.00
H1138  H     0.42380   0.91209   0.92553   0.00000  Uiso   1.00
F1139  F     0.63429   0.87686   0.61685   0.00000  Uiso   1.00
F1140  F     0.37215   0.81500   0.88907   0.00000  Uiso   1.00
O1141  O     0.34261   0.80981   0.98311   0.00000  Uiso   1.00
H1142  H     0.37523   0.80506   0.96236   0.00000  Uiso   1.00
O1143  O     0.33573   0.90130   0.52650   0.00000  Uiso   1.00
H1144  H     0.63556   0.90303   0.54645   0.00000  Uiso   1.00
F1145  F     0.51643   0.83946   0.59747   0.00000  Uiso   1.00
F1146  F     0.50348   0.89667   0.91763   0.00000  Uiso   1.00
O1147  O     0.59492   0.70542   0.81751   0.00000  Uiso   1.00
H1148  H     0.60550   0.73352   0.82302   0.00000  Uiso   1.00
O1149  O     0.40497   0.96121   0.68235   0.00000  Uiso   1.00
H1150  H     0.39435   0.93312   0.67683   0.00000  Uiso   1.00
F1151  F     0.59568   0.95593   0.81138   0.00000  Uiso   1.00
F1152  F     0.40431   0.71071   0.68857   0.00000  Uiso   1.00
F1153  F     0.53174   0.78084   0.80577   0.00000  Uiso   1.00
F1154  F     0.46821   0.88594   0.69437   0.00000  Uiso   1.00
F1155  F     0.43601   0.78078   0.80556   0.00000  Uiso   1.00
F1156  F     0.56363   0.88658   0.69528   0.00000  Uiso   1.00
C1157  C     0.99985   0.75414   0.75079   0.00000  Uiso   1.00
C1158  C     0.66682   0.91252   0.74918   0.00000  Uiso   1.00
C1159  C     0.86218   0.83594   0.55164   0.00000  Uiso   1.00
C1160  C     0.81707   0.87771   0.95809   0.00000  Uiso   1.00
C1161  C     0.91085   0.82677   0.52979   0.00000  Uiso   1.00
C1162  C     0.76811   0.88610   0.97994   0.00000  Uiso   1.00
C1163  C     0.96350   0.68712   0.78317   0.00000  Uiso   1.00
C1164  C     0.70313   0.97953   0.71674   0.00000  Uiso   1.00
C1165  C     0.96350   0.97767   0.78061   0.00000  Uiso   1.00
C1166  C     0.70315   0.68897   0.71932   0.00000  Uiso   1.00
C1167  C     0.99999   0.95713   0.74826   0.00000  Uiso   1.00
C1168  C     0.66667   0.70952   0.75167   0.00000  Uiso   1.00
C1169  C     0.85007   0.80714   0.77774   0.00000  Uiso   1.00
C1170  C     0.81657   0.85956   0.72232   0.00000  Uiso   1.00
C1171  C     0.80055   0.80717   0.77773   0.00000  Uiso   1.00
C1172  C     0.86601   0.85967   0.72249   0.00000  Uiso   1.00
C1173  C     0.97276   0.83272   0.83645   0.00000  Uiso   1.00
C1174  C     0.69397   0.83494   0.66369   0.00000  Uiso   1.00
C1175  C     0.95835   0.83209   0.88650   0.00000  Uiso   1.00
C1176  C     0.70926   0.84361   0.61464   0.00000  Uiso   1.00
C1177  C     0.97676   0.82086   0.95888   0.00000  Uiso   1.00
C1178  C     0.69843   0.87988   0.54806   0.00000  Uiso   1.00
C1179  C     0.99184   0.82318   0.91122   0.00000  Uiso   1.00
C1180  C     0.68008   0.86646   0.59332   0.00000  Uiso   1.00
C1181  C     0.91023   0.84030   0.90960   0.00000  Uiso   1.00
C1182  C     0.75665   0.83415   0.59079   0.00000  Uiso   1.00
C1183  C     0.89493   0.84266   0.95710   0.00000  Uiso   1.00
C1184  C     0.77813   0.85123   0.54780   0.00000  Uiso   1.00
C1185  C     0.92773   0.82995   0.98215   0.00000  Uiso   1.00
C1186  C     0.74794   0.87237   0.52494   0.00000  Uiso   1.00
C1187  C     0.84675   0.85499   0.97997   0.00000  Uiso   1.00
C1188  C     0.82868   0.84652   0.52678   0.00000  Uiso   1.00
Cu1189 Cu    0.71355   0.83334   0.75000   0.00000  Uiso   1.00
Cu1190 Cu    0.95311   0.83333   0.75000   0.00000  Uiso   1.00
H1191  H     0.77630   0.81295   0.60665   0.00000  Uiso   1.00
H1192  H     0.88441   0.84329   0.88987   0.00000  Uiso   1.00
N1193  N     0.78403   0.83334   0.74999   0.00000  Uiso   1.00
N1194  N     0.88264   0.83332   0.75001   0.00000  Uiso   1.00
O1195  O     0.70625   0.77322   0.75000   0.00000  Uiso   1.00
O1196  O     0.96042   0.89345   0.75000   0.00000  Uiso   1.00
O1197  O     0.96039   0.77321   0.75000   0.00000  Uiso   1.00
O1198  O     0.70628   0.89346   0.74999   0.00000  Uiso   1.00
O1199  O     0.68519   0.83334   0.81491   0.00000  Uiso   1.00
O1200  O     0.98148   0.83332   0.68508   0.00000  Uiso   1.00
O1201  O     0.93933   0.83333   0.81492   0.00000  Uiso   1.00
O1202  O     0.72733   0.83333   0.68508   0.00000  Uiso   1.00
O1203  O     0.94221   0.81409   0.55457   0.00000  Uiso   1.00
H1204  H     0.92424   0.80936   0.58665   0.00000  Uiso   1.00
O1205  O     0.73956   0.90789   0.95780   0.00000  Uiso   1.00
H1206  H     0.75714   0.91209   0.92553   0.00000  Uiso   1.00
F1207  F     0.96762   0.87686   0.61685   0.00000  Uiso   1.00
F1208  F     0.70548   0.81500   0.88907   0.00000  Uiso   1.00
O1209  O     0.67594   0.80981   0.98311   0.00000  Uiso   1.00
H1210  H     0.70856   0.80506   0.96236   0.00000  Uiso   1.00
O1211  O     0.66906   0.90130   0.52650   0.00000  Uiso   1.00
H1212  H     0.96889   0.90303   0.54645   0.00000  Uiso   1.00
F1213  F     0.84977   0.83946   0.59747   0.00000  Uiso   1.00
F1214  F     0.83681   0.89667   0.91763   0.00000  Uiso   1.00
O1215  O     0.92826   0.70542   0.81751   0.00000  Uiso   1.00
H1216  H     0.93883   0.73352   0.82302   0.00000  Uiso   1.00
O1217  O     0.73831   0.96121   0.68235   0.00000  Uiso   1.00
H1218  H     0.72768   0.93312   0.67683   0.00000  Uiso   1.00
F1219  F     0.92902   0.95593   0.81138   0.00000  Uiso   1.00
F1220  F     0.73765   0.71071   0.68857   0.00000  Uiso   1.00
F1221  F     0.86507   0.78084   0.80577   0.00000  Uiso   1.00
F1222  F     0.80154   0.88594   0.69437   0.00000  Uiso   1.00
F1223  F     0.76934   0.78078   0.80556   0.00000  Uiso   1.00
F1224  F     0.89696   0.88658   0.69528   0.00000  Uiso   1.00
loop_
_geom_bond_atom_site_label_1
_geom_bond_atom_site_label_2
_geom_bond_distance
_geom_bond_site_symmetry_2
_ccdc_geom_bond_type
C1     O41     1.292   .     A
C1     C80     1.444   .     S
C1     O107    1.290   .     S
C2     O42     1.292   .     A
C2     C147    1.444   1_455 S
C2     O176    1.290   1_455 S
C3     C5      1.405   .     A
C3     C32     1.417   .     A
C3     F57     1.359   .     S
C4     C31     1.418   .     A
C4     C6      1.407   .     A
C4     F58     1.359   .     S
C5     O47     1.384   .     S
C5     C641    1.412   1_554 S
C6     O49     1.384   .     S
C6     C642    1.413   .     S
C7     O59     1.382   .     S
C7     C417    1.387   1_545 S
C7     C80     1.413   .     S
C8     O61     1.382   .     S
C8     C214    1.387   .     S
C8     C147    1.413   1_455 S
C9     C11     1.401   .     A
C9     F63     1.360   .     S
C9     C211    1.387   .     S
C10    F64     1.360   .     S
C10    C12     1.401   .     A
C10    C416    1.387   1_545 S
C11    C76     1.413   .     S
C11    C70     1.444   .     S
C12    C137    1.444   1_455 S
C12    C143    1.413   1_455 S
C13    F65     1.355   .     S
C13    N38     1.369   .     A
C13    C15     1.418   .     A
C14    F66     1.355   .     S
C14    N37     1.369   .     A
C14    C16     1.417   .     A
C15    F67     1.355   .     S
C15    N37     1.368   .     A
C16    F68     1.354   .     S
C16    N38     1.368   .     A
C17    C19     1.478   .     S
C17    O45     1.301   .     A
C17    O111    1.298   .     S
C18    O46     1.298   .     A
C18    C20     1.474   .     S
C18    O180    1.299   1_455 S
C19    C23     1.402   .     A
C19    C25     1.394   .     A
C20    C26     1.391   .     A
C20    C24     1.399   .     A
C21    C23     1.409   .     A
C21    C29     1.423   .     A
C21    O121    1.384   .     S
C22    O55     1.384   .     S
C22    C24     1.410   .     A
C22    C30     1.424   .     A
C23    F120    1.359   .     S
C24    F187    1.357   1_455 S
C25    C27     1.406   .     A
C25    H36     1.078   .     S
C26    C28     1.405   .     A
C26    H35     1.079   .     S
C27    C29     1.423   .     A
C27    C31     1.426   .     A
C28    C32     1.425   .     A
C28    C30     1.423   .     A
C29    C617    1.412   .     S
C30    C618    1.413   1_554 S
C31    C644    1.413   .     S
C32    C643    1.413   1_554 S
Cu33   O46     1.922   .     S
Cu33   O42     1.956   .     S
Cu33   O43     1.936   .     S
Cu33   O39     1.957   .     S
Cu33   N37     2.017   .     S
Cu33   Cu170   2.685   1_455 S
Cu34   O41     1.956   .     S
Cu34   O45     1.922   .     S
Cu34   O40     1.957   .     S
Cu34   O44     1.936   .     S
Cu34   N38     2.017   .     S
Cu34   Cu101   2.685   .     S
O39    C137    1.290   1_455 S
O40    C70     1.290   .     S
O43    C153    1.298   1_455 S
O44    C86     1.299   .     S
O47    H48     0.990   .     S
O49    H50     0.990   .     S
F51    C92     1.357   .     S
F52    C159    1.359   1_455 S
O53    H54     0.990   .     S
O53    C157    1.384   1_455 S
O55    H192    0.990   1_455 S
H56    O123    0.990   .     S
O59    H60     0.989   .     S
O61    H62     0.989   .     S
C69    O109    1.292   .     A
C69    C148    1.444   .     S
C69    O175    1.290   .     S
C70    O110    1.292   .     A
C71    C73     1.405   .     A
C71    C100    1.417   .     A
C71    F125    1.359   .     S
C72    C99     1.418   .     A
C72    C74     1.407   .     A
C72    F126    1.359   .     S
C73    O115    1.384   .     S
C73    C709    1.412   1_554 S
C74    O117    1.384   .     S
C74    C710    1.413   .     S
C75    O127    1.382   .     S
C75    C485    1.387   1_545 S
C75    C148    1.413   .     S
C76    O129    1.382   .     S
C76    C282    1.387   .     S
C77    C79     1.401   .     A
C77    F131    1.360   .     S
C77    C279    1.387   .     S
C78    F132    1.360   .     S
C78    C80     1.401   .     A
C78    C484    1.387   1_545 S
C79    C144    1.413   .     S
C79    C138    1.444   .     S
C81    F133    1.355   .     S
C81    N106    1.369   .     A
C81    C83     1.418   .     A
C82    F134    1.355   .     S
C82    N105    1.369   .     A
C82    C84     1.417   .     A
C83    F135    1.355   .     S
C83    N105    1.368   .     A
C84    F136    1.354   .     S
C84    N106    1.368   .     A
C85    C87     1.478   .     S
C85    O113    1.301   .     A
C85    O179    1.298   .     S
C86    O114    1.298   .     A
C86    C88     1.474   .     S
C87    C91     1.402   .     A
C87    C93     1.394   .     A
C88    C94     1.391   .     A
C88    C92     1.399   .     A
C89    C91     1.409   .     A
C89    C97     1.423   .     A
C89    O189    1.384   .     S
C90    O123    1.384   .     S
C90    C92     1.410   .     A
C90    C98     1.424   .     A
C91    F188    1.359   .     S
C93    C95     1.406   .     A
C93    H104    1.078   .     S
C94    C96     1.405   .     A
C94    H103    1.079   .     S
C95    C97     1.423   .     A
C95    C99     1.426   .     A
C96    C100    1.425   .     A
C96    C98     1.423   .     A
C97    C685    1.412   .     S
C98    C686    1.413   1_554 S
C99    C712    1.413   .     S
C100   C711    1.413   1_554 S
Cu101  O114    1.922   .     S
Cu101  O110    1.956   .     S
Cu101  O111    1.936   .     S
Cu101  O107    1.957   .     S
Cu101  N105    2.017   .     S
Cu102  O109    1.956   .     S
Cu102  O113    1.922   .     S
Cu102  O108    1.957   .     S
Cu102  O112    1.936   .     S
Cu102  N106    2.017   .     S
Cu102  Cu169   2.685   .     S
O108   C138    1.290   .     S
O112   C154    1.299   .     S
O115   H116    0.990   .     S
O117   H118    0.990   .     S
F119   C160    1.357   .     S
O121   H122    0.990   .     S
H124   O191    0.990   .     S
O127   H128    0.989   .     S
O129   H130    0.989   .     S
C137   O177    1.292   .     A
C137   C12     1.444   1_655 S
C137   O39     1.290   1_655 S
C138   O178    1.292   .     A
C139   C141    1.405   .     A
C139   C168    1.417   .     A
C139   F193    1.359   .     S
C140   C167    1.418   .     A
C140   C142    1.407   .     A
C140   F194    1.359   .     S
C141   O183    1.384   .     S
C141   C777    1.412   1_554 S
C142   O185    1.384   .     S
C142   C778    1.413   .     S
C143   O195    1.382   .     S
C143   C553    1.387   1_545 S
C143   C12     1.413   1_655 S
C144   O197    1.382   .     S
C144   C350    1.387   .     S
C145   C147    1.401   .     A
C145   F199    1.360   .     S
C145   C347    1.387   .     S
C146   F200    1.360   .     S
C146   C148    1.401   .     A
C146   C552    1.387   1_545 S
C147   C8      1.413   1_655 S
C147   C2      1.444   1_655 S
C149   F201    1.355   .     S
C149   N174    1.369   .     A
C149   C151    1.418   .     A
C150   F202    1.355   .     S
C150   N173    1.369   .     A
C150   C152    1.417   .     A
C151   F203    1.355   .     S
C151   N173    1.368   .     A
C152   F204    1.354   .     S
C152   N174    1.368   .     A
C153   C155    1.478   .     S
C153   O181    1.301   .     A
C153   O43     1.298   1_655 S
C154   O182    1.298   .     A
C154   C156    1.474   .     S
C155   C159    1.402   .     A
C155   C161    1.394   .     A
C156   C162    1.391   .     A
C156   C160    1.399   .     A
C157   C159    1.409   .     A
C157   C165    1.423   .     A
C157   O53     1.384   1_655 S
C158   O191    1.384   .     S
C158   C160    1.410   .     A
C158   C166    1.424   .     A
C159   F52     1.359   1_655 S
C161   C163    1.406   .     A
C161   H172    1.078   .     S
C162   C164    1.405   .     A
C162   H171    1.079   .     S
C163   C165    1.423   .     A
C163   C167    1.426   .     A
C164   C168    1.425   .     A
C164   C166    1.423   .     A
C165   C753    1.412   .     S
C166   C754    1.413   1_554 S
C167   C780    1.413   .     S
C168   C779    1.413   1_554 S
Cu169  O182    1.922   .     S
Cu169  O178    1.956   .     S
Cu169  O179    1.936   .     S
Cu169  O175    1.957   .     S
Cu169  N173    2.017   .     S
Cu170  O177    1.956   .     S
Cu170  O181    1.922   .     S
Cu170  O176    1.957   .     S
Cu170  O180    1.936   .     S
Cu170  N174    2.017   .     S
Cu170  Cu33    2.685   1_655 S
O176   C2      1.290   1_655 S
O180   C18     1.299   1_655 S
O183   H184    0.990   .     S
O185   H186    0.990   .     S
F187   C24     1.357   1_655 S
O189   H190    0.990   .     S
H192   O55     0.990   1_655 S
O195   H196    0.989   .     S
O197   H198    0.989   .     S
C205   O245    1.292   .     A
C205   C284    1.444   .     S
C205   O311    1.290   .     S
C206   O246    1.292   .     A
C206   C351    1.444   1_455 S
C206   O380    1.290   1_455 S
C207   C209    1.405   .     A
C207   C236    1.417   .     A
C207   F261    1.359   .     S
C208   C235    1.418   .     A
C208   C210    1.407   .     A
C208   F262    1.359   .     S
C209   O251    1.384   .     S
C209   C845    1.412   1_554 S
C210   O253    1.384   .     S
C210   C846    1.413   .     S
C211   O263    1.382   .     S
C211   C284    1.413   .     S
C212   O265    1.382   .     S
C212   C418    1.387   .     S
C212   C351    1.413   1_455 S
C213   C215    1.401   .     A
C213   F267    1.360   .     S
C213   C415    1.387   .     S
C214   F268    1.360   .     S
C214   C216    1.401   .     A
C215   C280    1.413   .     S
C215   C274    1.444   .     S
C216   C341    1.444   1_455 S
C216   C347    1.413   1_455 S
C217   F269    1.355   .     S
C217   N242    1.369   .     A
C217   C219    1.418   .     A
C218   F270    1.355   .     S
C218   N241    1.369   .     A
C218   C220    1.417   .     A
C219   F271    1.355   .     S
C219   N241    1.368   .     A
C220   F272    1.354   .     S
C220   N242    1.368   .     A
C221   C223    1.478   .     S
C221   O249    1.301   .     A
C221   O315    1.298   .     S
C222   O250    1.298   .     A
C222   C224    1.474   .     S
C222   O384    1.299   1_455 S
C223   C227    1.402   .     A
C223   C229    1.394   .     A
C224   C230    1.391   .     A
C224   C228    1.399   .     A
C225   C227    1.409   .     A
C225   C233    1.423   .     A
C225   O325    1.384   .     S
C226   O259    1.384   .     S
C226   C228    1.410   .     A
C226   C234    1.424   .     A
C227   F324    1.359   .     S
C228   F391    1.357   1_455 S
C229   C231    1.406   .     A
C229   H240    1.078   .     S
C230   C232    1.405   .     A
C230   H239    1.079   .     S
C231   C233    1.423   .     A
C231   C235    1.426   .     A
C232   C236    1.425   .     A
C232   C234    1.423   .     A
C233   C821    1.412   .     S
C234   C822    1.413   1_554 S
C235   C848    1.413   .     S
C236   C847    1.413   1_554 S
Cu237  O250    1.922   .     S
Cu237  O246    1.956   .     S
Cu237  O247    1.936   .     S
Cu237  O243    1.957   .     S
Cu237  N241    2.017   .     S
Cu237  Cu374   2.685   1_455 S
Cu238  O245    1.956   .     S
Cu238  O249    1.922   .     S
Cu238  O244    1.957   .     S
Cu238  O248    1.936   .     S
Cu238  N242    2.017   .     S
Cu238  Cu305   2.685   .     S
O243   C341    1.290   1_455 S
O244   C274    1.290   .     S
O247   C357    1.298   1_455 S
O248   C290    1.299   .     S
O251   H252    0.990   .     S
O253   H254    0.990   .     S
F255   C296    1.357   .     S
F256   C363    1.359   1_455 S
O257   H258    0.990   .     S
O257   C361    1.384   1_455 S
O259   H396    0.990   1_455 S
H260   O327    0.990   .     S
O263   H264    0.989   .     S
O265   H266    0.989   .     S
C273   O313    1.292   .     A
C273   C352    1.444   .     S
C273   O379    1.290   .     S
C274   O314    1.292   .     A
C275   C277    1.405   .     A
C275   C304    1.417   .     A
C275   F329    1.359   .     S
C276   C303    1.418   .     A
C276   C278    1.407   .     A
C276   F330    1.359   .     S
C277   O319    1.384   .     S
C277   C913    1.412   1_554 S
C278   O321    1.384   .     S
C278   C914    1.413   .     S
C279   O331    1.382   .     S
C279   C352    1.413   .     S
C280   O333    1.382   .     S
C280   C486    1.387   .     S
C281   C283    1.401   .     A
C281   F335    1.360   .     S
C281   C483    1.387   .     S
C282   F336    1.360   .     S
C282   C284    1.401   .     A
C283   C348    1.413   .     S
C283   C342    1.444   .     S
C285   F337    1.355   .     S
C285   N310    1.369   .     A
C285   C287    1.418   .     A
C286   F338    1.355   .     S
C286   N309    1.369   .     A
C286   C288    1.417   .     A
C287   F339    1.355   .     S
C287   N309    1.368   .     A
C288   F340    1.354   .     S
C288   N310    1.368   .     A
C289   C291    1.478   .     S
C289   O317    1.301   .     A
C289   O383    1.298   .     S
C290   O318    1.298   .     A
C290   C292    1.474   .     S
C291   C295    1.402   .     A
C291   C297    1.394   .     A
C292   C298    1.391   .     A
C292   C296    1.399   .     A
C293   C295    1.409   .     A
C293   C301    1.423   .     A
C293   O393    1.384   .     S
C294   O327    1.384   .     S
C294   C296    1.410   .     A
C294   C302    1.424   .     A
C295   F392    1.359   .     S
C297   C299    1.406   .     A
C297   H308    1.078   .     S
C298   C300    1.405   .     A
C298   H307    1.079   .     S
C299   C301    1.423   .     A
C299   C303    1.426   .     A
C300   C304    1.425   .     A
C300   C302    1.423   .     A
C301   C889    1.412   .     S
C302   C890    1.413   1_554 S
C303   C916    1.413   .     S
C304   C915    1.413   1_554 S
Cu305  O318    1.922   .     S
Cu305  O314    1.956   .     S
Cu305  O315    1.936   .     S
Cu305  O311    1.957   .     S
Cu305  N309    2.017   .     S
Cu306  O313    1.956   .     S
Cu306  O317    1.922   .     S
Cu306  O312    1.957   .     S
Cu306  O316    1.936   .     S
Cu306  N310    2.017   .     S
Cu306  Cu373   2.685   .     S
O312   C342    1.290   .     S
O316   C358    1.299   .     S
O319   H320    0.990   .     S
O321   H322    0.990   .     S
F323   C364    1.357   .     S
O325   H326    0.990   .     S
H328   O395    0.990   .     S
O331   H332    0.989   .     S
O333   H334    0.989   .     S
C341   O381    1.292   .     A
C341   C216    1.444   1_655 S
C341   O243    1.290   1_655 S
C342   O382    1.292   .     A
C343   C345    1.405   .     A
C343   C372    1.417   .     A
C343   F397    1.359   .     S
C344   C371    1.418   .     A
C344   C346    1.407   .     A
C344   F398    1.359   .     S
C345   O387    1.384   .     S
C345   C981    1.412   1_554 S
C346   O389    1.384   .     S
C346   C982    1.413   .     S
C347   O399    1.382   .     S
C347   C216    1.413   1_655 S
C348   O401    1.382   .     S
C348   C554    1.387   .     S
C349   C351    1.401   .     A
C349   F403    1.360   .     S
C349   C551    1.387   .     S
C350   F404    1.360   .     S
C350   C352    1.401   .     A
C351   C212    1.413   1_655 S
C351   C206    1.444   1_655 S
C353   F405    1.355   .     S
C353   N378    1.369   .     A
C353   C355    1.418   .     A
C354   F406    1.355   .     S
C354   N377    1.369   .     A
C354   C356    1.417   .     A
C355   F407    1.355   .     S
C355   N377    1.368   .     A
C356   F408    1.354   .     S
C356   N378    1.368   .     A
C357   C359    1.478   .     S
C357   O385    1.301   .     A
C357   O247    1.298   1_655 S
C358   O386    1.298   .     A
C358   C360    1.474   .     S
C359   C363    1.402   .     A
C359   C365    1.394   .     A
C360   C366    1.391   .     A
C360   C364    1.399   .     A
C361   C363    1.409   .     A
C361   C369    1.423   .     A
C361   O257    1.384   1_655 S
C362   O395    1.384   .     S
C362   C364    1.410   .     A
C362   C370    1.424   .     A
C363   F256    1.359   1_655 S
C365   C367    1.406   .     A
C365   H376    1.078   .     S
C366   C368    1.405   .     A
C366   H375    1.079   .     S
C367   C369    1.423   .     A
C367   C371    1.426   .     A
C368   C372    1.425   .     A
C368   C370    1.423   .     A
C369   C957    1.412   .     S
C370   C958    1.413   1_554 S
C371   C984    1.413   .     S
C372   C983    1.413   1_554 S
Cu373  O386    1.922   .     S
Cu373  O382    1.956   .     S
Cu373  O383    1.936   .     S
Cu373  O379    1.957   .     S
Cu373  N377    2.017   .     S
Cu374  O381    1.956   .     S
Cu374  O385    1.922   .     S
Cu374  O380    1.957   .     S
Cu374  O384    1.936   .     S
Cu374  N378    2.017   .     S
Cu374  Cu237   2.685   1_655 S
O380   C206    1.290   1_655 S
O384   C222    1.299   1_655 S
O387   H388    0.990   .     S
O389   H390    0.990   .     S
F391   C228    1.357   1_655 S
O393   H394    0.990   .     S
H396   O259    0.990   1_655 S
O399   H400    0.989   .     S
O401   H402    0.989   .     S
C409   O449    1.292   .     A
C409   C488    1.444   .     S
C409   O515    1.290   .     S
C410   O450    1.292   .     A
C410   C555    1.444   1_455 S
C410   O584    1.290   1_455 S
C411   C413    1.405   .     A
C411   C440    1.417   .     A
C411   F465    1.359   .     S
C412   C439    1.418   .     A
C412   C414    1.407   .     A
C412   F466    1.359   .     S
C413   O455    1.384   .     S
C413   C1049   1.412   1_554 S
C414   O457    1.384   .     S
C414   C1050   1.413   .     S
C415   O467    1.382   .     S
C415   C488    1.413   .     S
C416   O469    1.382   .     S
C416   C10     1.387   1_565 S
C416   C555    1.413   1_455 S
C417   C419    1.401   .     A
C417   F471    1.360   .     S
C417   C7      1.387   1_565 S
C418   F472    1.360   .     S
C418   C420    1.401   .     A
C419   C484    1.413   .     S
C419   C478    1.444   .     S
C420   C545    1.444   1_455 S
C420   C551    1.413   1_455 S
C421   F473    1.355   .     S
C421   N446    1.369   .     A
C421   C423    1.418   .     A
C422   F474    1.355   .     S
C422   N445    1.369   .     A
C422   C424    1.417   .     A
C423   F475    1.355   .     S
C423   N445    1.368   .     A
C424   F476    1.354   .     S
C424   N446    1.368   .     A
C425   C427    1.478   .     S
C425   O453    1.301   .     A
C425   O519    1.298   .     S
C426   O454    1.298   .     A
C426   C428    1.474   .     S
C426   O588    1.299   1_455 S
C427   C431    1.402   .     A
C427   C433    1.394   .     A
C428   C434    1.391   .     A
C428   C432    1.399   .     A
C429   C431    1.409   .     A
C429   C437    1.423   .     A
C429   O529    1.384   .     S
C430   O463    1.384   .     S
C430   C432    1.410   .     A
C430   C438    1.424   .     A
C431   F528    1.359   .     S
C432   F595    1.357   1_455 S
C433   C435    1.406   .     A
C433   H444    1.078   .     S
C434   C436    1.405   .     A
C434   H443    1.079   .     S
C435   C437    1.423   .     A
C435   C439    1.426   .     A
C436   C440    1.425   .     A
C436   C438    1.423   .     A
C437   C1025   1.412   .     S
C438   C1026   1.413   1_554 S
C439   C1052   1.413   .     S
C440   C1051   1.413   1_554 S
Cu441  O454    1.922   .     S
Cu441  O450    1.956   .     S
Cu441  O451    1.936   .     S
Cu441  O447    1.957   .     S
Cu441  N445    2.017   .     S
Cu441  Cu578   2.685   1_455 S
Cu442  O449    1.956   .     S
Cu442  O453    1.922   .     S
Cu442  O448    1.957   .     S
Cu442  O452    1.936   .     S
Cu442  N446    2.017   .     S
Cu442  Cu509   2.685   .     S
O447   C545    1.290   1_455 S
O448   C478    1.290   .     S
O451   C561    1.298   1_455 S
O452   C494    1.299   .     S
O455   H456    0.990   .     S
O457   H458    0.990   .     S
F459   C500    1.357   .     S
F460   C567    1.359   1_455 S
O461   H462    0.990   .     S
O461   C565    1.384   1_455 S
O463   H600    0.990   1_455 S
H464   O531    0.990   .     S
O467   H468    0.989   .     S
O469   H470    0.989   .     S
C477   O517    1.292   .     A
C477   C556    1.444   .     S
C477   O583    1.290   .     S
C478   O518    1.292   .     A
C479   C481    1.405   .     A
C479   C508    1.417   .     A
C479   F533    1.359   .     S
C480   C507    1.418   .     A
C480   C482    1.407   .     A
C480   F534    1.359   .     S
C481   O523    1.384   .     S
C481   C1117   1.412   1_554 S
C482   O525    1.384   .     S
C482   C1118   1.413   .     S
C483   O535    1.382   .     S
C483   C556    1.413   .     S
C484   O537    1.382   .     S
C484   C78     1.387   1_565 S
C485   C487    1.401   .     A
C485   F539    1.360   .     S
C485   C75     1.387   1_565 S
C486   F540    1.360   .     S
C486   C488    1.401   .     A
C487   C552    1.413   .     S
C487   C546    1.444   .     S
C489   F541    1.355   .     S
C489   N514    1.369   .     A
C489   C491    1.418   .     A
C490   F542    1.355   .     S
C490   N513    1.369   .     A
C490   C492    1.417   .     A
C491   F543    1.355   .     S
C491   N513    1.368   .     A
C492   F544    1.354   .     S
C492   N514    1.368   .     A
C493   C495    1.478   .     S
C493   O521    1.301   .     A
C493   O587    1.298   .     S
C494   O522    1.298   .     A
C494   C496    1.474   .     S
C495   C499    1.402   .     A
C495   C501    1.394   .     A
C496   C502    1.391   .     A
C496   C500    1.399   .     A
C497   C499    1.409   .     A
C497   C505    1.423   .     A
C497   O597    1.384   .     S
C498   O531    1.384   .     S
C498   C500    1.410   .     A
C498   C506    1.424   .     A
C499   F596    1.359   .     S
C501   C503    1.406   .     A
C501   H512    1.078   .     S
C502   C504    1.405   .     A
C502   H511    1.079   .     S
C503   C505    1.423   .     A
C503   C507    1.426   .     A
C504   C508    1.425   .     A
C504   C506    1.423   .     A
C505   C1093   1.412   .     S
C506   C1094   1.413   1_554 S
C507   C1120   1.413   .     S
C508   C1119   1.413   1_554 S
Cu509  O522    1.922   .     S
Cu509  O518    1.956   .     S
Cu509  O519    1.936   .     S
Cu509  O515    1.957   .     S
Cu509  N513    2.017   .     S
Cu510  O517    1.956   .     S
Cu510  O521    1.922   .     S
Cu510  O516    1.957   .     S
Cu510  O520    1.936   .     S
Cu510  N514    2.017   .     S
Cu510  Cu577   2.685   .     S
O516   C546    1.290   .     S
O520   C562    1.299   .     S
O523   H524    0.990   .     S
O525   H526    0.990   .     S
F527   C568    1.357   .     S
O529   H530    0.990   .     S
H532   O599    0.990   .     S
O535   H536    0.989   .     S
O537   H538    0.989   .     S
C545   O585    1.292   .     A
C545   C420    1.444   1_655 S
C545   O447    1.290   1_655 S
C546   O586    1.292   .     A
C547   C549    1.405   .     A
C547   C576    1.417   .     A
C547   F601    1.359   .     S
C548   C575    1.418   .     A
C548   C550    1.407   .     A
C548   F602    1.359   .     S
C549   O591    1.384   .     S
C549   C1185   1.412   1_554 S
C550   O593    1.384   .     S
C550   C1186   1.413   .     S
C551   O603    1.382   .     S
C551   C420    1.413   1_655 S
C552   O605    1.382   .     S
C552   C146    1.387   1_565 S
C553   C555    1.401   .     A
C553   F607    1.360   .     S
C553   C143    1.387   1_565 S
C554   F608    1.360   .     S
C554   C556    1.401   .     A
C555   C416    1.413   1_655 S
C555   C410    1.444   1_655 S
C557   F609    1.355   .     S
C557   N582    1.369   .     A
C557   C559    1.418   .     A
C558   F610    1.355   .     S
C558   N581    1.369   .     A
C558   C560    1.417   .     A
C559   F611    1.355   .     S
C559   N581    1.368   .     A
C560   F612    1.354   .     S
C560   N582    1.368   .     A
C561   C563    1.478   .     S
C561   O589    1.301   .     A
C561   O451    1.298   1_655 S
C562   O590    1.298   .     A
C562   C564    1.474   .     S
C563   C567    1.402   .     A
C563   C569    1.394   .     A
C564   C570    1.391   .     A
C564   C568    1.399   .     A
C565   C567    1.409   .     A
C565   C573    1.423   .     A
C565   O461    1.384   1_655 S
C566   O599    1.384   .     S
C566   C568    1.410   .     A
C566   C574    1.424   .     A
C567   F460    1.359   1_655 S
C569   C571    1.406   .     A
C569   H580    1.078   .     S
C570   C572    1.405   .     A
C570   H579    1.079   .     S
C571   C573    1.423   .     A
C571   C575    1.426   .     A
C572   C576    1.425   .     A
C572   C574    1.423   .     A
C573   C1161   1.412   .     S
C574   C1162   1.413   1_554 S
C575   C1188   1.413   .     S
C576   C1187   1.413   1_554 S
Cu577  O590    1.922   .     S
Cu577  O586    1.956   .     S
Cu577  O587    1.936   .     S
Cu577  O583    1.957   .     S
Cu577  N581    2.017   .     S
Cu578  O585    1.956   .     S
Cu578  O589    1.922   .     S
Cu578  O584    1.957   .     S
Cu578  O588    1.936   .     S
Cu578  N582    2.017   .     S
Cu578  Cu441   2.685   1_655 S
O584   C410    1.290   1_655 S
O588   C426    1.299   1_655 S
O591   H592    0.990   .     S
O593   H594    0.990   .     S
F595   C432    1.357   1_655 S
O597   H598    0.990   .     S
H600   O463    0.990   1_655 S
O603   H604    0.989   .     S
O605   H606    0.989   .     S
C613   O653    1.292   .     A
C613   C692    1.444   .     S
C613   O719    1.290   .     S
C614   O654    1.292   .     A
C614   C759    1.444   1_455 S
C614   O788    1.290   1_455 S
C615   C617    1.405   .     A
C615   C644    1.417   .     A
C615   F669    1.359   .     S
C616   C643    1.418   .     A
C616   C618    1.407   .     A
C616   F670    1.359   .     S
C617   O659    1.384   .     S
C618   O661    1.384   .     S
C618   C30     1.413   1_556 S
C619   O671    1.382   .     S
C619   C1029   1.387   1_545 S
C619   C692    1.413   .     S
C620   O673    1.382   .     S
C620   C826    1.387   .     S
C620   C759    1.413   1_455 S
C621   C623    1.401   .     A
C621   F675    1.360   .     S
C621   C823    1.387   .     S
C622   F676    1.360   .     S
C622   C624    1.401   .     A
C622   C1028   1.387   1_545 S
C623   C688    1.413   .     S
C623   C682    1.444   .     S
C624   C749    1.444   1_455 S
C624   C755    1.413   1_455 S
C625   F677    1.355   .     S
C625   N650    1.369   .     A
C625   C627    1.418   .     A
C626   F678    1.355   .     S
C626   N649    1.369   .     A
C626   C628    1.417   .     A
C627   F679    1.355   .     S
C627   N649    1.368   .     A
C628   F680    1.354   .     S
C628   N650    1.368   .     A
C629   C631    1.478   .     S
C629   O657    1.301   .     A
C629   O723    1.298   .     S
C630   O658    1.298   .     A
C630   C632    1.474   .     S
C630   O792    1.299   1_455 S
C631   C635    1.402   .     A
C631   C637    1.394   .     A
C632   C638    1.391   .     A
C632   C636    1.399   .     A
C633   C635    1.409   .     A
C633   C641    1.423   .     A
C633   O733    1.384   .     S
C634   O667    1.384   .     S
C634   C636    1.410   .     A
C634   C642    1.424   .     A
C635   F732    1.359   .     S
C636   F799    1.357   1_455 S
C637   C639    1.406   .     A
C637   H648    1.078   .     S
C638   C640    1.405   .     A
C638   H647    1.079   .     S
C639   C641    1.423   .     A
C639   C643    1.426   .     A
C640   C644    1.425   .     A
C640   C642    1.423   .     A
C641   C5      1.412   1_556 S
C643   C32     1.413   1_556 S
Cu645  O658    1.922   .     S
Cu645  O654    1.956   .     S
Cu645  O655    1.936   .     S
Cu645  O651    1.957   .     S
Cu645  N649    2.017   .     S
Cu645  Cu782   2.685   1_455 S
Cu646  O653    1.956   .     S
Cu646  O657    1.922   .     S
Cu646  O652    1.957   .     S
Cu646  O656    1.936   .     S
Cu646  N650    2.017   .     S
Cu646  Cu713   2.685   .     S
O651   C749    1.290   1_455 S
O652   C682    1.290   .     S
O655   C765    1.298   1_455 S
O656   C698    1.299   .     S
O659   H660    0.990   .     S
O661   H662    0.990   .     S
F663   C704    1.357   .     S
F664   C771    1.359   1_455 S
O665   H666    0.990   .     S
O665   C769    1.384   1_455 S
O667   H804    0.990   1_455 S
H668   O735    0.990   .     S
O671   H672    0.989   .     S
O673   H674    0.989   .     S
C681   O721    1.292   .     A
C681   C760    1.444   .     S
C681   O787    1.290   .     S
C682   O722    1.292   .     A
C683   C685    1.405   .     A
C683   C712    1.417   .     A
C683   F737    1.359   .     S
C684   C711    1.418   .     A
C684   C686    1.407   .     A
C684   F738    1.359   .     S
C685   O727    1.384   .     S
C686   O729    1.384   .     S
C686   C98     1.413   1_556 S
C687   O739    1.382   .     S
C687   C1097   1.387   1_545 S
C687   C760    1.413   .     S
C688   O741    1.382   .     S
C688   C894    1.387   .     S
C689   C691    1.401   .     A
C689   F743    1.360   .     S
C689   C891    1.387   .     S
C690   F744    1.360   .     S
C690   C692    1.401   .     A
C690   C1096   1.387   1_545 S
C691   C756    1.413   .     S
C691   C750    1.444   .     S
C693   F745    1.355   .     S
C693   N718    1.369   .     A
C693   C695    1.418   .     A
C694   F746    1.355   .     S
C694   N717    1.369   .     A
C694   C696    1.417   .     A
C695   F747    1.355   .     S
C695   N717    1.368   .     A
C696   F748    1.354   .     S
C696   N718    1.368   .     A
C697   C699    1.478   .     S
C697   O725    1.301   .     A
C697   O791    1.298   .     S
C698   O726    1.298   .     A
C698   C700    1.474   .     S
C699   C703    1.402   .     A
C699   C705    1.394   .     A
C700   C706    1.391   .     A
C700   C704    1.399   .     A
C701   C703    1.409   .     A
C701   C709    1.423   .     A
C701   O801    1.384   .     S
C702   O735    1.384   .     S
C702   C704    1.410   .     A
C702   C710    1.424   .     A
C703   F800    1.359   .     S
C705   C707    1.406   .     A
C705   H716    1.078   .     S
C706   C708    1.405   .     A
C706   H715    1.079   .     S
C707   C709    1.423   .     A
C707   C711    1.426   .     A
C708   C712    1.425   .     A
C708   C710    1.423   .     A
C709   C73     1.412   1_556 S
C711   C100    1.413   1_556 S
Cu713  O726    1.922   .     S
Cu713  O722    1.956   .     S
Cu713  O723    1.936   .     S
Cu713  O719    1.957   .     S
Cu713  N717    2.017   .     S
Cu714  O721    1.956   .     S
Cu714  O725    1.922   .     S
Cu714  O720    1.957   .     S
Cu714  O724    1.936   .     S
Cu714  N718    2.017   .     S
Cu714  Cu781   2.685   .     S
O720   C750    1.290   .     S
O724   C766    1.299   .     S
O727   H728    0.990   .     S
O729   H730    0.990   .     S
F731   C772    1.357   .     S
O733   H734    0.990   .     S
H736   O803    0.990   .     S
O739   H740    0.989   .     S
O741   H742    0.989   .     S
C749   O789    1.292   .     A
C749   C624    1.444   1_655 S
C749   O651    1.290   1_655 S
C750   O790    1.292   .     A
C751   C753    1.405   .     A
C751   C780    1.417   .     A
C751   F805    1.359   .     S
C752   C779    1.418   .     A
C752   C754    1.407   .     A
C752   F806    1.359   .     S
C753   O795    1.384   .     S
C754   O797    1.384   .     S
C754   C166    1.413   1_556 S
C755   O807    1.382   .     S
C755   C1165   1.387   1_545 S
C755   C624    1.413   1_655 S
C756   O809    1.382   .     S
C756   C962    1.387   .     S
C757   C759    1.401   .     A
C757   F811    1.360   .     S
C757   C959    1.387   .     S
C758   F812    1.360   .     S
C758   C760    1.401   .     A
C758   C1164   1.387   1_545 S
C759   C620    1.413   1_655 S
C759   C614    1.444   1_655 S
C761   F813    1.355   .     S
C761   N786    1.369   .     A
C761   C763    1.418   .     A
C762   F814    1.355   .     S
C762   N785    1.369   .     A
C762   C764    1.417   .     A
C763   F815    1.355   .     S
C763   N785    1.368   .     A
C764   F816    1.354   .     S
C764   N786    1.368   .     A
C765   C767    1.478   .     S
C765   O793    1.301   .     A
C765   O655    1.298   1_655 S
C766   O794    1.298   .     A
C766   C768    1.474   .     S
C767   C771    1.402   .     A
C767   C773    1.394   .     A
C768   C774    1.391   .     A
C768   C772    1.399   .     A
C769   C771    1.409   .     A
C769   C777    1.423   .     A
C769   O665    1.384   1_655 S
C770   O803    1.384   .     S
C770   C772    1.410   .     A
C770   C778    1.424   .     A
C771   F664    1.359   1_655 S
C773   C775    1.406   .     A
C773   H784    1.078   .     S
C774   C776    1.405   .     A
C774   H783    1.079   .     S
C775   C777    1.423   .     A
C775   C779    1.426   .     A
C776   C780    1.425   .     A
C776   C778    1.423   .     A
C777   C141    1.412   1_556 S
C779   C168    1.413   1_556 S
Cu781  O794    1.922   .     S
Cu781  O790    1.956   .     S
Cu781  O791    1.936   .     S
Cu781  O787    1.957   .     S
Cu781  N785    2.017   .     S
Cu782  O789    1.956   .     S
Cu782  O793    1.922   .     S
Cu782  O788    1.957   .     S
Cu782  O792    1.936   .     S
Cu782  N786    2.017   .     S
Cu782  Cu645   2.685   1_655 S
O788   C614    1.290   1_655 S
O792   C630    1.299   1_655 S
O795   H796    0.990   .     S
O797   H798    0.990   .     S
F799   C636    1.357   1_655 S
O801   H802    0.990   .     S
H804   O667    0.990   1_655 S
O807   H808    0.989   .     S
O809   H810    0.989   .     S
C817   O857    1.292   .     A
C817   C896    1.444   .     S
C817   O923    1.290   .     S
C818   O858    1.292   .     A
C818   C963    1.444   1_455 S
C818   O992    1.290   1_455 S
C819   C821    1.405   .     A
C819   C848    1.417   .     A
C819   F873    1.359   .     S
C820   C847    1.418   .     A
C820   C822    1.407   .     A
C820   F874    1.359   .     S
C821   O863    1.384   .     S
C822   O865    1.384   .     S
C822   C234    1.413   1_556 S
C823   O875    1.382   .     S
C823   C896    1.413   .     S
C824   O877    1.382   .     S
C824   C1030   1.387   .     S
C824   C963    1.413   1_455 S
C825   C827    1.401   .     A
C825   F879    1.360   .     S
C825   C1027   1.387   .     S
C826   F880    1.360   .     S
C826   C828    1.401   .     A
C827   C892    1.413   .     S
C827   C886    1.444   .     S
C828   C953    1.444   1_455 S
C828   C959    1.413   1_455 S
C829   F881    1.355   .     S
C829   N854    1.369   .     A
C829   C831    1.418   .     A
C830   F882    1.355   .     S
C830   N853    1.369   .     A
C830   C832    1.417   .     A
C831   F883    1.355   .     S
C831   N853    1.368   .     A
C832   F884    1.354   .     S
C832   N854    1.368   .     A
C833   C835    1.478   .     S
C833   O861    1.301   .     A
C833   O927    1.298   .     S
C834   O862    1.298   .     A
C834   C836    1.474   .     S
C834   O996    1.299   1_455 S
C835   C839    1.402   .     A
C835   C841    1.394   .     A
C836   C842    1.391   .     A
C836   C840    1.399   .     A
C837   C839    1.409   .     A
C837   C845    1.423   .     A
C837   O937    1.384   .     S
C838   O871    1.384   .     S
C838   C840    1.410   .     A
C838   C846    1.424   .     A
C839   F936    1.359   .     S
C840   F1003   1.357   1_455 S
C841   C843    1.406   .     A
C841   H852    1.078   .     S
C842   C844    1.405   .     A
C842   H851    1.079   .     S
C843   C845    1.423   .     A
C843   C847    1.426   .     A
C844   C848    1.425   .     A
C844   C846    1.423   .     A
C845   C209    1.412   1_556 S
C847   C236    1.413   1_556 S
Cu849  O862    1.922   .     S
Cu849  O858    1.956   .     S
Cu849  O859    1.936   .     S
Cu849  O855    1.957   .     S
Cu849  N853    2.017   .     S
Cu849  Cu986   2.685   1_455 S
Cu850  O857    1.956   .     S
Cu850  O861    1.922   .     S
Cu850  O856    1.957   .     S
Cu850  O860    1.936   .     S
Cu850  N854    2.017   .     S
Cu850  Cu917   2.685   .     S
O855   C953    1.290   1_455 S
O856   C886    1.290   .     S
O859   C969    1.298   1_455 S
O860   C902    1.299   .     S
O863   H864    0.990   .     S
O865   H866    0.990   .     S
F867   C908    1.357   .     S
F868   C975    1.359   1_455 S
O869   H870    0.990   .     S
O869   C973    1.384   1_455 S
O871   H1008   0.990   1_455 S
H872   O939    0.990   .     S
O875   H876    0.989   .     S
O877   H878    0.989   .     S
C885   O925    1.292   .     A
C885   C964    1.444   .     S
C885   O991    1.290   .     S
C886   O926    1.292   .     A
C887   C889    1.405   .     A
C887   C916    1.417   .     A
C887   F941    1.359   .     S
C888   C915    1.418   .     A
C888   C890    1.407   .     A
C888   F942    1.359   .     S
C889   O931    1.384   .     S
C890   O933    1.384   .     S
C890   C302    1.413   1_556 S
C891   O943    1.382   .     S
C891   C964    1.413   .     S
C892   O945    1.382   .     S
C892   C1098   1.387   .     S
C893   C895    1.401   .     A
C893   F947    1.360   .     S
C893   C1095   1.387   .     S
C894   F948    1.360   .     S
C894   C896    1.401   .     A
C895   C960    1.413   .     S
C895   C954    1.444   .     S
C897   F949    1.355   .     S
C897   N922    1.369   .     A
C897   C899    1.418   .     A
C898   F950    1.355   .     S
C898   N921    1.369   .     A
C898   C900    1.417   .     A
C899   F951    1.355   .     S
C899   N921    1.368   .     A
C900   F952    1.354   .     S
C900   N922    1.368   .     A
C901   C903    1.478   .     S
C901   O929    1.301   .     A
C901   O995    1.298   .     S
C902   O930    1.298   .     A
C902   C904    1.474   .     S
C903   C907    1.402   .     A
C903   C909    1.394   .     A
C904   C910    1.391   .     A
C904   C908    1.399   .     A
C905   C907    1.409   .     A
C905   C913    1.423   .     A
C905   O1005   1.384   .     S
C906   O939    1.384   .     S
C906   C908    1.410   .     A
C906   C914    1.424   .     A
C907   F1004   1.359   .     S
C909   C911    1.406   .     A
C909   H920    1.078   .     S
C910   C912    1.405   .     A
C910   H919    1.079   .     S
C911   C913    1.423   .     A
C911   C915    1.426   .     A
C912   C916    1.425   .     A
C912   C914    1.423   .     A
C913   C277    1.412   1_556 S
C915   C304    1.413   1_556 S
Cu917  O930    1.922   .     S
Cu917  O926    1.956   .     S
Cu917  O927    1.936   .     S
Cu917  O923    1.957   .     S
Cu917  N921    2.017   .     S
Cu918  O925    1.956   .     S
Cu918  O929    1.922   .     S
Cu918  O924    1.957   .     S
Cu918  O928    1.936   .     S
Cu918  N922    2.017   .     S
Cu918  Cu985   2.685   .     S
O924   C954    1.290   .     S
O928   C970    1.299   .     S
O931   H932    0.990   .     S
O933   H934    0.990   .     S
F935   C976    1.357   .     S
O937   H938    0.990   .     S
H940   O1007   0.990   .     S
O943   H944    0.989   .     S
O945   H946    0.989   .     S
C953   O993    1.292   .     A
C953   C828    1.444   1_655 S
C953   O855    1.290   1_655 S
C954   O994    1.292   .     A
C955   C957    1.405   .     A
C955   C984    1.417   .     A
C955   F1009   1.359   .     S
C956   C983    1.418   .     A
C956   C958    1.407   .     A
C956   F1010   1.359   .     S
C957   O999    1.384   .     S
C958   O1001   1.384   .     S
C958   C370    1.413   1_556 S
C959   O1011   1.382   .     S
C959   C828    1.413   1_655 S
C960   O1013   1.382   .     S
C960   C1166   1.387   .     S
C961   C963    1.401   .     A
C961   F1015   1.360   .     S
C961   C1163   1.387   .     S
C962   F1016   1.360   .     S
C962   C964    1.401   .     A
C963   C824    1.413   1_655 S
C963   C818    1.444   1_655 S
C965   F1017   1.355   .     S
C965   N990    1.369   .     A
C965   C967    1.418   .     A
C966   F1018   1.355   .     S
C966   N989    1.369   .     A
C966   C968    1.417   .     A
C967   F1019   1.355   .     S
C967   N989    1.368   .     A
C968   F1020   1.354   .     S
C968   N990    1.368   .     A
C969   C971    1.478   .     S
C969   O997    1.301   .     A
C969   O859    1.298   1_655 S
C970   O998    1.298   .     A
C970   C972    1.474   .     S
C971   C975    1.402   .     A
C971   C977    1.394   .     A
C972   C978    1.391   .     A
C972   C976    1.399   .     A
C973   C975    1.409   .     A
C973   C981    1.423   .     A
C973   O869    1.384   1_655 S
C974   O1007   1.384   .     S
C974   C976    1.410   .     A
C974   C982    1.424   .     A
C975   F868    1.359   1_655 S
C977   C979    1.406   .     A
C977   H988    1.078   .     S
C978   C980    1.405   .     A
C978   H987    1.079   .     S
C979   C981    1.423   .     A
C979   C983    1.426   .     A
C980   C984    1.425   .     A
C980   C982    1.423   .     A
C981   C345    1.412   1_556 S
C983   C372    1.413   1_556 S
Cu985  O998    1.922   .     S
Cu985  O994    1.956   .     S
Cu985  O995    1.936   .     S
Cu985  O991    1.957   .     S
Cu985  N989    2.017   .     S
Cu986  O993    1.956   .     S
Cu986  O997    1.922   .     S
Cu986  O992    1.957   .     S
Cu986  O996    1.936   .     S
Cu986  N990    2.017   .     S
Cu986  Cu849   2.685   1_655 S
O992   C818    1.290   1_655 S
O996   C834    1.299   1_655 S
O999   H1000   0.990   .     S
O1001  H1002   0.990   .     S
F1003  C840    1.357   1_655 S
O1005  H1006   0.990   .     S
H1008  O871    0.990   1_655 S
O1011  H1012   0.989   .     S
O1013  H1014   0.989   .     S
C1021  O1061   1.292   .     A
C1021  C1100   1.444   .     S
C1021  O1127   1.290   .     S
C1022  O1062   1.292   .     A
C1022  C1167   1.444   1_455 S
C1022  O1196   1.290   1_455 S
C1023  C1025   1.405   .     A
C1023  C1052   1.417   .     A
C1023  F1077   1.359   .     S
C1024  C1051   1.418   .     A
C1024  C1026   1.407   .     A
C1024  F1078   1.359   .     S
C1025  O1067   1.384   .     S
C1026  O1069   1.384   .     S
C1026  C438    1.413   1_556 S
C1027  O1079   1.382   .     S
C1027  C1100   1.413   .     S
C1028  O1081   1.382   .     S
C1028  C622    1.387   1_565 S
C1028  C1167   1.413   1_455 S
C1029  C1031   1.401   .     A
C1029  F1083   1.360   .     S
C1029  C619    1.387   1_565 S
C1030  F1084   1.360   .     S
C1030  C1032   1.401   .     A
C1031  C1096   1.413   .     S
C1031  C1090   1.444   .     S
C1032  C1157   1.444   1_455 S
C1032  C1163   1.413   1_455 S
C1033  F1085   1.355   .     S
C1033  N1058   1.369   .     A
C1033  C1035   1.418   .     A
C1034  F1086   1.355   .     S
C1034  N1057   1.369   .     A
C1034  C1036   1.417   .     A
C1035  F1087   1.355   .     S
C1035  N1057   1.368   .     A
C1036  F1088   1.354   .     S
C1036  N1058   1.368   .     A
C1037  C1039   1.478   .     S
C1037  O1065   1.301   .     A
C1037  O1131   1.298   .     S
C1038  O1066   1.298   .     A
C1038  C1040   1.474   .     S
C1038  O1200   1.299   1_455 S
C1039  C1043   1.402   .     A
C1039  C1045   1.394   .     A
C1040  C1046   1.391   .     A
C1040  C1044   1.399   .     A
C1041  C1043   1.409   .     A
C1041  C1049   1.423   .     A
C1041  O1141   1.384   .     S
C1042  O1075   1.384   .     S
C1042  C1044   1.410   .     A
C1042  C1050   1.424   .     A
C1043  F1140   1.359   .     S
C1044  F1207   1.357   1_455 S
C1045  C1047   1.406   .     A
C1045  H1056   1.078   .     S
C1046  C1048   1.405   .     A
C1046  H1055   1.079   .     S
C1047  C1049   1.423   .     A
C1047  C1051   1.426   .     A
C1048  C1052   1.425   .     A
C1048  C1050   1.423   .     A
C1049  C413    1.412   1_556 S
C1051  C440    1.413   1_556 S
Cu1053 O1066   1.922   .     S
Cu1053 O1062   1.956   .     S
Cu1053 O1063   1.936   .     S
Cu1053 O1059   1.957   .     S
Cu1053 N1057   2.017   .     S
Cu1053 Cu1190  2.685   1_455 S
Cu1054 O1061   1.956   .     S
Cu1054 O1065   1.922   .     S
Cu1054 O1060   1.957   .     S
Cu1054 O1064   1.936   .     S
Cu1054 N1058   2.017   .     S
Cu1054 Cu1121  2.685   .     S
O1059  C1157   1.290   1_455 S
O1060  C1090   1.290   .     S
O1063  C1173   1.298   1_455 S
O1064  C1106   1.299   .     S
O1067  H1068   0.990   .     S
O1069  H1070   0.990   .     S
F1071  C1112   1.357   .     S
F1072  C1179   1.359   1_455 S
O1073  H1074   0.990   .     S
O1073  C1177   1.384   1_455 S
O1075  H1212   0.990   1_455 S
H1076  O1143   0.990   .     S
O1079  H1080   0.989   .     S
O1081  H1082   0.989   .     S
C1089  O1129   1.292   .     A
C1089  C1168   1.444   .     S
C1089  O1195   1.290   .     S
C1090  O1130   1.292   .     A
C1091  C1093   1.405   .     A
C1091  C1120   1.417   .     A
C1091  F1145   1.359   .     S
C1092  C1119   1.418   .     A
C1092  C1094   1.407   .     A
C1092  F1146   1.359   .     S
C1093  O1135   1.384   .     S
C1094  O1137   1.384   .     S
C1094  C506    1.413   1_556 S
C1095  O1147   1.382   .     S
C1095  C1168   1.413   .     S
C1096  O1149   1.382   .     S
C1096  C690    1.387   1_565 S
C1097  C1099   1.401   .     A
C1097  F1151   1.360   .     S
C1097  C687    1.387   1_565 S
C1098  F1152   1.360   .     S
C1098  C1100   1.401   .     A
C1099  C1164   1.413   .     S
C1099  C1158   1.444   .     S
C1101  F1153   1.355   .     S
C1101  N1126   1.369   .     A
C1101  C1103   1.418   .     A
C1102  F1154   1.355   .     S
C1102  N1125   1.369   .     A
C1102  C1104   1.417   .     A
C1103  F1155   1.355   .     S
C1103  N1125   1.368   .     A
C1104  F1156   1.354   .     S
C1104  N1126   1.368   .     A
C1105  C1107   1.478   .     S
C1105  O1133   1.301   .     A
C1105  O1199   1.298   .     S
C1106  O1134   1.298   .     A
C1106  C1108   1.474   .     S
C1107  C1111   1.402   .     A
C1107  C1113   1.394   .     A
C1108  C1114   1.391   .     A
C1108  C1112   1.399   .     A
C1109  C1111   1.409   .     A
C1109  C1117   1.423   .     A
C1109  O1209   1.384   .     S
C1110  O1143   1.384   .     S
C1110  C1112   1.410   .     A
C1110  C1118   1.424   .     A
C1111  F1208   1.359   .     S
C1113  C1115   1.406   .     A
C1113  H1124   1.078   .     S
C1114  C1116   1.405   .     A
C1114  H1123   1.079   .     S
C1115  C1117   1.423   .     A
C1115  C1119   1.426   .     A
C1116  C1120   1.425   .     A
C1116  C1118   1.423   .     A
C1117  C481    1.412   1_556 S
C1119  C508    1.413   1_556 S
Cu1121 O1134   1.922   .     S
Cu1121 O1130   1.956   .     S
Cu1121 O1131   1.936   .     S
Cu1121 O1127   1.957   .     S
Cu1121 N1125   2.017   .     S
Cu1122 O1129   1.956   .     S
Cu1122 O1133   1.922   .     S
Cu1122 O1128   1.957   .     S
Cu1122 O1132   1.936   .     S
Cu1122 N1126   2.017   .     S
Cu1122 Cu1189  2.685   .     S
O1128  C1158   1.290   .     S
O1132  C1174   1.299   .     S
O1135  H1136   0.990   .     S
O1137  H1138   0.990   .     S
F1139  C1180   1.357   .     S
O1141  H1142   0.990   .     S
H1144  O1211   0.990   .     S
O1147  H1148   0.989   .     S
O1149  H1150   0.989   .     S
C1157  O1197   1.292   .     A
C1157  C1032   1.444   1_655 S
C1157  O1059   1.290   1_655 S
C1158  O1198   1.292   .     A
C1159  C1161   1.405   .     A
C1159  C1188   1.417   .     A
C1159  F1213   1.359   .     S
C1160  C1187   1.418   .     A
C1160  C1162   1.407   .     A
C1160  F1214   1.359   .     S
C1161  O1203   1.384   .     S
C1162  O1205   1.384   .     S
C1162  C574    1.413   1_556 S
C1163  O1215   1.382   .     S
C1163  C1032   1.413   1_655 S
C1164  O1217   1.382   .     S
C1164  C758    1.387   1_565 S
C1165  C1167   1.401   .     A
C1165  F1219   1.360   .     S
C1165  C755    1.387   1_565 S
C1166  F1220   1.360   .     S
C1166  C1168   1.401   .     A
C1167  C1028   1.413   1_655 S
C1167  C1022   1.444   1_655 S
C1169  F1221   1.355   .     S
C1169  N1194   1.369   .     A
C1169  C1171   1.418   .     A
C1170  F1222   1.355   .     S
C1170  N1193   1.369   .     A
C1170  C1172   1.417   .     A
C1171  F1223   1.355   .     S
C1171  N1193   1.368   .     A
C1172  F1224   1.354   .     S
C1172  N1194   1.368   .     A
C1173  C1175   1.478   .     S
C1173  O1201   1.301   .     A
C1173  O1063   1.298   1_655 S
C1174  O1202   1.298   .     A
C1174  C1176   1.474   .     S
C1175  C1179   1.402   .     A
C1175  C1181   1.394   .     A
C1176  C1182   1.391   .     A
C1176  C1180   1.399   .     A
C1177  C1179   1.409   .     A
C1177  C1185   1.423   .     A
C1177  O1073   1.384   1_655 S
C1178  O1211   1.384   .     S
C1178  C1180   1.410   .     A
C1178  C1186   1.424   .     A
C1179  F1072   1.359   1_655 S
C1181  C1183   1.406   .     A
C1181  H1192   1.078   .     S
C1182  C1184   1.405   .     A
C1182  H1191   1.079   .     S
C1183  C1185   1.423   .     A
C1183  C1187   1.426   .     A
C1184  C1188   1.425   .     A
C1184  C1186   1.423   .     A
C1185  C549    1.412   1_556 S
C1187  C576    1.413   1_556 S
Cu1189 O1202   1.922   .     S
Cu1189 O1198   1.956   .     S
Cu1189 O1199   1.936   .     S
Cu1189 O1195   1.957   .     S
Cu1189 N1193   2.017   .     S
Cu1190 O1197   1.956   .     S
Cu1190 O1201   1.922   .     S
Cu1190 O1196   1.957   .     S
Cu1190 O1200   1.936   .     S
Cu1190 N1194   2.017   .     S
Cu1190 Cu1053  2.685   1_655 S
O1196  C1022   1.290   1_655 S
O1200  C1038   1.299   1_655 S
O1203  H1204   0.990   .     S
O1205  H1206   0.990   .     S
F1207  C1044   1.357   1_655 S
O1209  H1210   0.990   .     S
H1212  O1075   0.990   1_655 S
O1215  H1216   0.989   .     S
O1217  H1218   0.989   .     S
