data_str_m3_o2_o10_pcu_sym.33
_audit_creation_date              2020-01-03
_audit_creation_method            'Materials Studio'
_symmetry_space_group_name_H-M    'P1'
_symmetry_Int_Tables_number       1
_symmetry_cell_setting            triclinic
loop_
_symmetry_equiv_pos_as_xyz
  x,y,z
_cell_length_a                    25.7630
_cell_length_b                    29.9433
_cell_length_c                    28.4794
_cell_angle_alpha                 90.8329
_cell_angle_beta                  99.2661
_cell_angle_gamma                 90.9315
loop_
_atom_site_label
_atom_site_type_symbol
_atom_site_fract_x
_atom_site_fract_y
_atom_site_fract_z
_atom_site_U_iso_or_equiv
_atom_site_adp_type
_atom_site_occupancy
C1     C     0.16582   0.16394   0.24958   0.00000  Uiso   1.00
C2     C     0.14139   0.21419   0.44259   0.00000  Uiso   1.00
C3     C     0.16750   0.24807   0.02674   0.00000  Uiso   1.00
C4     C     0.16677   0.24799   0.47350   0.00000  Uiso   1.00
C5     C     0.06699   0.24990   0.23743   0.00000  Uiso   1.00
C6     C     0.26634   0.25001   0.26256   0.00000  Uiso   1.00
C7     C     0.01180   0.24982   0.23076   0.00000  Uiso   1.00
C8     C     0.32153   0.24997   0.26920   0.00000  Uiso   1.00
C9     C     0.12783   0.04893   0.27908   0.00000  Uiso   1.00
C10    C     0.13981   0.45088   0.20421   0.00000  Uiso   1.00
C11    C     0.13377   0.09488   0.28080   0.00000  Uiso   1.00
C12    C     0.16531   0.33616   0.25000   0.00000  Uiso   1.00
C13    C     0.14547   0.40512   0.20536   0.00000  Uiso   1.00
C14    C     0.16065   0.11611   0.24817   0.00000  Uiso   1.00
C15    C     0.15922   0.38402   0.24911   0.00000  Uiso   1.00
C16    C     0.18095   0.09161   0.21340   0.00000  Uiso   1.00
C17    C     0.16555   0.40877   0.29168   0.00000  Uiso   1.00
C18    C     0.17587   0.04560   0.21224   0.00000  Uiso   1.00
C19    C     0.16087   0.45464   0.29052   0.00000  Uiso   1.00
C20    C     0.14961   0.02415   0.24530   0.00000  Uiso   1.00
C21    C     0.14869   0.47584   0.24671   0.00000  Uiso   1.00
C22    C     0.08007   0.20956   0.11213   0.00000  Uiso   1.00
C23    C     0.12483   0.23073   0.04583   0.00000  Uiso   1.00
C24    C     0.22157   0.32085   0.38665   0.00000  Uiso   1.00
C25    C     0.19109   0.28286   0.45278   0.00000  Uiso   1.00
C26    C     0.12524   0.23102   0.09531   0.00000  Uiso   1.00
C27    C     0.19180   0.28338   0.40351   0.00000  Uiso   1.00
C28    C     0.20855   0.26757   0.10850   0.00000  Uiso   1.00
C29    C     0.14156   0.21599   0.39304   0.00000  Uiso   1.00
C30    C     0.20998   0.26658   0.05919   0.00000  Uiso   1.00
H31    H     0.32412   0.24967   0.19443   0.00000  Uiso   1.00
H32    H     0.16844   0.47360   0.32368   0.00000  Uiso   1.00
H33    H     0.09104   0.21665   0.02238   0.00000  Uiso   1.00
H34    H     0.21015   0.30992   0.47510   0.00000  Uiso   1.00
H35    H     0.24141   0.28210   0.13259   0.00000  Uiso   1.00
H36    H     0.12181   0.18976   0.37004   0.00000  Uiso   1.00
H37    H     0.24454   0.27991   0.04681   0.00000  Uiso   1.00
H38    H     0.12203   0.18613   0.45647   0.00000  Uiso   1.00
H39    H     0.00129   0.20657   0.10886   0.00000  Uiso   1.00
H40    H     0.24341   0.38595   0.39497   0.00000  Uiso   1.00
H41    H     0.00922   0.25010   0.30553   0.00000  Uiso   1.00
H42    H     0.10683   0.03272   0.30436   0.00000  Uiso   1.00
H43    H     0.12945   0.46687   0.17018   0.00000  Uiso   1.00
H44    H     0.11698   0.11381   0.30721   0.00000  Uiso   1.00
H45    H     0.13911   0.38638   0.17204   0.00000  Uiso   1.00
H46    H     0.20172   0.10794   0.18802   0.00000  Uiso   1.00
H47    H     0.17498   0.39287   0.32565   0.00000  Uiso   1.00
H48    H     0.19378   0.02677   0.18650   0.00000  Uiso   1.00
N49    N     0.16667   0.24999   0.12623   0.00000  Uiso   1.00
N50    N     0.16667   0.25001   0.37376   0.00000  Uiso   1.00
O51    O     0.16667   0.18453   0.28974   0.00000  Uiso   1.00
O52    O     0.02929   0.22414   0.09536   0.00000  Uiso   1.00
O53    O     0.25171   0.31441   0.35850   0.00000  Uiso   1.00
O54    O     0.21893   0.36345   0.40688   0.00000  Uiso   1.00
O55    O     0.16666   0.31546   0.21026   0.00000  Uiso   1.00
O56    O     0.16667   0.18453   0.21026   0.00000  Uiso   1.00
O57    O     0.16666   0.31547   0.28974   0.00000  Uiso   1.00
O58    O     0.09058   0.25000   0.28044   0.00000  Uiso   1.00
O59    O     0.24275   0.25000   0.21955   0.00000  Uiso   1.00
O60    O     0.09058   0.24999   0.20096   0.00000  Uiso   1.00
O61    O     0.24275   0.25000   0.29903   0.00000  Uiso   1.00
O62    O     0.08664   0.17774   0.13863   0.00000  Uiso   1.00
Zn63   Zn    0.16667   0.25000   0.30307   0.00000  Uiso   1.00
Zn64   Zn    0.16667   0.24999   0.19693   0.00000  Uiso   1.00
C65    C     0.49915   0.16394   0.24958   0.00000  Uiso   1.00
C66    C     0.47473   0.21419   0.44259   0.00000  Uiso   1.00
C67    C     0.50083   0.24807   0.02674   0.00000  Uiso   1.00
C68    C     0.50010   0.24799   0.47350   0.00000  Uiso   1.00
C69    C     0.40032   0.24990   0.23743   0.00000  Uiso   1.00
C70    C     0.59967   0.25001   0.26256   0.00000  Uiso   1.00
C71    C     0.34513   0.24982   0.23076   0.00000  Uiso   1.00
C72    C     0.65486   0.24997   0.26920   0.00000  Uiso   1.00
C73    C     0.46116   0.04893   0.27908   0.00000  Uiso   1.00
C74    C     0.47314   0.45088   0.20421   0.00000  Uiso   1.00
C75    C     0.46710   0.09488   0.28080   0.00000  Uiso   1.00
C76    C     0.49864   0.33616   0.25000   0.00000  Uiso   1.00
C77    C     0.47880   0.40512   0.20536   0.00000  Uiso   1.00
C78    C     0.49398   0.11611   0.24817   0.00000  Uiso   1.00
C79    C     0.49255   0.38402   0.24911   0.00000  Uiso   1.00
C80    C     0.51428   0.09161   0.21340   0.00000  Uiso   1.00
C81    C     0.49888   0.40877   0.29168   0.00000  Uiso   1.00
C82    C     0.50920   0.04560   0.21224   0.00000  Uiso   1.00
C83    C     0.49420   0.45464   0.29052   0.00000  Uiso   1.00
C84    C     0.48295   0.02415   0.24530   0.00000  Uiso   1.00
C85    C     0.48203   0.47584   0.24671   0.00000  Uiso   1.00
C86    C     0.41341   0.20956   0.11213   0.00000  Uiso   1.00
C87    C     0.45817   0.23073   0.04583   0.00000  Uiso   1.00
C88    C     0.55490   0.32085   0.38665   0.00000  Uiso   1.00
C89    C     0.52443   0.28286   0.45278   0.00000  Uiso   1.00
C90    C     0.45858   0.23102   0.09531   0.00000  Uiso   1.00
C91    C     0.52514   0.28338   0.40351   0.00000  Uiso   1.00
C92    C     0.54188   0.26757   0.10850   0.00000  Uiso   1.00
C93    C     0.47489   0.21599   0.39304   0.00000  Uiso   1.00
C94    C     0.54331   0.26658   0.05919   0.00000  Uiso   1.00
H95    H     0.65745   0.24967   0.19443   0.00000  Uiso   1.00
H96    H     0.50177   0.47360   0.32368   0.00000  Uiso   1.00
H97    H     0.42438   0.21665   0.02238   0.00000  Uiso   1.00
H98    H     0.54348   0.30992   0.47510   0.00000  Uiso   1.00
H99    H     0.57474   0.28210   0.13259   0.00000  Uiso   1.00
H100   H     0.45514   0.18976   0.37004   0.00000  Uiso   1.00
H101   H     0.57788   0.27991   0.04681   0.00000  Uiso   1.00
H102   H     0.45537   0.18613   0.45647   0.00000  Uiso   1.00
H103   H     0.33462   0.20657   0.10886   0.00000  Uiso   1.00
H104   H     0.57674   0.38595   0.39497   0.00000  Uiso   1.00
H105   H     0.34256   0.25010   0.30553   0.00000  Uiso   1.00
H106   H     0.44016   0.03272   0.30436   0.00000  Uiso   1.00
H107   H     0.46278   0.46687   0.17018   0.00000  Uiso   1.00
H108   H     0.45032   0.11381   0.30721   0.00000  Uiso   1.00
H109   H     0.47244   0.38638   0.17204   0.00000  Uiso   1.00
H110   H     0.53506   0.10794   0.18802   0.00000  Uiso   1.00
H111   H     0.50832   0.39287   0.32565   0.00000  Uiso   1.00
H112   H     0.52711   0.02677   0.18650   0.00000  Uiso   1.00
N113   N     0.50000   0.24999   0.12623   0.00000  Uiso   1.00
N114   N     0.50000   0.25001   0.37376   0.00000  Uiso   1.00
O115   O     0.50000   0.18453   0.28974   0.00000  Uiso   1.00
O116   O     0.36262   0.22414   0.09536   0.00000  Uiso   1.00
O117   O     0.58505   0.31441   0.35850   0.00000  Uiso   1.00
O118   O     0.55226   0.36345   0.40688   0.00000  Uiso   1.00
O119   O     0.50000   0.31546   0.21026   0.00000  Uiso   1.00
O120   O     0.50000   0.18453   0.21026   0.00000  Uiso   1.00
O121   O     0.50000   0.31547   0.28974   0.00000  Uiso   1.00
O122   O     0.42392   0.25000   0.28044   0.00000  Uiso   1.00
O123   O     0.57608   0.25000   0.21955   0.00000  Uiso   1.00
O124   O     0.42392   0.24999   0.20096   0.00000  Uiso   1.00
O125   O     0.57608   0.25000   0.29903   0.00000  Uiso   1.00
O126   O     0.41998   0.17774   0.13863   0.00000  Uiso   1.00
Zn127  Zn    0.50000   0.25000   0.30307   0.00000  Uiso   1.00
Zn128  Zn    0.50000   0.24999   0.19693   0.00000  Uiso   1.00
C129   C     0.83249   0.16394   0.24958   0.00000  Uiso   1.00
C130   C     0.80806   0.21419   0.44259   0.00000  Uiso   1.00
C131   C     0.83417   0.24807   0.02674   0.00000  Uiso   1.00
C132   C     0.83343   0.24799   0.47350   0.00000  Uiso   1.00
C133   C     0.73366   0.24990   0.23743   0.00000  Uiso   1.00
C134   C     0.93301   0.25001   0.26256   0.00000  Uiso   1.00
C135   C     0.67847   0.24982   0.23076   0.00000  Uiso   1.00
C136   C     0.98820   0.24997   0.26920   0.00000  Uiso   1.00
C137   C     0.79449   0.04893   0.27908   0.00000  Uiso   1.00
C138   C     0.80647   0.45088   0.20421   0.00000  Uiso   1.00
C139   C     0.80044   0.09488   0.28080   0.00000  Uiso   1.00
C140   C     0.83198   0.33616   0.25000   0.00000  Uiso   1.00
C141   C     0.81213   0.40512   0.20536   0.00000  Uiso   1.00
C142   C     0.82732   0.11611   0.24817   0.00000  Uiso   1.00
C143   C     0.82589   0.38402   0.24911   0.00000  Uiso   1.00
C144   C     0.84761   0.09161   0.21340   0.00000  Uiso   1.00
C145   C     0.83221   0.40877   0.29168   0.00000  Uiso   1.00
C146   C     0.84254   0.04560   0.21224   0.00000  Uiso   1.00
C147   C     0.82753   0.45464   0.29052   0.00000  Uiso   1.00
C148   C     0.81628   0.02415   0.24530   0.00000  Uiso   1.00
C149   C     0.81536   0.47584   0.24671   0.00000  Uiso   1.00
C150   C     0.74674   0.20956   0.11213   0.00000  Uiso   1.00
C151   C     0.79150   0.23073   0.04583   0.00000  Uiso   1.00
C152   C     0.88824   0.32085   0.38665   0.00000  Uiso   1.00
C153   C     0.85776   0.28286   0.45278   0.00000  Uiso   1.00
C154   C     0.79191   0.23102   0.09531   0.00000  Uiso   1.00
C155   C     0.85847   0.28338   0.40351   0.00000  Uiso   1.00
C156   C     0.87521   0.26757   0.10850   0.00000  Uiso   1.00
C157   C     0.80822   0.21599   0.39304   0.00000  Uiso   1.00
C158   C     0.87664   0.26658   0.05919   0.00000  Uiso   1.00
H159   H     0.99079   0.24967   0.19443   0.00000  Uiso   1.00
H160   H     0.83510   0.47360   0.32368   0.00000  Uiso   1.00
H161   H     0.75771   0.21665   0.02238   0.00000  Uiso   1.00
H162   H     0.87681   0.30992   0.47510   0.00000  Uiso   1.00
H163   H     0.90808   0.28210   0.13259   0.00000  Uiso   1.00
H164   H     0.78848   0.18976   0.37004   0.00000  Uiso   1.00
H165   H     0.91121   0.27991   0.04681   0.00000  Uiso   1.00
H166   H     0.78870   0.18613   0.45647   0.00000  Uiso   1.00
H167   H     0.66795   0.20657   0.10886   0.00000  Uiso   1.00
H168   H     0.91007   0.38595   0.39497   0.00000  Uiso   1.00
H169   H     0.67589   0.25010   0.30553   0.00000  Uiso   1.00
H170   H     0.77350   0.03272   0.30436   0.00000  Uiso   1.00
H171   H     0.79611   0.46687   0.17018   0.00000  Uiso   1.00
H172   H     0.78365   0.11381   0.30721   0.00000  Uiso   1.00
H173   H     0.80577   0.38638   0.17204   0.00000  Uiso   1.00
H174   H     0.86839   0.10794   0.18802   0.00000  Uiso   1.00
H175   H     0.84165   0.39287   0.32565   0.00000  Uiso   1.00
H176   H     0.86044   0.02677   0.18650   0.00000  Uiso   1.00
N177   N     0.83333   0.24999   0.12623   0.00000  Uiso   1.00
N178   N     0.83333   0.25001   0.37376   0.00000  Uiso   1.00
O179   O     0.83334   0.18453   0.28974   0.00000  Uiso   1.00
O180   O     0.69595   0.22414   0.09536   0.00000  Uiso   1.00
O181   O     0.91838   0.31441   0.35850   0.00000  Uiso   1.00
O182   O     0.88559   0.36345   0.40688   0.00000  Uiso   1.00
O183   O     0.83333   0.31546   0.21026   0.00000  Uiso   1.00
O184   O     0.83334   0.18453   0.21026   0.00000  Uiso   1.00
O185   O     0.83333   0.31547   0.28974   0.00000  Uiso   1.00
O186   O     0.75725   0.25000   0.28044   0.00000  Uiso   1.00
O187   O     0.90942   0.25000   0.21955   0.00000  Uiso   1.00
O188   O     0.75725   0.24999   0.20096   0.00000  Uiso   1.00
O189   O     0.90942   0.25000   0.29903   0.00000  Uiso   1.00
O190   O     0.75331   0.17774   0.13863   0.00000  Uiso   1.00
Zn191  Zn    0.83333   0.25000   0.30307   0.00000  Uiso   1.00
Zn192  Zn    0.83333   0.24999   0.19693   0.00000  Uiso   1.00
C193   C     0.16582   0.66394   0.24958   0.00000  Uiso   1.00
C194   C     0.14139   0.71419   0.44259   0.00000  Uiso   1.00
C195   C     0.16750   0.74807   0.02674   0.00000  Uiso   1.00
C196   C     0.16677   0.74799   0.47350   0.00000  Uiso   1.00
C197   C     0.06699   0.74990   0.23743   0.00000  Uiso   1.00
C198   C     0.26634   0.75001   0.26256   0.00000  Uiso   1.00
C199   C     0.01180   0.74982   0.23076   0.00000  Uiso   1.00
C200   C     0.32153   0.74997   0.26920   0.00000  Uiso   1.00
C201   C     0.12783   0.54893   0.27908   0.00000  Uiso   1.00
C202   C     0.13981   0.95088   0.20421   0.00000  Uiso   1.00
C203   C     0.13377   0.59488   0.28080   0.00000  Uiso   1.00
C204   C     0.16531   0.83616   0.25000   0.00000  Uiso   1.00
C205   C     0.14547   0.90512   0.20536   0.00000  Uiso   1.00
C206   C     0.16065   0.61611   0.24817   0.00000  Uiso   1.00
C207   C     0.15922   0.88402   0.24911   0.00000  Uiso   1.00
C208   C     0.18095   0.59161   0.21340   0.00000  Uiso   1.00
C209   C     0.16555   0.90877   0.29168   0.00000  Uiso   1.00
C210   C     0.17587   0.54560   0.21224   0.00000  Uiso   1.00
C211   C     0.16087   0.95464   0.29052   0.00000  Uiso   1.00
C212   C     0.14961   0.52415   0.24530   0.00000  Uiso   1.00
C213   C     0.14869   0.97584   0.24671   0.00000  Uiso   1.00
C214   C     0.08007   0.70956   0.11213   0.00000  Uiso   1.00
C215   C     0.12483   0.73073   0.04583   0.00000  Uiso   1.00
C216   C     0.22157   0.82085   0.38665   0.00000  Uiso   1.00
C217   C     0.19109   0.78286   0.45278   0.00000  Uiso   1.00
C218   C     0.12524   0.73102   0.09531   0.00000  Uiso   1.00
C219   C     0.19180   0.78338   0.40351   0.00000  Uiso   1.00
C220   C     0.20855   0.76757   0.10850   0.00000  Uiso   1.00
C221   C     0.14156   0.71599   0.39304   0.00000  Uiso   1.00
C222   C     0.20998   0.76658   0.05919   0.00000  Uiso   1.00
H223   H     0.32412   0.74967   0.19443   0.00000  Uiso   1.00
H224   H     0.16844   0.97360   0.32368   0.00000  Uiso   1.00
H225   H     0.09104   0.71665   0.02238   0.00000  Uiso   1.00
H226   H     0.21015   0.80992   0.47510   0.00000  Uiso   1.00
H227   H     0.24141   0.78210   0.13259   0.00000  Uiso   1.00
H228   H     0.12181   0.68976   0.37004   0.00000  Uiso   1.00
H229   H     0.24454   0.77991   0.04681   0.00000  Uiso   1.00
H230   H     0.12203   0.68613   0.45647   0.00000  Uiso   1.00
H231   H     0.00129   0.70657   0.10886   0.00000  Uiso   1.00
H232   H     0.24341   0.88595   0.39497   0.00000  Uiso   1.00
H233   H     0.00922   0.75010   0.30553   0.00000  Uiso   1.00
H234   H     0.10683   0.53272   0.30436   0.00000  Uiso   1.00
H235   H     0.12945   0.96687   0.17018   0.00000  Uiso   1.00
H236   H     0.11698   0.61381   0.30721   0.00000  Uiso   1.00
H237   H     0.13911   0.88638   0.17204   0.00000  Uiso   1.00
H238   H     0.20172   0.60794   0.18802   0.00000  Uiso   1.00
H239   H     0.17498   0.89287   0.32565   0.00000  Uiso   1.00
H240   H     0.19378   0.52677   0.18650   0.00000  Uiso   1.00
N241   N     0.16667   0.74999   0.12623   0.00000  Uiso   1.00
N242   N     0.16667   0.75001   0.37376   0.00000  Uiso   1.00
O243   O     0.16667   0.68453   0.28974   0.00000  Uiso   1.00
O244   O     0.02929   0.72414   0.09536   0.00000  Uiso   1.00
O245   O     0.25171   0.81441   0.35850   0.00000  Uiso   1.00
O246   O     0.21893   0.86345   0.40688   0.00000  Uiso   1.00
O247   O     0.16666   0.81546   0.21026   0.00000  Uiso   1.00
O248   O     0.16667   0.68453   0.21026   0.00000  Uiso   1.00
O249   O     0.16666   0.81547   0.28974   0.00000  Uiso   1.00
O250   O     0.09058   0.75000   0.28044   0.00000  Uiso   1.00
O251   O     0.24275   0.75000   0.21955   0.00000  Uiso   1.00
O252   O     0.09058   0.74999   0.20096   0.00000  Uiso   1.00
O253   O     0.24275   0.75000   0.29903   0.00000  Uiso   1.00
O254   O     0.08664   0.67774   0.13863   0.00000  Uiso   1.00
Zn255  Zn    0.16667   0.75000   0.30307   0.00000  Uiso   1.00
Zn256  Zn    0.16667   0.74999   0.19693   0.00000  Uiso   1.00
C257   C     0.49915   0.66394   0.24958   0.00000  Uiso   1.00
C258   C     0.47473   0.71419   0.44259   0.00000  Uiso   1.00
C259   C     0.50083   0.74807   0.02674   0.00000  Uiso   1.00
C260   C     0.50010   0.74799   0.47350   0.00000  Uiso   1.00
C261   C     0.40032   0.74990   0.23743   0.00000  Uiso   1.00
C262   C     0.59967   0.75001   0.26256   0.00000  Uiso   1.00
C263   C     0.34513   0.74982   0.23076   0.00000  Uiso   1.00
C264   C     0.65486   0.74997   0.26920   0.00000  Uiso   1.00
C265   C     0.46116   0.54893   0.27908   0.00000  Uiso   1.00
C266   C     0.47314   0.95088   0.20421   0.00000  Uiso   1.00
C267   C     0.46710   0.59488   0.28080   0.00000  Uiso   1.00
C268   C     0.49864   0.83616   0.25000   0.00000  Uiso   1.00
C269   C     0.47880   0.90512   0.20536   0.00000  Uiso   1.00
C270   C     0.49398   0.61611   0.24817   0.00000  Uiso   1.00
C271   C     0.49255   0.88402   0.24911   0.00000  Uiso   1.00
C272   C     0.51428   0.59161   0.21340   0.00000  Uiso   1.00
C273   C     0.49888   0.90877   0.29168   0.00000  Uiso   1.00
C274   C     0.50920   0.54560   0.21224   0.00000  Uiso   1.00
C275   C     0.49420   0.95464   0.29052   0.00000  Uiso   1.00
C276   C     0.48295   0.52415   0.24530   0.00000  Uiso   1.00
C277   C     0.48203   0.97584   0.24671   0.00000  Uiso   1.00
C278   C     0.41341   0.70956   0.11213   0.00000  Uiso   1.00
C279   C     0.45817   0.73073   0.04583   0.00000  Uiso   1.00
C280   C     0.55490   0.82085   0.38665   0.00000  Uiso   1.00
C281   C     0.52443   0.78286   0.45278   0.00000  Uiso   1.00
C282   C     0.45858   0.73102   0.09531   0.00000  Uiso   1.00
C283   C     0.52514   0.78338   0.40351   0.00000  Uiso   1.00
C284   C     0.54188   0.76757   0.10850   0.00000  Uiso   1.00
C285   C     0.47489   0.71599   0.39304   0.00000  Uiso   1.00
C286   C     0.54331   0.76658   0.05919   0.00000  Uiso   1.00
H287   H     0.65745   0.74967   0.19443   0.00000  Uiso   1.00
H288   H     0.50177   0.97360   0.32368   0.00000  Uiso   1.00
H289   H     0.42438   0.71665   0.02238   0.00000  Uiso   1.00
H290   H     0.54348   0.80992   0.47510   0.00000  Uiso   1.00
H291   H     0.57474   0.78210   0.13259   0.00000  Uiso   1.00
H292   H     0.45514   0.68976   0.37004   0.00000  Uiso   1.00
H293   H     0.57788   0.77991   0.04681   0.00000  Uiso   1.00
H294   H     0.45537   0.68613   0.45647   0.00000  Uiso   1.00
H295   H     0.33462   0.70657   0.10886   0.00000  Uiso   1.00
H296   H     0.57674   0.88595   0.39497   0.00000  Uiso   1.00
H297   H     0.34256   0.75010   0.30553   0.00000  Uiso   1.00
H298   H     0.44016   0.53272   0.30436   0.00000  Uiso   1.00
H299   H     0.46278   0.96687   0.17018   0.00000  Uiso   1.00
H300   H     0.45032   0.61381   0.30721   0.00000  Uiso   1.00
H301   H     0.47244   0.88638   0.17204   0.00000  Uiso   1.00
H302   H     0.53506   0.60794   0.18802   0.00000  Uiso   1.00
H303   H     0.50832   0.89287   0.32565   0.00000  Uiso   1.00
H304   H     0.52711   0.52677   0.18650   0.00000  Uiso   1.00
N305   N     0.50000   0.74999   0.12623   0.00000  Uiso   1.00
N306   N     0.50000   0.75001   0.37376   0.00000  Uiso   1.00
O307   O     0.50000   0.68453   0.28974   0.00000  Uiso   1.00
O308   O     0.36262   0.72414   0.09536   0.00000  Uiso   1.00
O309   O     0.58505   0.81441   0.35850   0.00000  Uiso   1.00
O310   O     0.55226   0.86345   0.40688   0.00000  Uiso   1.00
O311   O     0.50000   0.81546   0.21026   0.00000  Uiso   1.00
O312   O     0.50000   0.68453   0.21026   0.00000  Uiso   1.00
O313   O     0.50000   0.81547   0.28974   0.00000  Uiso   1.00
O314   O     0.42392   0.75000   0.28044   0.00000  Uiso   1.00
O315   O     0.57608   0.75000   0.21955   0.00000  Uiso   1.00
O316   O     0.42392   0.74999   0.20096   0.00000  Uiso   1.00
O317   O     0.57608   0.75000   0.29903   0.00000  Uiso   1.00
O318   O     0.41998   0.67774   0.13863   0.00000  Uiso   1.00
Zn319  Zn    0.50000   0.75000   0.30307   0.00000  Uiso   1.00
Zn320  Zn    0.50000   0.74999   0.19693   0.00000  Uiso   1.00
C321   C     0.83249   0.66394   0.24958   0.00000  Uiso   1.00
C322   C     0.80806   0.71419   0.44259   0.00000  Uiso   1.00
C323   C     0.83417   0.74807   0.02674   0.00000  Uiso   1.00
C324   C     0.83343   0.74799   0.47350   0.00000  Uiso   1.00
C325   C     0.73366   0.74990   0.23743   0.00000  Uiso   1.00
C326   C     0.93301   0.75001   0.26256   0.00000  Uiso   1.00
C327   C     0.67847   0.74982   0.23076   0.00000  Uiso   1.00
C328   C     0.98820   0.74997   0.26920   0.00000  Uiso   1.00
C329   C     0.79449   0.54893   0.27908   0.00000  Uiso   1.00
C330   C     0.80647   0.95088   0.20421   0.00000  Uiso   1.00
C331   C     0.80044   0.59488   0.28080   0.00000  Uiso   1.00
C332   C     0.83198   0.83616   0.25000   0.00000  Uiso   1.00
C333   C     0.81213   0.90512   0.20536   0.00000  Uiso   1.00
C334   C     0.82732   0.61611   0.24817   0.00000  Uiso   1.00
C335   C     0.82589   0.88402   0.24911   0.00000  Uiso   1.00
C336   C     0.84761   0.59161   0.21340   0.00000  Uiso   1.00
C337   C     0.83221   0.90877   0.29168   0.00000  Uiso   1.00
C338   C     0.84254   0.54560   0.21224   0.00000  Uiso   1.00
C339   C     0.82753   0.95464   0.29052   0.00000  Uiso   1.00
C340   C     0.81628   0.52415   0.24530   0.00000  Uiso   1.00
C341   C     0.81536   0.97584   0.24671   0.00000  Uiso   1.00
C342   C     0.74674   0.70956   0.11213   0.00000  Uiso   1.00
C343   C     0.79150   0.73073   0.04583   0.00000  Uiso   1.00
C344   C     0.88824   0.82085   0.38665   0.00000  Uiso   1.00
C345   C     0.85776   0.78286   0.45278   0.00000  Uiso   1.00
C346   C     0.79191   0.73102   0.09531   0.00000  Uiso   1.00
C347   C     0.85847   0.78338   0.40351   0.00000  Uiso   1.00
C348   C     0.87521   0.76757   0.10850   0.00000  Uiso   1.00
C349   C     0.80822   0.71599   0.39304   0.00000  Uiso   1.00
C350   C     0.87664   0.76658   0.05919   0.00000  Uiso   1.00
H351   H     0.99079   0.74967   0.19443   0.00000  Uiso   1.00
H352   H     0.83510   0.97360   0.32368   0.00000  Uiso   1.00
H353   H     0.75771   0.71665   0.02238   0.00000  Uiso   1.00
H354   H     0.87681   0.80992   0.47510   0.00000  Uiso   1.00
H355   H     0.90808   0.78210   0.13259   0.00000  Uiso   1.00
H356   H     0.78848   0.68976   0.37004   0.00000  Uiso   1.00
H357   H     0.91121   0.77991   0.04681   0.00000  Uiso   1.00
H358   H     0.78870   0.68613   0.45647   0.00000  Uiso   1.00
H359   H     0.66795   0.70657   0.10886   0.00000  Uiso   1.00
H360   H     0.91007   0.88595   0.39497   0.00000  Uiso   1.00
H361   H     0.67589   0.75010   0.30553   0.00000  Uiso   1.00
H362   H     0.77350   0.53272   0.30436   0.00000  Uiso   1.00
H363   H     0.79611   0.96687   0.17018   0.00000  Uiso   1.00
H364   H     0.78365   0.61381   0.30721   0.00000  Uiso   1.00
H365   H     0.80577   0.88638   0.17204   0.00000  Uiso   1.00
H366   H     0.86839   0.60794   0.18802   0.00000  Uiso   1.00
H367   H     0.84165   0.89287   0.32565   0.00000  Uiso   1.00
H368   H     0.86044   0.52677   0.18650   0.00000  Uiso   1.00
N369   N     0.83333   0.74999   0.12623   0.00000  Uiso   1.00
N370   N     0.83333   0.75001   0.37376   0.00000  Uiso   1.00
O371   O     0.83334   0.68453   0.28974   0.00000  Uiso   1.00
O372   O     0.69595   0.72414   0.09536   0.00000  Uiso   1.00
O373   O     0.91838   0.81441   0.35850   0.00000  Uiso   1.00
O374   O     0.88559   0.86345   0.40688   0.00000  Uiso   1.00
O375   O     0.83333   0.81546   0.21026   0.00000  Uiso   1.00
O376   O     0.83334   0.68453   0.21026   0.00000  Uiso   1.00
O377   O     0.83333   0.81547   0.28974   0.00000  Uiso   1.00
O378   O     0.75725   0.75000   0.28044   0.00000  Uiso   1.00
O379   O     0.90942   0.75000   0.21955   0.00000  Uiso   1.00
O380   O     0.75725   0.74999   0.20096   0.00000  Uiso   1.00
O381   O     0.90942   0.75000   0.29903   0.00000  Uiso   1.00
O382   O     0.75331   0.67774   0.13863   0.00000  Uiso   1.00
Zn383  Zn    0.83333   0.75000   0.30307   0.00000  Uiso   1.00
Zn384  Zn    0.83333   0.74999   0.19693   0.00000  Uiso   1.00
C385   C     0.16582   0.16394   0.74958   0.00000  Uiso   1.00
C386   C     0.14139   0.21419   0.94259   0.00000  Uiso   1.00
C387   C     0.16750   0.24807   0.52674   0.00000  Uiso   1.00
C388   C     0.16677   0.24799   0.97350   0.00000  Uiso   1.00
C389   C     0.06699   0.24990   0.73743   0.00000  Uiso   1.00
C390   C     0.26634   0.25001   0.76256   0.00000  Uiso   1.00
C391   C     0.01180   0.24982   0.73076   0.00000  Uiso   1.00
C392   C     0.32153   0.24997   0.76920   0.00000  Uiso   1.00
C393   C     0.12783   0.04893   0.77908   0.00000  Uiso   1.00
C394   C     0.13981   0.45088   0.70421   0.00000  Uiso   1.00
C395   C     0.13377   0.09488   0.78080   0.00000  Uiso   1.00
C396   C     0.16531   0.33616   0.75000   0.00000  Uiso   1.00
C397   C     0.14547   0.40512   0.70536   0.00000  Uiso   1.00
C398   C     0.16065   0.11611   0.74817   0.00000  Uiso   1.00
C399   C     0.15922   0.38402   0.74911   0.00000  Uiso   1.00
C400   C     0.18095   0.09161   0.71340   0.00000  Uiso   1.00
C401   C     0.16555   0.40877   0.79168   0.00000  Uiso   1.00
C402   C     0.17587   0.04560   0.71224   0.00000  Uiso   1.00
C403   C     0.16087   0.45464   0.79052   0.00000  Uiso   1.00
C404   C     0.14961   0.02415   0.74530   0.00000  Uiso   1.00
C405   C     0.14869   0.47584   0.74671   0.00000  Uiso   1.00
C406   C     0.08007   0.20956   0.61213   0.00000  Uiso   1.00
C407   C     0.12483   0.23073   0.54583   0.00000  Uiso   1.00
C408   C     0.22157   0.32085   0.88665   0.00000  Uiso   1.00
C409   C     0.19109   0.28286   0.95278   0.00000  Uiso   1.00
C410   C     0.12524   0.23102   0.59531   0.00000  Uiso   1.00
C411   C     0.19180   0.28338   0.90351   0.00000  Uiso   1.00
C412   C     0.20855   0.26757   0.60850   0.00000  Uiso   1.00
C413   C     0.14156   0.21599   0.89304   0.00000  Uiso   1.00
C414   C     0.20998   0.26658   0.55919   0.00000  Uiso   1.00
H415   H     0.32412   0.24967   0.69443   0.00000  Uiso   1.00
H416   H     0.16844   0.47360   0.82368   0.00000  Uiso   1.00
H417   H     0.09104   0.21665   0.52238   0.00000  Uiso   1.00
H418   H     0.21015   0.30992   0.97510   0.00000  Uiso   1.00
H419   H     0.24141   0.28210   0.63259   0.00000  Uiso   1.00
H420   H     0.12181   0.18976   0.87004   0.00000  Uiso   1.00
H421   H     0.24454   0.27991   0.54681   0.00000  Uiso   1.00
H422   H     0.12203   0.18613   0.95647   0.00000  Uiso   1.00
H423   H     0.00129   0.20657   0.60886   0.00000  Uiso   1.00
H424   H     0.24341   0.38595   0.89497   0.00000  Uiso   1.00
H425   H     0.00922   0.25010   0.80553   0.00000  Uiso   1.00
H426   H     0.10683   0.03272   0.80436   0.00000  Uiso   1.00
H427   H     0.12945   0.46687   0.67018   0.00000  Uiso   1.00
H428   H     0.11698   0.11381   0.80721   0.00000  Uiso   1.00
H429   H     0.13911   0.38638   0.67204   0.00000  Uiso   1.00
H430   H     0.20172   0.10794   0.68802   0.00000  Uiso   1.00
H431   H     0.17498   0.39287   0.82565   0.00000  Uiso   1.00
H432   H     0.19378   0.02677   0.68650   0.00000  Uiso   1.00
N433   N     0.16667   0.24999   0.62623   0.00000  Uiso   1.00
N434   N     0.16667   0.25001   0.87376   0.00000  Uiso   1.00
O435   O     0.16667   0.18453   0.78974   0.00000  Uiso   1.00
O436   O     0.02929   0.22414   0.59536   0.00000  Uiso   1.00
O437   O     0.25171   0.31441   0.85850   0.00000  Uiso   1.00
O438   O     0.21893   0.36345   0.90688   0.00000  Uiso   1.00
O439   O     0.16666   0.31546   0.71026   0.00000  Uiso   1.00
O440   O     0.16667   0.18453   0.71026   0.00000  Uiso   1.00
O441   O     0.16666   0.31547   0.78974   0.00000  Uiso   1.00
O442   O     0.09058   0.25000   0.78044   0.00000  Uiso   1.00
O443   O     0.24275   0.25000   0.71955   0.00000  Uiso   1.00
O444   O     0.09058   0.24999   0.70096   0.00000  Uiso   1.00
O445   O     0.24275   0.25000   0.79903   0.00000  Uiso   1.00
O446   O     0.08664   0.17774   0.63863   0.00000  Uiso   1.00
Zn447  Zn    0.16667   0.25000   0.80307   0.00000  Uiso   1.00
Zn448  Zn    0.16667   0.24999   0.69693   0.00000  Uiso   1.00
C449   C     0.49915   0.16394   0.74958   0.00000  Uiso   1.00
C450   C     0.47473   0.21419   0.94259   0.00000  Uiso   1.00
C451   C     0.50083   0.24807   0.52674   0.00000  Uiso   1.00
C452   C     0.50010   0.24799   0.97350   0.00000  Uiso   1.00
C453   C     0.40032   0.24990   0.73743   0.00000  Uiso   1.00
C454   C     0.59967   0.25001   0.76256   0.00000  Uiso   1.00
C455   C     0.34513   0.24982   0.73076   0.00000  Uiso   1.00
C456   C     0.65486   0.24997   0.76920   0.00000  Uiso   1.00
C457   C     0.46116   0.04893   0.77908   0.00000  Uiso   1.00
C458   C     0.47314   0.45088   0.70421   0.00000  Uiso   1.00
C459   C     0.46710   0.09488   0.78080   0.00000  Uiso   1.00
C460   C     0.49864   0.33616   0.75000   0.00000  Uiso   1.00
C461   C     0.47880   0.40512   0.70536   0.00000  Uiso   1.00
C462   C     0.49398   0.11611   0.74817   0.00000  Uiso   1.00
C463   C     0.49255   0.38402   0.74911   0.00000  Uiso   1.00
C464   C     0.51428   0.09161   0.71340   0.00000  Uiso   1.00
C465   C     0.49888   0.40877   0.79168   0.00000  Uiso   1.00
C466   C     0.50920   0.04560   0.71224   0.00000  Uiso   1.00
C467   C     0.49420   0.45464   0.79052   0.00000  Uiso   1.00
C468   C     0.48295   0.02415   0.74530   0.00000  Uiso   1.00
C469   C     0.48203   0.47584   0.74671   0.00000  Uiso   1.00
C470   C     0.41341   0.20956   0.61213   0.00000  Uiso   1.00
C471   C     0.45817   0.23073   0.54583   0.00000  Uiso   1.00
C472   C     0.55490   0.32085   0.88665   0.00000  Uiso   1.00
C473   C     0.52443   0.28286   0.95278   0.00000  Uiso   1.00
C474   C     0.45858   0.23102   0.59531   0.00000  Uiso   1.00
C475   C     0.52514   0.28338   0.90351   0.00000  Uiso   1.00
C476   C     0.54188   0.26757   0.60850   0.00000  Uiso   1.00
C477   C     0.47489   0.21599   0.89304   0.00000  Uiso   1.00
C478   C     0.54331   0.26658   0.55919   0.00000  Uiso   1.00
H479   H     0.65745   0.24967   0.69443   0.00000  Uiso   1.00
H480   H     0.50177   0.47360   0.82368   0.00000  Uiso   1.00
H481   H     0.42438   0.21665   0.52238   0.00000  Uiso   1.00
H482   H     0.54348   0.30992   0.97510   0.00000  Uiso   1.00
H483   H     0.57474   0.28210   0.63259   0.00000  Uiso   1.00
H484   H     0.45514   0.18976   0.87004   0.00000  Uiso   1.00
H485   H     0.57788   0.27991   0.54681   0.00000  Uiso   1.00
H486   H     0.45537   0.18613   0.95647   0.00000  Uiso   1.00
H487   H     0.33462   0.20657   0.60886   0.00000  Uiso   1.00
H488   H     0.57674   0.38595   0.89497   0.00000  Uiso   1.00
H489   H     0.34256   0.25010   0.80553   0.00000  Uiso   1.00
H490   H     0.44016   0.03272   0.80436   0.00000  Uiso   1.00
H491   H     0.46278   0.46687   0.67018   0.00000  Uiso   1.00
H492   H     0.45032   0.11381   0.80721   0.00000  Uiso   1.00
H493   H     0.47244   0.38638   0.67204   0.00000  Uiso   1.00
H494   H     0.53506   0.10794   0.68802   0.00000  Uiso   1.00
H495   H     0.50832   0.39287   0.82565   0.00000  Uiso   1.00
H496   H     0.52711   0.02677   0.68650   0.00000  Uiso   1.00
N497   N     0.50000   0.24999   0.62623   0.00000  Uiso   1.00
N498   N     0.50000   0.25001   0.87376   0.00000  Uiso   1.00
O499   O     0.50000   0.18453   0.78974   0.00000  Uiso   1.00
O500   O     0.36262   0.22414   0.59536   0.00000  Uiso   1.00
O501   O     0.58505   0.31441   0.85850   0.00000  Uiso   1.00
O502   O     0.55226   0.36345   0.90688   0.00000  Uiso   1.00
O503   O     0.50000   0.31546   0.71026   0.00000  Uiso   1.00
O504   O     0.50000   0.18453   0.71026   0.00000  Uiso   1.00
O505   O     0.50000   0.31547   0.78974   0.00000  Uiso   1.00
O506   O     0.42392   0.25000   0.78044   0.00000  Uiso   1.00
O507   O     0.57608   0.25000   0.71955   0.00000  Uiso   1.00
O508   O     0.42392   0.24999   0.70096   0.00000  Uiso   1.00
O509   O     0.57608   0.25000   0.79903   0.00000  Uiso   1.00
O510   O     0.41998   0.17774   0.63863   0.00000  Uiso   1.00
Zn511  Zn    0.50000   0.25000   0.80307   0.00000  Uiso   1.00
Zn512  Zn    0.50000   0.24999   0.69693   0.00000  Uiso   1.00
C513   C     0.83249   0.16394   0.74958   0.00000  Uiso   1.00
C514   C     0.80806   0.21419   0.94259   0.00000  Uiso   1.00
C515   C     0.83417   0.24807   0.52674   0.00000  Uiso   1.00
C516   C     0.83343   0.24799   0.97350   0.00000  Uiso   1.00
C517   C     0.73366   0.24990   0.73743   0.00000  Uiso   1.00
C518   C     0.93301   0.25001   0.76256   0.00000  Uiso   1.00
C519   C     0.67847   0.24982   0.73076   0.00000  Uiso   1.00
C520   C     0.98820   0.24997   0.76920   0.00000  Uiso   1.00
C521   C     0.79449   0.04893   0.77908   0.00000  Uiso   1.00
C522   C     0.80647   0.45088   0.70421   0.00000  Uiso   1.00
C523   C     0.80044   0.09488   0.78080   0.00000  Uiso   1.00
C524   C     0.83198   0.33616   0.75000   0.00000  Uiso   1.00
C525   C     0.81213   0.40512   0.70536   0.00000  Uiso   1.00
C526   C     0.82732   0.11611   0.74817   0.00000  Uiso   1.00
C527   C     0.82589   0.38402   0.74911   0.00000  Uiso   1.00
C528   C     0.84761   0.09161   0.71340   0.00000  Uiso   1.00
C529   C     0.83221   0.40877   0.79168   0.00000  Uiso   1.00
C530   C     0.84254   0.04560   0.71224   0.00000  Uiso   1.00
C531   C     0.82753   0.45464   0.79052   0.00000  Uiso   1.00
C532   C     0.81628   0.02415   0.74530   0.00000  Uiso   1.00
C533   C     0.81536   0.47584   0.74671   0.00000  Uiso   1.00
C534   C     0.74674   0.20956   0.61213   0.00000  Uiso   1.00
C535   C     0.79150   0.23073   0.54583   0.00000  Uiso   1.00
C536   C     0.88824   0.32085   0.88665   0.00000  Uiso   1.00
C537   C     0.85776   0.28286   0.95278   0.00000  Uiso   1.00
C538   C     0.79191   0.23102   0.59531   0.00000  Uiso   1.00
C539   C     0.85847   0.28338   0.90351   0.00000  Uiso   1.00
C540   C     0.87521   0.26757   0.60850   0.00000  Uiso   1.00
C541   C     0.80822   0.21599   0.89304   0.00000  Uiso   1.00
C542   C     0.87664   0.26658   0.55919   0.00000  Uiso   1.00
H543   H     0.99079   0.24967   0.69443   0.00000  Uiso   1.00
H544   H     0.83510   0.47360   0.82368   0.00000  Uiso   1.00
H545   H     0.75771   0.21665   0.52238   0.00000  Uiso   1.00
H546   H     0.87681   0.30992   0.97510   0.00000  Uiso   1.00
H547   H     0.90808   0.28210   0.63259   0.00000  Uiso   1.00
H548   H     0.78848   0.18976   0.87004   0.00000  Uiso   1.00
H549   H     0.91121   0.27991   0.54681   0.00000  Uiso   1.00
H550   H     0.78870   0.18613   0.95647   0.00000  Uiso   1.00
H551   H     0.66795   0.20657   0.60886   0.00000  Uiso   1.00
H552   H     0.91007   0.38595   0.89497   0.00000  Uiso   1.00
H553   H     0.67589   0.25010   0.80553   0.00000  Uiso   1.00
H554   H     0.77350   0.03272   0.80436   0.00000  Uiso   1.00
H555   H     0.79611   0.46687   0.67018   0.00000  Uiso   1.00
H556   H     0.78365   0.11381   0.80721   0.00000  Uiso   1.00
H557   H     0.80577   0.38638   0.67204   0.00000  Uiso   1.00
H558   H     0.86839   0.10794   0.68802   0.00000  Uiso   1.00
H559   H     0.84165   0.39287   0.82565   0.00000  Uiso   1.00
H560   H     0.86044   0.02677   0.68650   0.00000  Uiso   1.00
N561   N     0.83333   0.24999   0.62623   0.00000  Uiso   1.00
N562   N     0.83333   0.25001   0.87376   0.00000  Uiso   1.00
O563   O     0.83334   0.18453   0.78974   0.00000  Uiso   1.00
O564   O     0.69595   0.22414   0.59536   0.00000  Uiso   1.00
O565   O     0.91838   0.31441   0.85850   0.00000  Uiso   1.00
O566   O     0.88559   0.36345   0.90688   0.00000  Uiso   1.00
O567   O     0.83333   0.31546   0.71026   0.00000  Uiso   1.00
O568   O     0.83334   0.18453   0.71026   0.00000  Uiso   1.00
O569   O     0.83333   0.31547   0.78974   0.00000  Uiso   1.00
O570   O     0.75725   0.25000   0.78044   0.00000  Uiso   1.00
O571   O     0.90942   0.25000   0.71955   0.00000  Uiso   1.00
O572   O     0.75725   0.24999   0.70096   0.00000  Uiso   1.00
O573   O     0.90942   0.25000   0.79903   0.00000  Uiso   1.00
O574   O     0.75331   0.17774   0.63863   0.00000  Uiso   1.00
Zn575  Zn    0.83333   0.25000   0.80307   0.00000  Uiso   1.00
Zn576  Zn    0.83333   0.24999   0.69693   0.00000  Uiso   1.00
C577   C     0.16582   0.66394   0.74958   0.00000  Uiso   1.00
C578   C     0.14139   0.71419   0.94259   0.00000  Uiso   1.00
C579   C     0.16750   0.74807   0.52674   0.00000  Uiso   1.00
C580   C     0.16677   0.74799   0.97350   0.00000  Uiso   1.00
C581   C     0.06699   0.74990   0.73743   0.00000  Uiso   1.00
C582   C     0.26634   0.75001   0.76256   0.00000  Uiso   1.00
C583   C     0.01180   0.74982   0.73076   0.00000  Uiso   1.00
C584   C     0.32153   0.74997   0.76920   0.00000  Uiso   1.00
C585   C     0.12783   0.54893   0.77908   0.00000  Uiso   1.00
C586   C     0.13981   0.95088   0.70421   0.00000  Uiso   1.00
C587   C     0.13377   0.59488   0.78080   0.00000  Uiso   1.00
C588   C     0.16531   0.83616   0.75000   0.00000  Uiso   1.00
C589   C     0.14547   0.90512   0.70536   0.00000  Uiso   1.00
C590   C     0.16065   0.61611   0.74817   0.00000  Uiso   1.00
C591   C     0.15922   0.88402   0.74911   0.00000  Uiso   1.00
C592   C     0.18095   0.59161   0.71340   0.00000  Uiso   1.00
C593   C     0.16555   0.90877   0.79168   0.00000  Uiso   1.00
C594   C     0.17587   0.54560   0.71224   0.00000  Uiso   1.00
C595   C     0.16087   0.95464   0.79052   0.00000  Uiso   1.00
C596   C     0.14961   0.52415   0.74530   0.00000  Uiso   1.00
C597   C     0.14869   0.97584   0.74671   0.00000  Uiso   1.00
C598   C     0.08007   0.70956   0.61213   0.00000  Uiso   1.00
C599   C     0.12483   0.73073   0.54583   0.00000  Uiso   1.00
C600   C     0.22157   0.82085   0.88665   0.00000  Uiso   1.00
C601   C     0.19109   0.78286   0.95278   0.00000  Uiso   1.00
C602   C     0.12524   0.73102   0.59531   0.00000  Uiso   1.00
C603   C     0.19180   0.78338   0.90351   0.00000  Uiso   1.00
C604   C     0.20855   0.76757   0.60850   0.00000  Uiso   1.00
C605   C     0.14156   0.71599   0.89304   0.00000  Uiso   1.00
C606   C     0.20998   0.76658   0.55919   0.00000  Uiso   1.00
H607   H     0.32412   0.74967   0.69443   0.00000  Uiso   1.00
H608   H     0.16844   0.97360   0.82368   0.00000  Uiso   1.00
H609   H     0.09104   0.71665   0.52238   0.00000  Uiso   1.00
H610   H     0.21015   0.80992   0.97510   0.00000  Uiso   1.00
H611   H     0.24141   0.78210   0.63259   0.00000  Uiso   1.00
H612   H     0.12181   0.68976   0.87004   0.00000  Uiso   1.00
H613   H     0.24454   0.77991   0.54681   0.00000  Uiso   1.00
H614   H     0.12203   0.68613   0.95647   0.00000  Uiso   1.00
H615   H     0.00129   0.70657   0.60886   0.00000  Uiso   1.00
H616   H     0.24341   0.88595   0.89497   0.00000  Uiso   1.00
H617   H     0.00922   0.75010   0.80553   0.00000  Uiso   1.00
H618   H     0.10683   0.53272   0.80436   0.00000  Uiso   1.00
H619   H     0.12945   0.96687   0.67018   0.00000  Uiso   1.00
H620   H     0.11698   0.61381   0.80721   0.00000  Uiso   1.00
H621   H     0.13911   0.88638   0.67204   0.00000  Uiso   1.00
H622   H     0.20172   0.60794   0.68802   0.00000  Uiso   1.00
H623   H     0.17498   0.89287   0.82565   0.00000  Uiso   1.00
H624   H     0.19378   0.52677   0.68650   0.00000  Uiso   1.00
N625   N     0.16667   0.74999   0.62623   0.00000  Uiso   1.00
N626   N     0.16667   0.75001   0.87376   0.00000  Uiso   1.00
O627   O     0.16667   0.68453   0.78974   0.00000  Uiso   1.00
O628   O     0.02929   0.72414   0.59536   0.00000  Uiso   1.00
O629   O     0.25171   0.81441   0.85850   0.00000  Uiso   1.00
O630   O     0.21893   0.86345   0.90688   0.00000  Uiso   1.00
O631   O     0.16666   0.81546   0.71026   0.00000  Uiso   1.00
O632   O     0.16667   0.68453   0.71026   0.00000  Uiso   1.00
O633   O     0.16666   0.81547   0.78974   0.00000  Uiso   1.00
O634   O     0.09058   0.75000   0.78044   0.00000  Uiso   1.00
O635   O     0.24275   0.75000   0.71955   0.00000  Uiso   1.00
O636   O     0.09058   0.74999   0.70096   0.00000  Uiso   1.00
O637   O     0.24275   0.75000   0.79903   0.00000  Uiso   1.00
O638   O     0.08664   0.67774   0.63863   0.00000  Uiso   1.00
Zn639  Zn    0.16667   0.75000   0.80307   0.00000  Uiso   1.00
Zn640  Zn    0.16667   0.74999   0.69693   0.00000  Uiso   1.00
C641   C     0.49915   0.66394   0.74958   0.00000  Uiso   1.00
C642   C     0.47473   0.71419   0.94259   0.00000  Uiso   1.00
C643   C     0.50083   0.74807   0.52674   0.00000  Uiso   1.00
C644   C     0.50010   0.74799   0.97350   0.00000  Uiso   1.00
C645   C     0.40032   0.74990   0.73743   0.00000  Uiso   1.00
C646   C     0.59967   0.75001   0.76256   0.00000  Uiso   1.00
C647   C     0.34513   0.74982   0.73076   0.00000  Uiso   1.00
C648   C     0.65486   0.74997   0.76920   0.00000  Uiso   1.00
C649   C     0.46116   0.54893   0.77908   0.00000  Uiso   1.00
C650   C     0.47314   0.95088   0.70421   0.00000  Uiso   1.00
C651   C     0.46710   0.59488   0.78080   0.00000  Uiso   1.00
C652   C     0.49864   0.83616   0.75000   0.00000  Uiso   1.00
C653   C     0.47880   0.90512   0.70536   0.00000  Uiso   1.00
C654   C     0.49398   0.61611   0.74817   0.00000  Uiso   1.00
C655   C     0.49255   0.88402   0.74911   0.00000  Uiso   1.00
C656   C     0.51428   0.59161   0.71340   0.00000  Uiso   1.00
C657   C     0.49888   0.90877   0.79168   0.00000  Uiso   1.00
C658   C     0.50920   0.54560   0.71224   0.00000  Uiso   1.00
C659   C     0.49420   0.95464   0.79052   0.00000  Uiso   1.00
C660   C     0.48295   0.52415   0.74530   0.00000  Uiso   1.00
C661   C     0.48203   0.97584   0.74671   0.00000  Uiso   1.00
C662   C     0.41341   0.70956   0.61213   0.00000  Uiso   1.00
C663   C     0.45817   0.73073   0.54583   0.00000  Uiso   1.00
C664   C     0.55490   0.82085   0.88665   0.00000  Uiso   1.00
C665   C     0.52443   0.78286   0.95278   0.00000  Uiso   1.00
C666   C     0.45858   0.73102   0.59531   0.00000  Uiso   1.00
C667   C     0.52514   0.78338   0.90351   0.00000  Uiso   1.00
C668   C     0.54188   0.76757   0.60850   0.00000  Uiso   1.00
C669   C     0.47489   0.71599   0.89304   0.00000  Uiso   1.00
C670   C     0.54331   0.76658   0.55919   0.00000  Uiso   1.00
H671   H     0.65745   0.74967   0.69443   0.00000  Uiso   1.00
H672   H     0.50177   0.97360   0.82368   0.00000  Uiso   1.00
H673   H     0.42438   0.71665   0.52238   0.00000  Uiso   1.00
H674   H     0.54348   0.80992   0.97510   0.00000  Uiso   1.00
H675   H     0.57474   0.78210   0.63259   0.00000  Uiso   1.00
H676   H     0.45514   0.68976   0.87004   0.00000  Uiso   1.00
H677   H     0.57788   0.77991   0.54681   0.00000  Uiso   1.00
H678   H     0.45537   0.68613   0.95647   0.00000  Uiso   1.00
H679   H     0.33462   0.70657   0.60886   0.00000  Uiso   1.00
H680   H     0.57674   0.88595   0.89497   0.00000  Uiso   1.00
H681   H     0.34256   0.75010   0.80553   0.00000  Uiso   1.00
H682   H     0.44016   0.53272   0.80436   0.00000  Uiso   1.00
H683   H     0.46278   0.96687   0.67018   0.00000  Uiso   1.00
H684   H     0.45032   0.61381   0.80721   0.00000  Uiso   1.00
H685   H     0.47244   0.88638   0.67204   0.00000  Uiso   1.00
H686   H     0.53506   0.60794   0.68802   0.00000  Uiso   1.00
H687   H     0.50832   0.89287   0.82565   0.00000  Uiso   1.00
H688   H     0.52711   0.52677   0.68650   0.00000  Uiso   1.00
N689   N     0.50000   0.74999   0.62623   0.00000  Uiso   1.00
N690   N     0.50000   0.75001   0.87376   0.00000  Uiso   1.00
O691   O     0.50000   0.68453   0.78974   0.00000  Uiso   1.00
O692   O     0.36262   0.72414   0.59536   0.00000  Uiso   1.00
O693   O     0.58505   0.81441   0.85850   0.00000  Uiso   1.00
O694   O     0.55226   0.86345   0.90688   0.00000  Uiso   1.00
O695   O     0.50000   0.81546   0.71026   0.00000  Uiso   1.00
O696   O     0.50000   0.68453   0.71026   0.00000  Uiso   1.00
O697   O     0.50000   0.81547   0.78974   0.00000  Uiso   1.00
O698   O     0.42392   0.75000   0.78044   0.00000  Uiso   1.00
O699   O     0.57608   0.75000   0.71955   0.00000  Uiso   1.00
O700   O     0.42392   0.74999   0.70096   0.00000  Uiso   1.00
O701   O     0.57608   0.75000   0.79903   0.00000  Uiso   1.00
O702   O     0.41998   0.67774   0.63863   0.00000  Uiso   1.00
Zn703  Zn    0.50000   0.75000   0.80307   0.00000  Uiso   1.00
Zn704  Zn    0.50000   0.74999   0.69693   0.00000  Uiso   1.00
C705   C     0.83249   0.66394   0.74958   0.00000  Uiso   1.00
C706   C     0.80806   0.71419   0.94259   0.00000  Uiso   1.00
C707   C     0.83417   0.74807   0.52674   0.00000  Uiso   1.00
C708   C     0.83343   0.74799   0.97350   0.00000  Uiso   1.00
C709   C     0.73366   0.74990   0.73743   0.00000  Uiso   1.00
C710   C     0.93301   0.75001   0.76256   0.00000  Uiso   1.00
C711   C     0.67847   0.74982   0.73076   0.00000  Uiso   1.00
C712   C     0.98820   0.74997   0.76920   0.00000  Uiso   1.00
C713   C     0.79449   0.54893   0.77908   0.00000  Uiso   1.00
C714   C     0.80647   0.95088   0.70421   0.00000  Uiso   1.00
C715   C     0.80044   0.59488   0.78080   0.00000  Uiso   1.00
C716   C     0.83198   0.83616   0.75000   0.00000  Uiso   1.00
C717   C     0.81213   0.90512   0.70536   0.00000  Uiso   1.00
C718   C     0.82732   0.61611   0.74817   0.00000  Uiso   1.00
C719   C     0.82589   0.88402   0.74911   0.00000  Uiso   1.00
C720   C     0.84761   0.59161   0.71340   0.00000  Uiso   1.00
C721   C     0.83221   0.90877   0.79168   0.00000  Uiso   1.00
C722   C     0.84254   0.54560   0.71224   0.00000  Uiso   1.00
C723   C     0.82753   0.95464   0.79052   0.00000  Uiso   1.00
C724   C     0.81628   0.52415   0.74530   0.00000  Uiso   1.00
C725   C     0.81536   0.97584   0.74671   0.00000  Uiso   1.00
C726   C     0.74674   0.70956   0.61213   0.00000  Uiso   1.00
C727   C     0.79150   0.73073   0.54583   0.00000  Uiso   1.00
C728   C     0.88824   0.82085   0.88665   0.00000  Uiso   1.00
C729   C     0.85776   0.78286   0.95278   0.00000  Uiso   1.00
C730   C     0.79191   0.73102   0.59531   0.00000  Uiso   1.00
C731   C     0.85847   0.78338   0.90351   0.00000  Uiso   1.00
C732   C     0.87521   0.76757   0.60850   0.00000  Uiso   1.00
C733   C     0.80822   0.71599   0.89304   0.00000  Uiso   1.00
C734   C     0.87664   0.76658   0.55919   0.00000  Uiso   1.00
H735   H     0.99079   0.74967   0.69443   0.00000  Uiso   1.00
H736   H     0.83510   0.97360   0.82368   0.00000  Uiso   1.00
H737   H     0.75771   0.71665   0.52238   0.00000  Uiso   1.00
H738   H     0.87681   0.80992   0.97510   0.00000  Uiso   1.00
H739   H     0.90808   0.78210   0.63259   0.00000  Uiso   1.00
H740   H     0.78848   0.68976   0.87004   0.00000  Uiso   1.00
H741   H     0.91121   0.77991   0.54681   0.00000  Uiso   1.00
H742   H     0.78870   0.68613   0.95647   0.00000  Uiso   1.00
H743   H     0.66795   0.70657   0.60886   0.00000  Uiso   1.00
H744   H     0.91007   0.88595   0.89497   0.00000  Uiso   1.00
H745   H     0.67589   0.75010   0.80553   0.00000  Uiso   1.00
H746   H     0.77350   0.53272   0.80436   0.00000  Uiso   1.00
H747   H     0.79611   0.96687   0.67018   0.00000  Uiso   1.00
H748   H     0.78365   0.61381   0.80721   0.00000  Uiso   1.00
H749   H     0.80577   0.88638   0.67204   0.00000  Uiso   1.00
H750   H     0.86839   0.60794   0.68802   0.00000  Uiso   1.00
H751   H     0.84165   0.89287   0.82565   0.00000  Uiso   1.00
H752   H     0.86044   0.52677   0.68650   0.00000  Uiso   1.00
N753   N     0.83333   0.74999   0.62623   0.00000  Uiso   1.00
N754   N     0.83333   0.75001   0.87376   0.00000  Uiso   1.00
O755   O     0.83334   0.68453   0.78974   0.00000  Uiso   1.00
O756   O     0.69595   0.72414   0.59536   0.00000  Uiso   1.00
O757   O     0.91838   0.81441   0.85850   0.00000  Uiso   1.00
O758   O     0.88559   0.86345   0.90688   0.00000  Uiso   1.00
O759   O     0.83333   0.81546   0.71026   0.00000  Uiso   1.00
O760   O     0.83334   0.68453   0.71026   0.00000  Uiso   1.00
O761   O     0.83333   0.81547   0.78974   0.00000  Uiso   1.00
O762   O     0.75725   0.75000   0.78044   0.00000  Uiso   1.00
O763   O     0.90942   0.75000   0.71955   0.00000  Uiso   1.00
O764   O     0.75725   0.74999   0.70096   0.00000  Uiso   1.00
O765   O     0.90942   0.75000   0.79903   0.00000  Uiso   1.00
O766   O     0.75331   0.67774   0.63863   0.00000  Uiso   1.00
Zn767  Zn    0.83333   0.75000   0.80307   0.00000  Uiso   1.00
Zn768  Zn    0.83333   0.74999   0.69693   0.00000  Uiso   1.00
loop_
_geom_bond_atom_site_label_1
_geom_bond_atom_site_label_2
_geom_bond_distance
_geom_bond_site_symmetry_2
_ccdc_geom_bond_type
C1     O51     1.288   .     A
C1     O56     1.289   .     A
C1     C14     1.435   .     S
C2     C4      1.412   .     A
C2     H38     1.082   .     S
C2     C29     1.414   .     A
C3     C30     1.414   .     A
C3     C23     1.398   .     A
C3     C388    1.513   1_554 S
C4     C25     1.395   .     A
C4     C387    1.513   .     S
C5     O58     1.277   .     A
C5     C7      1.404   .     S
C5     O60     1.285   .     A
C6     O61     1.285   .     A
C6     C8      1.404   .     S
C6     O59     1.277   .     A
C7     C136    1.335   1_455 S
C7     H159    1.088   1_455 S
C8     C71     1.335   .     S
C8     H105    1.088   .     S
C9     C20     1.399   .     A
C9     C11     1.381   .     A
C9     H42     1.083   .     S
C10    C21     1.398   .     A
C10    H43     1.083   .     S
C10    C13     1.381   .     A
C11    H44     1.084   .     S
C11    C14     1.399   .     A
C12    O57     1.294   .     A
C12    C15     1.444   .     S
C12    O55     1.288   .     A
C13    H45     1.083   .     S
C13    C15     1.402   .     A
C14    C16     1.397   .     A
C15    C17     1.397   .     A
C16    C18     1.381   .     A
C16    H46     1.084   .     S
C17    C19     1.381   .     A
C17    H47     1.079   .     S
C18    C20     1.402   .     A
C18    H48     1.083   .     S
C19    H32     1.083   .     S
C19    C21     1.400   .     A
C20    C213    1.448   1_545 S
C21    C212    1.448   .     S
C22    O52     1.398   .     S
C22    C26     1.470   .     S
C22    O62     1.221   .     D
C23    C26     1.407   .     A
C23    H33     1.083   .     S
C24    C27     1.478   .     S
C24    O54     1.399   .     S
C24    O53     1.218   .     D
C25    C27     1.407   .     A
C25    H34     1.083   .     S
C26    N49     1.379   .     A
C27    N50     1.383   .     A
C28    N49     1.364   .     A
C28    C30     1.411   .     A
C28    H35     1.081   .     S
C29    H36     1.082   .     S
C29    N50     1.366   .     A
C30    H37     1.082   .     S
H31    C71     1.088   .     S
H39    O52     1.014   .     S
H40    O54     1.014   .     S
H41    C136    1.088   1_455 S
N49    Zn64    2.013   .     S
N50    Zn63    2.013   .     S
O51    Zn63    1.991   .     S
O55    Zn64    1.991   .     S
O56    Zn64    2.002   .     S
O57    Zn63    2.002   .     S
O58    Zn63    1.962   .     S
O59    Zn64    1.962   .     S
O60    Zn64    1.982   .     S
O61    Zn63    1.982   .     S
C65    O115    1.288   .     A
C65    O120    1.289   .     A
C65    C78     1.435   .     S
C66    C68     1.412   .     A
C66    H102    1.082   .     S
C66    C93     1.414   .     A
C67    C94     1.414   .     A
C67    C87     1.398   .     A
C67    C452    1.513   1_554 S
C68    C89     1.395   .     A
C68    C451    1.513   .     S
C69    O122    1.277   .     A
C69    C71     1.404   .     S
C69    O124    1.285   .     A
C70    O125    1.285   .     A
C70    C72     1.404   .     S
C70    O123    1.277   .     A
C72    C135    1.335   .     S
C72    H169    1.088   .     S
C73    C84     1.399   .     A
C73    C75     1.381   .     A
C73    H106    1.083   .     S
C74    C85     1.398   .     A
C74    H107    1.083   .     S
C74    C77     1.381   .     A
C75    H108    1.084   .     S
C75    C78     1.399   .     A
C76    O121    1.294   .     A
C76    C79     1.444   .     S
C76    O119    1.288   .     A
C77    H109    1.083   .     S
C77    C79     1.402   .     A
C78    C80     1.397   .     A
C79    C81     1.397   .     A
C80    C82     1.381   .     A
C80    H110    1.084   .     S
C81    C83     1.381   .     A
C81    H111    1.079   .     S
C82    C84     1.402   .     A
C82    H112    1.083   .     S
C83    H96     1.083   .     S
C83    C85     1.400   .     A
C84    C277    1.448   1_545 S
C85    C276    1.448   .     S
C86    O116    1.398   .     S
C86    C90     1.470   .     S
C86    O126    1.221   .     D
C87    C90     1.407   .     A
C87    H97     1.083   .     S
C88    C91     1.478   .     S
C88    O118    1.399   .     S
C88    O117    1.218   .     D
C89    C91     1.407   .     A
C89    H98     1.083   .     S
C90    N113    1.379   .     A
C91    N114    1.383   .     A
C92    N113    1.364   .     A
C92    C94     1.411   .     A
C92    H99     1.081   .     S
C93    H100    1.082   .     S
C93    N114    1.366   .     A
C94    H101    1.082   .     S
H95    C135    1.088   .     S
H103   O116    1.014   .     S
H104   O118    1.014   .     S
N113   Zn128   2.013   .     S
N114   Zn127   2.013   .     S
O115   Zn127   1.991   .     S
O119   Zn128   1.991   .     S
O120   Zn128   2.002   .     S
O121   Zn127   2.002   .     S
O122   Zn127   1.962   .     S
O123   Zn128   1.962   .     S
O124   Zn128   1.982   .     S
O125   Zn127   1.982   .     S
C129   O179    1.288   .     A
C129   O184    1.289   .     A
C129   C142    1.435   .     S
C130   C132    1.412   .     A
C130   H166    1.082   .     S
C130   C157    1.414   .     A
C131   C158    1.414   .     A
C131   C151    1.398   .     A
C131   C516    1.513   1_554 S
C132   C153    1.395   .     A
C132   C515    1.513   .     S
C133   O186    1.277   .     A
C133   C135    1.404   .     S
C133   O188    1.285   .     A
C134   O189    1.285   .     A
C134   C136    1.404   .     S
C134   O187    1.277   .     A
C136   C7      1.335   1_655 S
C136   H41     1.088   1_655 S
C137   C148    1.399   .     A
C137   C139    1.381   .     A
C137   H170    1.083   .     S
C138   C149    1.398   .     A
C138   H171    1.083   .     S
C138   C141    1.381   .     A
C139   H172    1.084   .     S
C139   C142    1.399   .     A
C140   O185    1.294   .     A
C140   C143    1.444   .     S
C140   O183    1.288   .     A
C141   H173    1.083   .     S
C141   C143    1.402   .     A
C142   C144    1.397   .     A
C143   C145    1.397   .     A
C144   C146    1.381   .     A
C144   H174    1.084   .     S
C145   C147    1.381   .     A
C145   H175    1.079   .     S
C146   C148    1.402   .     A
C146   H176    1.083   .     S
C147   H160    1.083   .     S
C147   C149    1.400   .     A
C148   C341    1.448   1_545 S
C149   C340    1.448   .     S
C150   O180    1.398   .     S
C150   C154    1.470   .     S
C150   O190    1.221   .     D
C151   C154    1.407   .     A
C151   H161    1.083   .     S
C152   C155    1.478   .     S
C152   O182    1.399   .     S
C152   O181    1.218   .     D
C153   C155    1.407   .     A
C153   H162    1.083   .     S
C154   N177    1.379   .     A
C155   N178    1.383   .     A
C156   N177    1.364   .     A
C156   C158    1.411   .     A
C156   H163    1.081   .     S
C157   H164    1.082   .     S
C157   N178    1.366   .     A
C158   H165    1.082   .     S
H159   C7      1.088   1_655 S
H167   O180    1.014   .     S
H168   O182    1.014   .     S
N177   Zn192   2.013   .     S
N178   Zn191   2.013   .     S
O179   Zn191   1.991   .     S
O183   Zn192   1.991   .     S
O184   Zn192   2.002   .     S
O185   Zn191   2.002   .     S
O186   Zn191   1.962   .     S
O187   Zn192   1.962   .     S
O188   Zn192   1.982   .     S
O189   Zn191   1.982   .     S
C193   O243    1.288   .     A
C193   O248    1.289   .     A
C193   C206    1.435   .     S
C194   C196    1.412   .     A
C194   H230    1.082   .     S
C194   C221    1.414   .     A
C195   C222    1.414   .     A
C195   C215    1.398   .     A
C195   C580    1.513   1_554 S
C196   C217    1.395   .     A
C196   C579    1.513   .     S
C197   O250    1.277   .     A
C197   C199    1.404   .     S
C197   O252    1.285   .     A
C198   O253    1.285   .     A
C198   C200    1.404   .     S
C198   O251    1.277   .     A
C199   C328    1.335   1_455 S
C199   H351    1.088   1_455 S
C200   C263    1.335   .     S
C200   H297    1.088   .     S
C201   C212    1.399   .     A
C201   C203    1.381   .     A
C201   H234    1.083   .     S
C202   C213    1.398   .     A
C202   H235    1.083   .     S
C202   C205    1.381   .     A
C203   H236    1.084   .     S
C203   C206    1.399   .     A
C204   O249    1.294   .     A
C204   C207    1.444   .     S
C204   O247    1.288   .     A
C205   H237    1.083   .     S
C205   C207    1.402   .     A
C206   C208    1.397   .     A
C207   C209    1.397   .     A
C208   C210    1.381   .     A
C208   H238    1.084   .     S
C209   C211    1.381   .     A
C209   H239    1.079   .     S
C210   C212    1.402   .     A
C210   H240    1.083   .     S
C211   H224    1.083   .     S
C211   C213    1.400   .     A
C213   C20     1.448   1_565 S
C214   O244    1.398   .     S
C214   C218    1.470   .     S
C214   O254    1.221   .     D
C215   C218    1.407   .     A
C215   H225    1.083   .     S
C216   C219    1.478   .     S
C216   O246    1.399   .     S
C216   O245    1.218   .     D
C217   C219    1.407   .     A
C217   H226    1.083   .     S
C218   N241    1.379   .     A
C219   N242    1.383   .     A
C220   N241    1.364   .     A
C220   C222    1.411   .     A
C220   H227    1.081   .     S
C221   H228    1.082   .     S
C221   N242    1.366   .     A
C222   H229    1.082   .     S
H223   C263    1.088   .     S
H231   O244    1.014   .     S
H232   O246    1.014   .     S
H233   C328    1.088   1_455 S
N241   Zn256   2.013   .     S
N242   Zn255   2.013   .     S
O243   Zn255   1.991   .     S
O247   Zn256   1.991   .     S
O248   Zn256   2.002   .     S
O249   Zn255   2.002   .     S
O250   Zn255   1.962   .     S
O251   Zn256   1.962   .     S
O252   Zn256   1.982   .     S
O253   Zn255   1.982   .     S
C257   O307    1.288   .     A
C257   O312    1.289   .     A
C257   C270    1.435   .     S
C258   C260    1.412   .     A
C258   H294    1.082   .     S
C258   C285    1.414   .     A
C259   C286    1.414   .     A
C259   C279    1.398   .     A
C259   C644    1.513   1_554 S
C260   C281    1.395   .     A
C260   C643    1.513   .     S
C261   O314    1.277   .     A
C261   C263    1.404   .     S
C261   O316    1.285   .     A
C262   O317    1.285   .     A
C262   C264    1.404   .     S
C262   O315    1.277   .     A
C264   C327    1.335   .     S
C264   H361    1.088   .     S
C265   C276    1.399   .     A
C265   C267    1.381   .     A
C265   H298    1.083   .     S
C266   C277    1.398   .     A
C266   H299    1.083   .     S
C266   C269    1.381   .     A
C267   H300    1.084   .     S
C267   C270    1.399   .     A
C268   O313    1.294   .     A
C268   C271    1.444   .     S
C268   O311    1.288   .     A
C269   H301    1.083   .     S
C269   C271    1.402   .     A
C270   C272    1.397   .     A
C271   C273    1.397   .     A
C272   C274    1.381   .     A
C272   H302    1.084   .     S
C273   C275    1.381   .     A
C273   H303    1.079   .     S
C274   C276    1.402   .     A
C274   H304    1.083   .     S
C275   H288    1.083   .     S
C275   C277    1.400   .     A
C277   C84     1.448   1_565 S
C278   O308    1.398   .     S
C278   C282    1.470   .     S
C278   O318    1.221   .     D
C279   C282    1.407   .     A
C279   H289    1.083   .     S
C280   C283    1.478   .     S
C280   O310    1.399   .     S
C280   O309    1.218   .     D
C281   C283    1.407   .     A
C281   H290    1.083   .     S
C282   N305    1.379   .     A
C283   N306    1.383   .     A
C284   N305    1.364   .     A
C284   C286    1.411   .     A
C284   H291    1.081   .     S
C285   H292    1.082   .     S
C285   N306    1.366   .     A
C286   H293    1.082   .     S
H287   C327    1.088   .     S
H295   O308    1.014   .     S
H296   O310    1.014   .     S
N305   Zn320   2.013   .     S
N306   Zn319   2.013   .     S
O307   Zn319   1.991   .     S
O311   Zn320   1.991   .     S
O312   Zn320   2.002   .     S
O313   Zn319   2.002   .     S
O314   Zn319   1.962   .     S
O315   Zn320   1.962   .     S
O316   Zn320   1.982   .     S
O317   Zn319   1.982   .     S
C321   O371    1.288   .     A
C321   O376    1.289   .     A
C321   C334    1.435   .     S
C322   C324    1.412   .     A
C322   H358    1.082   .     S
C322   C349    1.414   .     A
C323   C350    1.414   .     A
C323   C343    1.398   .     A
C323   C708    1.513   1_554 S
C324   C345    1.395   .     A
C324   C707    1.513   .     S
C325   O378    1.277   .     A
C325   C327    1.404   .     S
C325   O380    1.285   .     A
C326   O381    1.285   .     A
C326   C328    1.404   .     S
C326   O379    1.277   .     A
C328   C199    1.335   1_655 S
C328   H233    1.088   1_655 S
C329   C340    1.399   .     A
C329   C331    1.381   .     A
C329   H362    1.083   .     S
C330   C341    1.398   .     A
C330   H363    1.083   .     S
C330   C333    1.381   .     A
C331   H364    1.084   .     S
C331   C334    1.399   .     A
C332   O377    1.294   .     A
C332   C335    1.444   .     S
C332   O375    1.288   .     A
C333   H365    1.083   .     S
C333   C335    1.402   .     A
C334   C336    1.397   .     A
C335   C337    1.397   .     A
C336   C338    1.381   .     A
C336   H366    1.084   .     S
C337   C339    1.381   .     A
C337   H367    1.079   .     S
C338   C340    1.402   .     A
C338   H368    1.083   .     S
C339   H352    1.083   .     S
C339   C341    1.400   .     A
C341   C148    1.448   1_565 S
C342   O372    1.398   .     S
C342   C346    1.470   .     S
C342   O382    1.221   .     D
C343   C346    1.407   .     A
C343   H353    1.083   .     S
C344   C347    1.478   .     S
C344   O374    1.399   .     S
C344   O373    1.218   .     D
C345   C347    1.407   .     A
C345   H354    1.083   .     S
C346   N369    1.379   .     A
C347   N370    1.383   .     A
C348   N369    1.364   .     A
C348   C350    1.411   .     A
C348   H355    1.081   .     S
C349   H356    1.082   .     S
C349   N370    1.366   .     A
C350   H357    1.082   .     S
H351   C199    1.088   1_655 S
H359   O372    1.014   .     S
H360   O374    1.014   .     S
N369   Zn384   2.013   .     S
N370   Zn383   2.013   .     S
O371   Zn383   1.991   .     S
O375   Zn384   1.991   .     S
O376   Zn384   2.002   .     S
O377   Zn383   2.002   .     S
O378   Zn383   1.962   .     S
O379   Zn384   1.962   .     S
O380   Zn384   1.982   .     S
O381   Zn383   1.982   .     S
C385   O435    1.288   .     A
C385   O440    1.289   .     A
C385   C398    1.435   .     S
C386   C388    1.412   .     A
C386   H422    1.082   .     S
C386   C413    1.414   .     A
C387   C414    1.414   .     A
C387   C407    1.398   .     A
C388   C409    1.395   .     A
C388   C3      1.513   1_556 S
C389   O442    1.277   .     A
C389   C391    1.404   .     S
C389   O444    1.285   .     A
C390   O445    1.285   .     A
C390   C392    1.404   .     S
C390   O443    1.277   .     A
C391   C520    1.335   1_455 S
C391   H543    1.088   1_455 S
C392   C455    1.335   .     S
C392   H489    1.088   .     S
C393   C404    1.399   .     A
C393   C395    1.381   .     A
C393   H426    1.083   .     S
C394   C405    1.398   .     A
C394   H427    1.083   .     S
C394   C397    1.381   .     A
C395   H428    1.084   .     S
C395   C398    1.399   .     A
C396   O441    1.294   .     A
C396   C399    1.444   .     S
C396   O439    1.288   .     A
C397   H429    1.083   .     S
C397   C399    1.402   .     A
C398   C400    1.397   .     A
C399   C401    1.397   .     A
C400   C402    1.381   .     A
C400   H430    1.084   .     S
C401   C403    1.381   .     A
C401   H431    1.079   .     S
C402   C404    1.402   .     A
C402   H432    1.083   .     S
C403   H416    1.083   .     S
C403   C405    1.400   .     A
C404   C597    1.448   1_545 S
C405   C596    1.448   .     S
C406   O436    1.398   .     S
C406   C410    1.470   .     S
C406   O446    1.221   .     D
C407   C410    1.407   .     A
C407   H417    1.083   .     S
C408   C411    1.478   .     S
C408   O438    1.399   .     S
C408   O437    1.218   .     D
C409   C411    1.407   .     A
C409   H418    1.083   .     S
C410   N433    1.379   .     A
C411   N434    1.383   .     A
C412   N433    1.364   .     A
C412   C414    1.411   .     A
C412   H419    1.081   .     S
C413   H420    1.082   .     S
C413   N434    1.366   .     A
C414   H421    1.082   .     S
H415   C455    1.088   .     S
H423   O436    1.014   .     S
H424   O438    1.014   .     S
H425   C520    1.088   1_455 S
N433   Zn448   2.013   .     S
N434   Zn447   2.013   .     S
O435   Zn447   1.991   .     S
O439   Zn448   1.991   .     S
O440   Zn448   2.002   .     S
O441   Zn447   2.002   .     S
O442   Zn447   1.962   .     S
O443   Zn448   1.962   .     S
O444   Zn448   1.982   .     S
O445   Zn447   1.982   .     S
C449   O499    1.288   .     A
C449   O504    1.289   .     A
C449   C462    1.435   .     S
C450   C452    1.412   .     A
C450   H486    1.082   .     S
C450   C477    1.414   .     A
C451   C478    1.414   .     A
C451   C471    1.398   .     A
C452   C473    1.395   .     A
C452   C67     1.513   1_556 S
C453   O506    1.277   .     A
C453   C455    1.404   .     S
C453   O508    1.285   .     A
C454   O509    1.285   .     A
C454   C456    1.404   .     S
C454   O507    1.277   .     A
C456   C519    1.335   .     S
C456   H553    1.088   .     S
C457   C468    1.399   .     A
C457   C459    1.381   .     A
C457   H490    1.083   .     S
C458   C469    1.398   .     A
C458   H491    1.083   .     S
C458   C461    1.381   .     A
C459   H492    1.084   .     S
C459   C462    1.399   .     A
C460   O505    1.294   .     A
C460   C463    1.444   .     S
C460   O503    1.288   .     A
C461   H493    1.083   .     S
C461   C463    1.402   .     A
C462   C464    1.397   .     A
C463   C465    1.397   .     A
C464   C466    1.381   .     A
C464   H494    1.084   .     S
C465   C467    1.381   .     A
C465   H495    1.079   .     S
C466   C468    1.402   .     A
C466   H496    1.083   .     S
C467   H480    1.083   .     S
C467   C469    1.400   .     A
C468   C661    1.448   1_545 S
C469   C660    1.448   .     S
C470   O500    1.398   .     S
C470   C474    1.470   .     S
C470   O510    1.221   .     D
C471   C474    1.407   .     A
C471   H481    1.083   .     S
C472   C475    1.478   .     S
C472   O502    1.399   .     S
C472   O501    1.218   .     D
C473   C475    1.407   .     A
C473   H482    1.083   .     S
C474   N497    1.379   .     A
C475   N498    1.383   .     A
C476   N497    1.364   .     A
C476   C478    1.411   .     A
C476   H483    1.081   .     S
C477   H484    1.082   .     S
C477   N498    1.366   .     A
C478   H485    1.082   .     S
H479   C519    1.088   .     S
H487   O500    1.014   .     S
H488   O502    1.014   .     S
N497   Zn512   2.013   .     S
N498   Zn511   2.013   .     S
O499   Zn511   1.991   .     S
O503   Zn512   1.991   .     S
O504   Zn512   2.002   .     S
O505   Zn511   2.002   .     S
O506   Zn511   1.962   .     S
O507   Zn512   1.962   .     S
O508   Zn512   1.982   .     S
O509   Zn511   1.982   .     S
C513   O563    1.288   .     A
C513   O568    1.289   .     A
C513   C526    1.435   .     S
C514   C516    1.412   .     A
C514   H550    1.082   .     S
C514   C541    1.414   .     A
C515   C542    1.414   .     A
C515   C535    1.398   .     A
C516   C537    1.395   .     A
C516   C131    1.513   1_556 S
C517   O570    1.277   .     A
C517   C519    1.404   .     S
C517   O572    1.285   .     A
C518   O573    1.285   .     A
C518   C520    1.404   .     S
C518   O571    1.277   .     A
C520   C391    1.335   1_655 S
C520   H425    1.088   1_655 S
C521   C532    1.399   .     A
C521   C523    1.381   .     A
C521   H554    1.083   .     S
C522   C533    1.398   .     A
C522   H555    1.083   .     S
C522   C525    1.381   .     A
C523   H556    1.084   .     S
C523   C526    1.399   .     A
C524   O569    1.294   .     A
C524   C527    1.444   .     S
C524   O567    1.288   .     A
C525   H557    1.083   .     S
C525   C527    1.402   .     A
C526   C528    1.397   .     A
C527   C529    1.397   .     A
C528   C530    1.381   .     A
C528   H558    1.084   .     S
C529   C531    1.381   .     A
C529   H559    1.079   .     S
C530   C532    1.402   .     A
C530   H560    1.083   .     S
C531   H544    1.083   .     S
C531   C533    1.400   .     A
C532   C725    1.448   1_545 S
C533   C724    1.448   .     S
C534   O564    1.398   .     S
C534   C538    1.470   .     S
C534   O574    1.221   .     D
C535   C538    1.407   .     A
C535   H545    1.083   .     S
C536   C539    1.478   .     S
C536   O566    1.399   .     S
C536   O565    1.218   .     D
C537   C539    1.407   .     A
C537   H546    1.083   .     S
C538   N561    1.379   .     A
C539   N562    1.383   .     A
C540   N561    1.364   .     A
C540   C542    1.411   .     A
C540   H547    1.081   .     S
C541   H548    1.082   .     S
C541   N562    1.366   .     A
C542   H549    1.082   .     S
H543   C391    1.088   1_655 S
H551   O564    1.014   .     S
H552   O566    1.014   .     S
N561   Zn576   2.013   .     S
N562   Zn575   2.013   .     S
O563   Zn575   1.991   .     S
O567   Zn576   1.991   .     S
O568   Zn576   2.002   .     S
O569   Zn575   2.002   .     S
O570   Zn575   1.962   .     S
O571   Zn576   1.962   .     S
O572   Zn576   1.982   .     S
O573   Zn575   1.982   .     S
C577   O627    1.288   .     A
C577   O632    1.289   .     A
C577   C590    1.435   .     S
C578   C580    1.412   .     A
C578   H614    1.082   .     S
C578   C605    1.414   .     A
C579   C606    1.414   .     A
C579   C599    1.398   .     A
C580   C601    1.395   .     A
C580   C195    1.513   1_556 S
C581   O634    1.277   .     A
C581   C583    1.404   .     S
C581   O636    1.285   .     A
C582   O637    1.285   .     A
C582   C584    1.404   .     S
C582   O635    1.277   .     A
C583   C712    1.335   1_455 S
C583   H735    1.088   1_455 S
C584   C647    1.335   .     S
C584   H681    1.088   .     S
C585   C596    1.399   .     A
C585   C587    1.381   .     A
C585   H618    1.083   .     S
C586   C597    1.398   .     A
C586   H619    1.083   .     S
C586   C589    1.381   .     A
C587   H620    1.084   .     S
C587   C590    1.399   .     A
C588   O633    1.294   .     A
C588   C591    1.444   .     S
C588   O631    1.288   .     A
C589   H621    1.083   .     S
C589   C591    1.402   .     A
C590   C592    1.397   .     A
C591   C593    1.397   .     A
C592   C594    1.381   .     A
C592   H622    1.084   .     S
C593   C595    1.381   .     A
C593   H623    1.079   .     S
C594   C596    1.402   .     A
C594   H624    1.083   .     S
C595   H608    1.083   .     S
C595   C597    1.400   .     A
C597   C404    1.448   1_565 S
C598   O628    1.398   .     S
C598   C602    1.470   .     S
C598   O638    1.221   .     D
C599   C602    1.407   .     A
C599   H609    1.083   .     S
C600   C603    1.478   .     S
C600   O630    1.399   .     S
C600   O629    1.218   .     D
C601   C603    1.407   .     A
C601   H610    1.083   .     S
C602   N625    1.379   .     A
C603   N626    1.383   .     A
C604   N625    1.364   .     A
C604   C606    1.411   .     A
C604   H611    1.081   .     S
C605   H612    1.082   .     S
C605   N626    1.366   .     A
C606   H613    1.082   .     S
H607   C647    1.088   .     S
H615   O628    1.014   .     S
H616   O630    1.014   .     S
H617   C712    1.088   1_455 S
N625   Zn640   2.013   .     S
N626   Zn639   2.013   .     S
O627   Zn639   1.991   .     S
O631   Zn640   1.991   .     S
O632   Zn640   2.002   .     S
O633   Zn639   2.002   .     S
O634   Zn639   1.962   .     S
O635   Zn640   1.962   .     S
O636   Zn640   1.982   .     S
O637   Zn639   1.982   .     S
C641   O691    1.288   .     A
C641   O696    1.289   .     A
C641   C654    1.435   .     S
C642   C644    1.412   .     A
C642   H678    1.082   .     S
C642   C669    1.414   .     A
C643   C670    1.414   .     A
C643   C663    1.398   .     A
C644   C665    1.395   .     A
C644   C259    1.513   1_556 S
C645   O698    1.277   .     A
C645   C647    1.404   .     S
C645   O700    1.285   .     A
C646   O701    1.285   .     A
C646   C648    1.404   .     S
C646   O699    1.277   .     A
C648   C711    1.335   .     S
C648   H745    1.088   .     S
C649   C660    1.399   .     A
C649   C651    1.381   .     A
C649   H682    1.083   .     S
C650   C661    1.398   .     A
C650   H683    1.083   .     S
C650   C653    1.381   .     A
C651   H684    1.084   .     S
C651   C654    1.399   .     A
C652   O697    1.294   .     A
C652   C655    1.444   .     S
C652   O695    1.288   .     A
C653   H685    1.083   .     S
C653   C655    1.402   .     A
C654   C656    1.397   .     A
C655   C657    1.397   .     A
C656   C658    1.381   .     A
C656   H686    1.084   .     S
C657   C659    1.381   .     A
C657   H687    1.079   .     S
C658   C660    1.402   .     A
C658   H688    1.083   .     S
C659   H672    1.083   .     S
C659   C661    1.400   .     A
C661   C468    1.448   1_565 S
C662   O692    1.398   .     S
C662   C666    1.470   .     S
C662   O702    1.221   .     D
C663   C666    1.407   .     A
C663   H673    1.083   .     S
C664   C667    1.478   .     S
C664   O694    1.399   .     S
C664   O693    1.218   .     D
C665   C667    1.407   .     A
C665   H674    1.083   .     S
C666   N689    1.379   .     A
C667   N690    1.383   .     A
C668   N689    1.364   .     A
C668   C670    1.411   .     A
C668   H675    1.081   .     S
C669   H676    1.082   .     S
C669   N690    1.366   .     A
C670   H677    1.082   .     S
H671   C711    1.088   .     S
H679   O692    1.014   .     S
H680   O694    1.014   .     S
N689   Zn704   2.013   .     S
N690   Zn703   2.013   .     S
O691   Zn703   1.991   .     S
O695   Zn704   1.991   .     S
O696   Zn704   2.002   .     S
O697   Zn703   2.002   .     S
O698   Zn703   1.962   .     S
O699   Zn704   1.962   .     S
O700   Zn704   1.982   .     S
O701   Zn703   1.982   .     S
C705   O755    1.288   .     A
C705   O760    1.289   .     A
C705   C718    1.435   .     S
C706   C708    1.412   .     A
C706   H742    1.082   .     S
C706   C733    1.414   .     A
C707   C734    1.414   .     A
C707   C727    1.398   .     A
C708   C729    1.395   .     A
C708   C323    1.513   1_556 S
C709   O762    1.277   .     A
C709   C711    1.404   .     S
C709   O764    1.285   .     A
C710   O765    1.285   .     A
C710   C712    1.404   .     S
C710   O763    1.277   .     A
C712   C583    1.335   1_655 S
C712   H617    1.088   1_655 S
C713   C724    1.399   .     A
C713   C715    1.381   .     A
C713   H746    1.083   .     S
C714   C725    1.398   .     A
C714   H747    1.083   .     S
C714   C717    1.381   .     A
C715   H748    1.084   .     S
C715   C718    1.399   .     A
C716   O761    1.294   .     A
C716   C719    1.444   .     S
C716   O759    1.288   .     A
C717   H749    1.083   .     S
C717   C719    1.402   .     A
C718   C720    1.397   .     A
C719   C721    1.397   .     A
C720   C722    1.381   .     A
C720   H750    1.084   .     S
C721   C723    1.381   .     A
C721   H751    1.079   .     S
C722   C724    1.402   .     A
C722   H752    1.083   .     S
C723   H736    1.083   .     S
C723   C725    1.400   .     A
C725   C532    1.448   1_565 S
C726   O756    1.398   .     S
C726   C730    1.470   .     S
C726   O766    1.221   .     D
C727   C730    1.407   .     A
C727   H737    1.083   .     S
C728   C731    1.478   .     S
C728   O758    1.399   .     S
C728   O757    1.218   .     D
C729   C731    1.407   .     A
C729   H738    1.083   .     S
C730   N753    1.379   .     A
C731   N754    1.383   .     A
C732   N753    1.364   .     A
C732   C734    1.411   .     A
C732   H739    1.081   .     S
C733   H740    1.082   .     S
C733   N754    1.366   .     A
C734   H741    1.082   .     S
H735   C583    1.088   1_655 S
H743   O756    1.014   .     S
H744   O758    1.014   .     S
N753   Zn768   2.013   .     S
N754   Zn767   2.013   .     S
O755   Zn767   1.991   .     S
O759   Zn768   1.991   .     S
O760   Zn768   2.002   .     S
O761   Zn767   2.002   .     S
O762   Zn767   1.962   .     S
O763   Zn768   1.962   .     S
O764   Zn768   1.982   .     S
O765   Zn767   1.982   .     S
