data_str_m2_o10_o16_pcu_sym.69
_audit_creation_date              2020-01-03
_audit_creation_method            'Materials Studio'
_symmetry_space_group_name_H-M    'P1'
_symmetry_Int_Tables_number       1
_symmetry_cell_setting            triclinic
loop_
_symmetry_equiv_pos_as_xyz
  x,y,z
_cell_length_a                    22.2619
_cell_length_b                    26.1637
_cell_length_c                    26.7558
_cell_angle_alpha                 93.9894
_cell_angle_beta                  77.3014
_cell_angle_gamma                 103.0187
loop_
_atom_site_label
_atom_site_type_symbol
_atom_site_fract_x
_atom_site_fract_y
_atom_site_fract_z
_atom_site_U_iso_or_equiv
_atom_site_adp_type
_atom_site_occupancy
C1     C     0.18085   0.26651   0.25383   0.00000  Uiso   1.00
C2     C     0.11215   0.16571   0.40358   0.00000  Uiso   1.00
C3     C     0.18711   0.32184   0.26154   0.00000  Uiso   1.00
C4     C     0.13309   0.16600   0.34731   0.00000  Uiso   1.00
C5     C     0.14475   0.01097   0.24810   0.00000  Uiso   1.00
C6     C     0.15148   0.06667   0.24962   0.00000  Uiso   1.00
C7     C     0.20060   0.17013   0.15289   0.00000  Uiso   1.00
C8     C     0.28996   0.23198   0.02869   0.00000  Uiso   1.00
C9     C     0.22123   0.17922   0.09780   0.00000  Uiso   1.00
C10    C     0.05000   0.14072   0.42506   0.00000  Uiso   1.00
C11    C     0.03115   0.13334   0.47756   0.00000  Uiso   1.00
C12    C     0.13873   0.17052   0.48816   0.00000  Uiso   1.00
C13    C     0.07487   0.14752   0.00884   0.00000  Uiso   1.00
C14    C     0.15327   0.06993   0.06346   0.00000  Uiso   1.00
C15    C     0.15502   0.18549   0.43617   0.00000  Uiso   1.00
C16    C     0.18622   0.18178   0.01792   0.00000  Uiso   1.00
C17    C     0.24444   0.21671   0.49857   0.00000  Uiso   1.00
C18    C     0.25637   0.23673   0.44961   0.00000  Uiso   1.00
C19    C     0.21272   0.22106   0.41868   0.00000  Uiso   1.00
C20    C     0.17878   0.15875   0.06581   0.00000  Uiso   1.00
C21    C     0.27761   0.21455   0.07861   0.00000  Uiso   1.00
Cl22   Cl    0.24930   0.02139   0.29181   0.00000  Uiso   1.00
Cu23   Cu    0.10710   0.16105   0.24436   0.00000  Uiso   1.00
Cu24   Cu    0.22623   0.17228   0.25564   0.00000  Uiso   1.00
H25    H     0.31104   0.23005   0.10273   0.00000  Uiso   1.00
H26    H     0.22379   0.23917   0.38173   0.00000  Uiso   1.00
H27    H     0.11508   0.03520   0.07603   0.00000  Uiso   1.00
H28    H     0.19437   0.06693   0.07958   0.00000  Uiso   1.00
H29    H     0.16572   0.06847   0.02081   0.00000  Uiso   1.00
H30    H     0.10531   0.32116   0.23300   0.00000  Uiso   1.00
H31    H     0.00366   0.20584   0.28964   0.00000  Uiso   1.00
H32    H     0.32965   0.12747   0.21040   0.00000  Uiso   1.00
H33    H     0.30003   0.26430   0.43489   0.00000  Uiso   1.00
H34    H     0.00077   0.25909   0.01429   0.00000  Uiso   1.00
H35    H     0.01599   0.12636   0.40119   0.00000  Uiso   1.00
H36    H     0.05679   0.14253   0.04943   0.00000  Uiso   1.00
H37    H     0.31589   0.11558   0.49405   0.00000  Uiso   1.00
N38    N     0.31574   0.18074   0.26416   0.00000  Uiso   1.00
N39    N     0.01759   0.15259   0.23584   0.00000  Uiso   1.00
O40    O     0.12797   0.23807   0.24633   0.00000  Uiso   1.00
O41    O     0.22858   0.24755   0.25586   0.00000  Uiso   1.00
O42    O     0.09181   0.15960   0.31840   0.00000  Uiso   1.00
O43    O     0.19242   0.16908   0.32793   0.00000  Uiso   1.00
O44    O     0.10476   0.08578   0.24414   0.00000  Uiso   1.00
O45    O     0.20536   0.09526   0.25367   0.00000  Uiso   1.00
O46    O     0.14092   0.16425   0.17207   0.00000  Uiso   1.00
O47    O     0.24152   0.17373   0.18160   0.00000  Uiso   1.00
O48    O     0.13109   0.11557   0.08182   0.00000  Uiso   1.00
C49    C     0.51418   0.26651   0.25383   0.00000  Uiso   1.00
C50    C     0.44549   0.16571   0.40358   0.00000  Uiso   1.00
C51    C     0.52045   0.32184   0.26154   0.00000  Uiso   1.00
C52    C     0.46642   0.16600   0.34731   0.00000  Uiso   1.00
C53    C     0.47808   0.01097   0.24810   0.00000  Uiso   1.00
C54    C     0.48481   0.06667   0.24962   0.00000  Uiso   1.00
C55    C     0.53393   0.17013   0.15289   0.00000  Uiso   1.00
C56    C     0.62329   0.23198   0.02869   0.00000  Uiso   1.00
C57    C     0.55456   0.17922   0.09780   0.00000  Uiso   1.00
C58    C     0.38333   0.14072   0.42506   0.00000  Uiso   1.00
C59    C     0.36448   0.13334   0.47756   0.00000  Uiso   1.00
C60    C     0.47206   0.17052   0.48816   0.00000  Uiso   1.00
C61    C     0.40820   0.14752   0.00884   0.00000  Uiso   1.00
C62    C     0.48660   0.06993   0.06346   0.00000  Uiso   1.00
C63    C     0.48835   0.18549   0.43617   0.00000  Uiso   1.00
C64    C     0.51955   0.18178   0.01792   0.00000  Uiso   1.00
C65    C     0.57777   0.21671   0.49857   0.00000  Uiso   1.00
C66    C     0.58970   0.23673   0.44961   0.00000  Uiso   1.00
C67    C     0.54606   0.22106   0.41868   0.00000  Uiso   1.00
C68    C     0.51211   0.15875   0.06581   0.00000  Uiso   1.00
C69    C     0.61094   0.21455   0.07861   0.00000  Uiso   1.00
Cl70   Cl    0.58263   0.02139   0.29181   0.00000  Uiso   1.00
Cu71   Cu    0.44043   0.16105   0.24436   0.00000  Uiso   1.00
Cu72   Cu    0.55957   0.17228   0.25564   0.00000  Uiso   1.00
H73    H     0.64437   0.23005   0.10273   0.00000  Uiso   1.00
H74    H     0.55713   0.23917   0.38173   0.00000  Uiso   1.00
H75    H     0.44841   0.03520   0.07603   0.00000  Uiso   1.00
H76    H     0.52771   0.06693   0.07958   0.00000  Uiso   1.00
H77    H     0.49906   0.06847   0.02081   0.00000  Uiso   1.00
H78    H     0.43864   0.32116   0.23300   0.00000  Uiso   1.00
H79    H     0.33699   0.20584   0.28964   0.00000  Uiso   1.00
H80    H     0.66298   0.12747   0.21040   0.00000  Uiso   1.00
H81    H     0.63336   0.26430   0.43489   0.00000  Uiso   1.00
H82    H     0.33411   0.25909   0.01429   0.00000  Uiso   1.00
H83    H     0.34932   0.12636   0.40119   0.00000  Uiso   1.00
H84    H     0.39013   0.14253   0.04943   0.00000  Uiso   1.00
H85    H     0.64922   0.11558   0.49405   0.00000  Uiso   1.00
N86    N     0.64908   0.18074   0.26416   0.00000  Uiso   1.00
N87    N     0.35092   0.15259   0.23584   0.00000  Uiso   1.00
O88    O     0.46131   0.23807   0.24633   0.00000  Uiso   1.00
O89    O     0.56191   0.24755   0.25586   0.00000  Uiso   1.00
O90    O     0.42515   0.15960   0.31840   0.00000  Uiso   1.00
O91    O     0.52575   0.16908   0.32793   0.00000  Uiso   1.00
O92    O     0.43809   0.08578   0.24414   0.00000  Uiso   1.00
O93    O     0.53869   0.09526   0.25367   0.00000  Uiso   1.00
O94    O     0.47425   0.16425   0.17207   0.00000  Uiso   1.00
O95    O     0.57485   0.17373   0.18160   0.00000  Uiso   1.00
O96    O     0.46443   0.11557   0.08182   0.00000  Uiso   1.00
C97    C     0.84752   0.26651   0.25383   0.00000  Uiso   1.00
C98    C     0.77882   0.16571   0.40358   0.00000  Uiso   1.00
C99    C     0.85378   0.32184   0.26154   0.00000  Uiso   1.00
C100   C     0.79976   0.16600   0.34731   0.00000  Uiso   1.00
C101   C     0.81142   0.01097   0.24810   0.00000  Uiso   1.00
C102   C     0.81815   0.06667   0.24962   0.00000  Uiso   1.00
C103   C     0.86726   0.17013   0.15289   0.00000  Uiso   1.00
C104   C     0.95662   0.23198   0.02869   0.00000  Uiso   1.00
C105   C     0.88789   0.17922   0.09780   0.00000  Uiso   1.00
C106   C     0.71667   0.14072   0.42506   0.00000  Uiso   1.00
C107   C     0.69782   0.13334   0.47756   0.00000  Uiso   1.00
C108   C     0.80540   0.17052   0.48816   0.00000  Uiso   1.00
C109   C     0.74154   0.14752   0.00884   0.00000  Uiso   1.00
C110   C     0.81994   0.06993   0.06346   0.00000  Uiso   1.00
C111   C     0.82169   0.18549   0.43617   0.00000  Uiso   1.00
C112   C     0.85288   0.18178   0.01792   0.00000  Uiso   1.00
C113   C     0.91110   0.21671   0.49857   0.00000  Uiso   1.00
C114   C     0.92304   0.23673   0.44961   0.00000  Uiso   1.00
C115   C     0.87939   0.22106   0.41868   0.00000  Uiso   1.00
C116   C     0.84545   0.15875   0.06581   0.00000  Uiso   1.00
C117   C     0.94427   0.21455   0.07861   0.00000  Uiso   1.00
Cl118  Cl    0.91596   0.02139   0.29181   0.00000  Uiso   1.00
Cu119  Cu    0.77377   0.16105   0.24436   0.00000  Uiso   1.00
Cu120  Cu    0.89290   0.17228   0.25564   0.00000  Uiso   1.00
H121   H     0.97770   0.23005   0.10273   0.00000  Uiso   1.00
H122   H     0.89046   0.23917   0.38173   0.00000  Uiso   1.00
H123   H     0.78174   0.03520   0.07603   0.00000  Uiso   1.00
H124   H     0.86104   0.06693   0.07958   0.00000  Uiso   1.00
H125   H     0.83239   0.06847   0.02081   0.00000  Uiso   1.00
H126   H     0.77197   0.32116   0.23300   0.00000  Uiso   1.00
H127   H     0.67032   0.20584   0.28964   0.00000  Uiso   1.00
H128   H     0.99632   0.12747   0.21040   0.00000  Uiso   1.00
H129   H     0.96669   0.26430   0.43489   0.00000  Uiso   1.00
H130   H     0.66744   0.25909   0.01429   0.00000  Uiso   1.00
H131   H     0.68265   0.12636   0.40119   0.00000  Uiso   1.00
H132   H     0.72346   0.14253   0.04943   0.00000  Uiso   1.00
H133   H     0.98256   0.11558   0.49405   0.00000  Uiso   1.00
N134   N     0.98241   0.18074   0.26416   0.00000  Uiso   1.00
N135   N     0.68426   0.15259   0.23584   0.00000  Uiso   1.00
O136   O     0.79464   0.23807   0.24633   0.00000  Uiso   1.00
O137   O     0.89524   0.24755   0.25586   0.00000  Uiso   1.00
O138   O     0.75848   0.15960   0.31840   0.00000  Uiso   1.00
O139   O     0.85908   0.16908   0.32793   0.00000  Uiso   1.00
O140   O     0.77142   0.08578   0.24414   0.00000  Uiso   1.00
O141   O     0.87203   0.09526   0.25367   0.00000  Uiso   1.00
O142   O     0.80758   0.16425   0.17207   0.00000  Uiso   1.00
O143   O     0.90819   0.17373   0.18160   0.00000  Uiso   1.00
O144   O     0.79776   0.11557   0.08182   0.00000  Uiso   1.00
C145   C     0.18085   0.59984   0.25383   0.00000  Uiso   1.00
C146   C     0.11215   0.49904   0.40358   0.00000  Uiso   1.00
C147   C     0.18711   0.65517   0.26154   0.00000  Uiso   1.00
C148   C     0.13309   0.49934   0.34731   0.00000  Uiso   1.00
C149   C     0.14475   0.34431   0.24810   0.00000  Uiso   1.00
C150   C     0.15148   0.40000   0.24962   0.00000  Uiso   1.00
C151   C     0.20060   0.50346   0.15289   0.00000  Uiso   1.00
C152   C     0.28996   0.56531   0.02869   0.00000  Uiso   1.00
C153   C     0.22123   0.51255   0.09780   0.00000  Uiso   1.00
C154   C     0.05000   0.47405   0.42506   0.00000  Uiso   1.00
C155   C     0.03115   0.46667   0.47756   0.00000  Uiso   1.00
C156   C     0.13873   0.50386   0.48816   0.00000  Uiso   1.00
C157   C     0.07487   0.48085   0.00884   0.00000  Uiso   1.00
C158   C     0.15327   0.40326   0.06346   0.00000  Uiso   1.00
C159   C     0.15502   0.51883   0.43617   0.00000  Uiso   1.00
C160   C     0.18622   0.51512   0.01792   0.00000  Uiso   1.00
C161   C     0.24444   0.55004   0.49857   0.00000  Uiso   1.00
C162   C     0.25637   0.57006   0.44961   0.00000  Uiso   1.00
C163   C     0.21272   0.55439   0.41868   0.00000  Uiso   1.00
C164   C     0.17878   0.49208   0.06581   0.00000  Uiso   1.00
C165   C     0.27761   0.54789   0.07861   0.00000  Uiso   1.00
Cl166  Cl    0.24930   0.35472   0.29181   0.00000  Uiso   1.00
Cu167  Cu    0.10710   0.49439   0.24436   0.00000  Uiso   1.00
Cu168  Cu    0.22623   0.50561   0.25564   0.00000  Uiso   1.00
H169   H     0.31104   0.56338   0.10273   0.00000  Uiso   1.00
H170   H     0.22379   0.57250   0.38173   0.00000  Uiso   1.00
H171   H     0.11508   0.36853   0.07603   0.00000  Uiso   1.00
H172   H     0.19437   0.40026   0.07958   0.00000  Uiso   1.00
H173   H     0.16572   0.40180   0.02081   0.00000  Uiso   1.00
H174   H     0.10531   0.65450   0.23300   0.00000  Uiso   1.00
H175   H     0.00366   0.53917   0.28964   0.00000  Uiso   1.00
H176   H     0.32965   0.46080   0.21040   0.00000  Uiso   1.00
H177   H     0.30003   0.59763   0.43489   0.00000  Uiso   1.00
H178   H     0.00077   0.59242   0.01429   0.00000  Uiso   1.00
H179   H     0.01599   0.45969   0.40119   0.00000  Uiso   1.00
H180   H     0.05679   0.47587   0.04943   0.00000  Uiso   1.00
H181   H     0.31589   0.44891   0.49405   0.00000  Uiso   1.00
N182   N     0.31574   0.51407   0.26416   0.00000  Uiso   1.00
N183   N     0.01759   0.48593   0.23584   0.00000  Uiso   1.00
O184   O     0.12797   0.57141   0.24633   0.00000  Uiso   1.00
O185   O     0.22858   0.58089   0.25586   0.00000  Uiso   1.00
O186   O     0.09181   0.49293   0.31840   0.00000  Uiso   1.00
O187   O     0.19242   0.50241   0.32793   0.00000  Uiso   1.00
O188   O     0.10476   0.41911   0.24414   0.00000  Uiso   1.00
O189   O     0.20536   0.42859   0.25367   0.00000  Uiso   1.00
O190   O     0.14092   0.49759   0.17207   0.00000  Uiso   1.00
O191   O     0.24152   0.50707   0.18160   0.00000  Uiso   1.00
O192   O     0.13109   0.44890   0.08182   0.00000  Uiso   1.00
C193   C     0.51418   0.59984   0.25383   0.00000  Uiso   1.00
C194   C     0.44549   0.49904   0.40358   0.00000  Uiso   1.00
C195   C     0.52045   0.65517   0.26154   0.00000  Uiso   1.00
C196   C     0.46642   0.49934   0.34731   0.00000  Uiso   1.00
C197   C     0.47808   0.34431   0.24810   0.00000  Uiso   1.00
C198   C     0.48481   0.40000   0.24962   0.00000  Uiso   1.00
C199   C     0.53393   0.50346   0.15289   0.00000  Uiso   1.00
C200   C     0.62329   0.56531   0.02869   0.00000  Uiso   1.00
C201   C     0.55456   0.51255   0.09780   0.00000  Uiso   1.00
C202   C     0.38333   0.47405   0.42506   0.00000  Uiso   1.00
C203   C     0.36448   0.46667   0.47756   0.00000  Uiso   1.00
C204   C     0.47206   0.50386   0.48816   0.00000  Uiso   1.00
C205   C     0.40820   0.48085   0.00884   0.00000  Uiso   1.00
C206   C     0.48660   0.40326   0.06346   0.00000  Uiso   1.00
C207   C     0.48835   0.51883   0.43617   0.00000  Uiso   1.00
C208   C     0.51955   0.51512   0.01792   0.00000  Uiso   1.00
C209   C     0.57777   0.55004   0.49857   0.00000  Uiso   1.00
C210   C     0.58970   0.57006   0.44961   0.00000  Uiso   1.00
C211   C     0.54606   0.55439   0.41868   0.00000  Uiso   1.00
C212   C     0.51211   0.49208   0.06581   0.00000  Uiso   1.00
C213   C     0.61094   0.54789   0.07861   0.00000  Uiso   1.00
Cl214  Cl    0.58263   0.35472   0.29181   0.00000  Uiso   1.00
Cu215  Cu    0.44043   0.49439   0.24436   0.00000  Uiso   1.00
Cu216  Cu    0.55957   0.50561   0.25564   0.00000  Uiso   1.00
H217   H     0.64437   0.56338   0.10273   0.00000  Uiso   1.00
H218   H     0.55713   0.57250   0.38173   0.00000  Uiso   1.00
H219   H     0.44841   0.36853   0.07603   0.00000  Uiso   1.00
H220   H     0.52771   0.40026   0.07958   0.00000  Uiso   1.00
H221   H     0.49906   0.40180   0.02081   0.00000  Uiso   1.00
H222   H     0.43864   0.65450   0.23300   0.00000  Uiso   1.00
H223   H     0.33699   0.53917   0.28964   0.00000  Uiso   1.00
H224   H     0.66298   0.46080   0.21040   0.00000  Uiso   1.00
H225   H     0.63336   0.59763   0.43489   0.00000  Uiso   1.00
H226   H     0.33411   0.59242   0.01429   0.00000  Uiso   1.00
H227   H     0.34932   0.45969   0.40119   0.00000  Uiso   1.00
H228   H     0.39013   0.47587   0.04943   0.00000  Uiso   1.00
H229   H     0.64922   0.44891   0.49405   0.00000  Uiso   1.00
N230   N     0.64908   0.51407   0.26416   0.00000  Uiso   1.00
N231   N     0.35092   0.48593   0.23584   0.00000  Uiso   1.00
O232   O     0.46131   0.57141   0.24633   0.00000  Uiso   1.00
O233   O     0.56191   0.58089   0.25586   0.00000  Uiso   1.00
O234   O     0.42515   0.49293   0.31840   0.00000  Uiso   1.00
O235   O     0.52575   0.50241   0.32793   0.00000  Uiso   1.00
O236   O     0.43809   0.41911   0.24414   0.00000  Uiso   1.00
O237   O     0.53869   0.42859   0.25367   0.00000  Uiso   1.00
O238   O     0.47425   0.49759   0.17207   0.00000  Uiso   1.00
O239   O     0.57485   0.50707   0.18160   0.00000  Uiso   1.00
O240   O     0.46443   0.44890   0.08182   0.00000  Uiso   1.00
C241   C     0.84752   0.59984   0.25383   0.00000  Uiso   1.00
C242   C     0.77882   0.49904   0.40358   0.00000  Uiso   1.00
C243   C     0.85378   0.65517   0.26154   0.00000  Uiso   1.00
C244   C     0.79976   0.49934   0.34731   0.00000  Uiso   1.00
C245   C     0.81142   0.34431   0.24810   0.00000  Uiso   1.00
C246   C     0.81815   0.40000   0.24962   0.00000  Uiso   1.00
C247   C     0.86726   0.50346   0.15289   0.00000  Uiso   1.00
C248   C     0.95662   0.56531   0.02869   0.00000  Uiso   1.00
C249   C     0.88789   0.51255   0.09780   0.00000  Uiso   1.00
C250   C     0.71667   0.47405   0.42506   0.00000  Uiso   1.00
C251   C     0.69782   0.46667   0.47756   0.00000  Uiso   1.00
C252   C     0.80540   0.50386   0.48816   0.00000  Uiso   1.00
C253   C     0.74154   0.48085   0.00884   0.00000  Uiso   1.00
C254   C     0.81994   0.40326   0.06346   0.00000  Uiso   1.00
C255   C     0.82169   0.51883   0.43617   0.00000  Uiso   1.00
C256   C     0.85288   0.51512   0.01792   0.00000  Uiso   1.00
C257   C     0.91110   0.55004   0.49857   0.00000  Uiso   1.00
C258   C     0.92304   0.57006   0.44961   0.00000  Uiso   1.00
C259   C     0.87939   0.55439   0.41868   0.00000  Uiso   1.00
C260   C     0.84545   0.49208   0.06581   0.00000  Uiso   1.00
C261   C     0.94427   0.54789   0.07861   0.00000  Uiso   1.00
Cl262  Cl    0.91596   0.35472   0.29181   0.00000  Uiso   1.00
Cu263  Cu    0.77377   0.49439   0.24436   0.00000  Uiso   1.00
Cu264  Cu    0.89290   0.50561   0.25564   0.00000  Uiso   1.00
H265   H     0.97770   0.56338   0.10273   0.00000  Uiso   1.00
H266   H     0.89046   0.57250   0.38173   0.00000  Uiso   1.00
H267   H     0.78174   0.36853   0.07603   0.00000  Uiso   1.00
H268   H     0.86104   0.40026   0.07958   0.00000  Uiso   1.00
H269   H     0.83239   0.40180   0.02081   0.00000  Uiso   1.00
H270   H     0.77197   0.65450   0.23300   0.00000  Uiso   1.00
H271   H     0.67032   0.53917   0.28964   0.00000  Uiso   1.00
H272   H     0.99632   0.46080   0.21040   0.00000  Uiso   1.00
H273   H     0.96669   0.59763   0.43489   0.00000  Uiso   1.00
H274   H     0.66744   0.59242   0.01429   0.00000  Uiso   1.00
H275   H     0.68265   0.45969   0.40119   0.00000  Uiso   1.00
H276   H     0.72346   0.47587   0.04943   0.00000  Uiso   1.00
H277   H     0.98256   0.44891   0.49405   0.00000  Uiso   1.00
N278   N     0.98241   0.51407   0.26416   0.00000  Uiso   1.00
N279   N     0.68426   0.48593   0.23584   0.00000  Uiso   1.00
O280   O     0.79464   0.57141   0.24633   0.00000  Uiso   1.00
O281   O     0.89524   0.58089   0.25586   0.00000  Uiso   1.00
O282   O     0.75848   0.49293   0.31840   0.00000  Uiso   1.00
O283   O     0.85908   0.50241   0.32793   0.00000  Uiso   1.00
O284   O     0.77142   0.41911   0.24414   0.00000  Uiso   1.00
O285   O     0.87203   0.42859   0.25367   0.00000  Uiso   1.00
O286   O     0.80758   0.49759   0.17207   0.00000  Uiso   1.00
O287   O     0.90819   0.50707   0.18160   0.00000  Uiso   1.00
O288   O     0.79776   0.44890   0.08182   0.00000  Uiso   1.00
C289   C     0.18085   0.93318   0.25383   0.00000  Uiso   1.00
C290   C     0.11215   0.83238   0.40358   0.00000  Uiso   1.00
C291   C     0.18711   0.98850   0.26154   0.00000  Uiso   1.00
C292   C     0.13309   0.83267   0.34731   0.00000  Uiso   1.00
C293   C     0.14475   0.67764   0.24810   0.00000  Uiso   1.00
C294   C     0.15148   0.73334   0.24962   0.00000  Uiso   1.00
C295   C     0.20060   0.83679   0.15289   0.00000  Uiso   1.00
C296   C     0.28996   0.89865   0.02869   0.00000  Uiso   1.00
C297   C     0.22123   0.84589   0.09780   0.00000  Uiso   1.00
C298   C     0.05000   0.80739   0.42506   0.00000  Uiso   1.00
C299   C     0.03115   0.80000   0.47756   0.00000  Uiso   1.00
C300   C     0.13873   0.83719   0.48816   0.00000  Uiso   1.00
C301   C     0.07487   0.81419   0.00884   0.00000  Uiso   1.00
C302   C     0.15327   0.73660   0.06346   0.00000  Uiso   1.00
C303   C     0.15502   0.85216   0.43617   0.00000  Uiso   1.00
C304   C     0.18622   0.84845   0.01792   0.00000  Uiso   1.00
C305   C     0.24444   0.88338   0.49857   0.00000  Uiso   1.00
C306   C     0.25637   0.90340   0.44961   0.00000  Uiso   1.00
C307   C     0.21272   0.88773   0.41868   0.00000  Uiso   1.00
C308   C     0.17878   0.82542   0.06581   0.00000  Uiso   1.00
C309   C     0.27761   0.88122   0.07861   0.00000  Uiso   1.00
Cl310  Cl    0.24930   0.68805   0.29181   0.00000  Uiso   1.00
Cu311  Cu    0.10710   0.82772   0.24436   0.00000  Uiso   1.00
Cu312  Cu    0.22623   0.83895   0.25564   0.00000  Uiso   1.00
H313   H     0.31104   0.89672   0.10273   0.00000  Uiso   1.00
H314   H     0.22379   0.90583   0.38173   0.00000  Uiso   1.00
H315   H     0.11508   0.70186   0.07603   0.00000  Uiso   1.00
H316   H     0.19437   0.73360   0.07958   0.00000  Uiso   1.00
H317   H     0.16572   0.73514   0.02081   0.00000  Uiso   1.00
H318   H     0.10531   0.98783   0.23300   0.00000  Uiso   1.00
H319   H     0.00366   0.87250   0.28964   0.00000  Uiso   1.00
H320   H     0.32965   0.79413   0.21040   0.00000  Uiso   1.00
H321   H     0.30003   0.93097   0.43489   0.00000  Uiso   1.00
H322   H     0.00077   0.92576   0.01429   0.00000  Uiso   1.00
H323   H     0.01599   0.79303   0.40119   0.00000  Uiso   1.00
H324   H     0.05679   0.80920   0.04943   0.00000  Uiso   1.00
H325   H     0.31589   0.78224   0.49405   0.00000  Uiso   1.00
N326   N     0.31574   0.84741   0.26416   0.00000  Uiso   1.00
N327   N     0.01759   0.81926   0.23584   0.00000  Uiso   1.00
O328   O     0.12797   0.90474   0.24633   0.00000  Uiso   1.00
O329   O     0.22858   0.91422   0.25586   0.00000  Uiso   1.00
O330   O     0.09181   0.82627   0.31840   0.00000  Uiso   1.00
O331   O     0.19242   0.83575   0.32793   0.00000  Uiso   1.00
O332   O     0.10476   0.75245   0.24414   0.00000  Uiso   1.00
O333   O     0.20536   0.76193   0.25367   0.00000  Uiso   1.00
O334   O     0.14092   0.83092   0.17207   0.00000  Uiso   1.00
O335   O     0.24152   0.84040   0.18160   0.00000  Uiso   1.00
O336   O     0.13109   0.78223   0.08182   0.00000  Uiso   1.00
C337   C     0.51418   0.93318   0.25383   0.00000  Uiso   1.00
C338   C     0.44549   0.83238   0.40358   0.00000  Uiso   1.00
C339   C     0.52045   0.98850   0.26154   0.00000  Uiso   1.00
C340   C     0.46642   0.83267   0.34731   0.00000  Uiso   1.00
C341   C     0.47808   0.67764   0.24810   0.00000  Uiso   1.00
C342   C     0.48481   0.73334   0.24962   0.00000  Uiso   1.00
C343   C     0.53393   0.83679   0.15289   0.00000  Uiso   1.00
C344   C     0.62329   0.89865   0.02869   0.00000  Uiso   1.00
C345   C     0.55456   0.84589   0.09780   0.00000  Uiso   1.00
C346   C     0.38333   0.80739   0.42506   0.00000  Uiso   1.00
C347   C     0.36448   0.80000   0.47756   0.00000  Uiso   1.00
C348   C     0.47206   0.83719   0.48816   0.00000  Uiso   1.00
C349   C     0.40820   0.81419   0.00884   0.00000  Uiso   1.00
C350   C     0.48660   0.73660   0.06346   0.00000  Uiso   1.00
C351   C     0.48835   0.85216   0.43617   0.00000  Uiso   1.00
C352   C     0.51955   0.84845   0.01792   0.00000  Uiso   1.00
C353   C     0.57777   0.88338   0.49857   0.00000  Uiso   1.00
C354   C     0.58970   0.90340   0.44961   0.00000  Uiso   1.00
C355   C     0.54606   0.88773   0.41868   0.00000  Uiso   1.00
C356   C     0.51211   0.82542   0.06581   0.00000  Uiso   1.00
C357   C     0.61094   0.88122   0.07861   0.00000  Uiso   1.00
Cl358  Cl    0.58263   0.68805   0.29181   0.00000  Uiso   1.00
Cu359  Cu    0.44043   0.82772   0.24436   0.00000  Uiso   1.00
Cu360  Cu    0.55957   0.83895   0.25564   0.00000  Uiso   1.00
H361   H     0.64437   0.89672   0.10273   0.00000  Uiso   1.00
H362   H     0.55713   0.90583   0.38173   0.00000  Uiso   1.00
H363   H     0.44841   0.70186   0.07603   0.00000  Uiso   1.00
H364   H     0.52771   0.73360   0.07958   0.00000  Uiso   1.00
H365   H     0.49906   0.73514   0.02081   0.00000  Uiso   1.00
H366   H     0.43864   0.98783   0.23300   0.00000  Uiso   1.00
H367   H     0.33699   0.87250   0.28964   0.00000  Uiso   1.00
H368   H     0.66298   0.79413   0.21040   0.00000  Uiso   1.00
H369   H     0.63336   0.93097   0.43489   0.00000  Uiso   1.00
H370   H     0.33411   0.92576   0.01429   0.00000  Uiso   1.00
H371   H     0.34932   0.79303   0.40119   0.00000  Uiso   1.00
H372   H     0.39013   0.80920   0.04943   0.00000  Uiso   1.00
H373   H     0.64922   0.78224   0.49405   0.00000  Uiso   1.00
N374   N     0.64908   0.84741   0.26416   0.00000  Uiso   1.00
N375   N     0.35092   0.81926   0.23584   0.00000  Uiso   1.00
O376   O     0.46131   0.90474   0.24633   0.00000  Uiso   1.00
O377   O     0.56191   0.91422   0.25586   0.00000  Uiso   1.00
O378   O     0.42515   0.82627   0.31840   0.00000  Uiso   1.00
O379   O     0.52575   0.83575   0.32793   0.00000  Uiso   1.00
O380   O     0.43809   0.75245   0.24414   0.00000  Uiso   1.00
O381   O     0.53869   0.76193   0.25367   0.00000  Uiso   1.00
O382   O     0.47425   0.83092   0.17207   0.00000  Uiso   1.00
O383   O     0.57485   0.84040   0.18160   0.00000  Uiso   1.00
O384   O     0.46443   0.78223   0.08182   0.00000  Uiso   1.00
C385   C     0.84752   0.93318   0.25383   0.00000  Uiso   1.00
C386   C     0.77882   0.83238   0.40358   0.00000  Uiso   1.00
C387   C     0.85378   0.98850   0.26154   0.00000  Uiso   1.00
C388   C     0.79976   0.83267   0.34731   0.00000  Uiso   1.00
C389   C     0.81142   0.67764   0.24810   0.00000  Uiso   1.00
C390   C     0.81815   0.73334   0.24962   0.00000  Uiso   1.00
C391   C     0.86726   0.83679   0.15289   0.00000  Uiso   1.00
C392   C     0.95662   0.89865   0.02869   0.00000  Uiso   1.00
C393   C     0.88789   0.84589   0.09780   0.00000  Uiso   1.00
C394   C     0.71667   0.80739   0.42506   0.00000  Uiso   1.00
C395   C     0.69782   0.80000   0.47756   0.00000  Uiso   1.00
C396   C     0.80540   0.83719   0.48816   0.00000  Uiso   1.00
C397   C     0.74154   0.81419   0.00884   0.00000  Uiso   1.00
C398   C     0.81994   0.73660   0.06346   0.00000  Uiso   1.00
C399   C     0.82169   0.85216   0.43617   0.00000  Uiso   1.00
C400   C     0.85288   0.84845   0.01792   0.00000  Uiso   1.00
C401   C     0.91110   0.88338   0.49857   0.00000  Uiso   1.00
C402   C     0.92304   0.90340   0.44961   0.00000  Uiso   1.00
C403   C     0.87939   0.88773   0.41868   0.00000  Uiso   1.00
C404   C     0.84545   0.82542   0.06581   0.00000  Uiso   1.00
C405   C     0.94427   0.88122   0.07861   0.00000  Uiso   1.00
Cl406  Cl    0.91596   0.68805   0.29181   0.00000  Uiso   1.00
Cu407  Cu    0.77377   0.82772   0.24436   0.00000  Uiso   1.00
Cu408  Cu    0.89290   0.83895   0.25564   0.00000  Uiso   1.00
H409   H     0.97770   0.89672   0.10273   0.00000  Uiso   1.00
H410   H     0.89046   0.90583   0.38173   0.00000  Uiso   1.00
H411   H     0.78174   0.70186   0.07603   0.00000  Uiso   1.00
H412   H     0.86104   0.73360   0.07958   0.00000  Uiso   1.00
H413   H     0.83239   0.73514   0.02081   0.00000  Uiso   1.00
H414   H     0.77197   0.98783   0.23300   0.00000  Uiso   1.00
H415   H     0.67032   0.87250   0.28964   0.00000  Uiso   1.00
H416   H     0.99632   0.79413   0.21040   0.00000  Uiso   1.00
H417   H     0.96669   0.93097   0.43489   0.00000  Uiso   1.00
H418   H     0.66744   0.92576   0.01429   0.00000  Uiso   1.00
H419   H     0.68265   0.79303   0.40119   0.00000  Uiso   1.00
H420   H     0.72346   0.80920   0.04943   0.00000  Uiso   1.00
H421   H     0.98256   0.78224   0.49405   0.00000  Uiso   1.00
N422   N     0.98241   0.84741   0.26416   0.00000  Uiso   1.00
N423   N     0.68426   0.81926   0.23584   0.00000  Uiso   1.00
O424   O     0.79464   0.90474   0.24633   0.00000  Uiso   1.00
O425   O     0.89524   0.91422   0.25586   0.00000  Uiso   1.00
O426   O     0.75848   0.82627   0.31840   0.00000  Uiso   1.00
O427   O     0.85908   0.83575   0.32793   0.00000  Uiso   1.00
O428   O     0.77142   0.75245   0.24414   0.00000  Uiso   1.00
O429   O     0.87203   0.76193   0.25367   0.00000  Uiso   1.00
O430   O     0.80758   0.83092   0.17207   0.00000  Uiso   1.00
O431   O     0.90819   0.84040   0.18160   0.00000  Uiso   1.00
O432   O     0.79776   0.78223   0.08182   0.00000  Uiso   1.00
C433   C     0.18085   0.26651   0.75383   0.00000  Uiso   1.00
C434   C     0.11215   0.16571   0.90358   0.00000  Uiso   1.00
C435   C     0.18711   0.32184   0.76154   0.00000  Uiso   1.00
C436   C     0.13309   0.16600   0.84731   0.00000  Uiso   1.00
C437   C     0.14475   0.01097   0.74810   0.00000  Uiso   1.00
C438   C     0.15148   0.06667   0.74962   0.00000  Uiso   1.00
C439   C     0.20060   0.17013   0.65289   0.00000  Uiso   1.00
C440   C     0.28996   0.23198   0.52869   0.00000  Uiso   1.00
C441   C     0.22123   0.17922   0.59780   0.00000  Uiso   1.00
C442   C     0.05000   0.14072   0.92506   0.00000  Uiso   1.00
C443   C     0.03115   0.13334   0.97756   0.00000  Uiso   1.00
C444   C     0.13873   0.17052   0.98816   0.00000  Uiso   1.00
C445   C     0.07487   0.14752   0.50884   0.00000  Uiso   1.00
C446   C     0.15327   0.06993   0.56346   0.00000  Uiso   1.00
C447   C     0.15502   0.18549   0.93617   0.00000  Uiso   1.00
C448   C     0.18622   0.18178   0.51792   0.00000  Uiso   1.00
C449   C     0.24444   0.21671   0.99857   0.00000  Uiso   1.00
C450   C     0.25637   0.23673   0.94961   0.00000  Uiso   1.00
C451   C     0.21272   0.22106   0.91868   0.00000  Uiso   1.00
C452   C     0.17878   0.15875   0.56581   0.00000  Uiso   1.00
C453   C     0.27761   0.21455   0.57861   0.00000  Uiso   1.00
Cl454  Cl    0.24930   0.02139   0.79181   0.00000  Uiso   1.00
Cu455  Cu    0.10710   0.16105   0.74436   0.00000  Uiso   1.00
Cu456  Cu    0.22623   0.17228   0.75564   0.00000  Uiso   1.00
H457   H     0.31104   0.23005   0.60273   0.00000  Uiso   1.00
H458   H     0.22379   0.23917   0.88173   0.00000  Uiso   1.00
H459   H     0.11508   0.03520   0.57603   0.00000  Uiso   1.00
H460   H     0.19437   0.06693   0.57958   0.00000  Uiso   1.00
H461   H     0.16572   0.06847   0.52081   0.00000  Uiso   1.00
H462   H     0.10531   0.32116   0.73300   0.00000  Uiso   1.00
H463   H     0.00366   0.20584   0.78964   0.00000  Uiso   1.00
H464   H     0.32965   0.12747   0.71040   0.00000  Uiso   1.00
H465   H     0.30003   0.26430   0.93489   0.00000  Uiso   1.00
H466   H     0.00077   0.25909   0.51429   0.00000  Uiso   1.00
H467   H     0.01599   0.12636   0.90119   0.00000  Uiso   1.00
H468   H     0.05679   0.14253   0.54943   0.00000  Uiso   1.00
H469   H     0.31589   0.11558   0.99405   0.00000  Uiso   1.00
N470   N     0.31574   0.18074   0.76416   0.00000  Uiso   1.00
N471   N     0.01759   0.15259   0.73584   0.00000  Uiso   1.00
O472   O     0.12797   0.23807   0.74633   0.00000  Uiso   1.00
O473   O     0.22858   0.24755   0.75586   0.00000  Uiso   1.00
O474   O     0.09181   0.15960   0.81840   0.00000  Uiso   1.00
O475   O     0.19242   0.16908   0.82793   0.00000  Uiso   1.00
O476   O     0.10476   0.08578   0.74414   0.00000  Uiso   1.00
O477   O     0.20536   0.09526   0.75367   0.00000  Uiso   1.00
O478   O     0.14092   0.16425   0.67207   0.00000  Uiso   1.00
O479   O     0.24152   0.17373   0.68160   0.00000  Uiso   1.00
O480   O     0.13109   0.11557   0.58182   0.00000  Uiso   1.00
C481   C     0.51418   0.26651   0.75383   0.00000  Uiso   1.00
C482   C     0.44549   0.16571   0.90358   0.00000  Uiso   1.00
C483   C     0.52045   0.32184   0.76154   0.00000  Uiso   1.00
C484   C     0.46642   0.16600   0.84731   0.00000  Uiso   1.00
C485   C     0.47808   0.01097   0.74810   0.00000  Uiso   1.00
C486   C     0.48481   0.06667   0.74962   0.00000  Uiso   1.00
C487   C     0.53393   0.17013   0.65289   0.00000  Uiso   1.00
C488   C     0.62329   0.23198   0.52869   0.00000  Uiso   1.00
C489   C     0.55456   0.17922   0.59780   0.00000  Uiso   1.00
C490   C     0.38333   0.14072   0.92506   0.00000  Uiso   1.00
C491   C     0.36448   0.13334   0.97756   0.00000  Uiso   1.00
C492   C     0.47206   0.17052   0.98816   0.00000  Uiso   1.00
C493   C     0.40820   0.14752   0.50884   0.00000  Uiso   1.00
C494   C     0.48660   0.06993   0.56346   0.00000  Uiso   1.00
C495   C     0.48835   0.18549   0.93617   0.00000  Uiso   1.00
C496   C     0.51955   0.18178   0.51792   0.00000  Uiso   1.00
C497   C     0.57777   0.21671   0.99857   0.00000  Uiso   1.00
C498   C     0.58970   0.23673   0.94961   0.00000  Uiso   1.00
C499   C     0.54606   0.22106   0.91868   0.00000  Uiso   1.00
C500   C     0.51211   0.15875   0.56581   0.00000  Uiso   1.00
C501   C     0.61094   0.21455   0.57861   0.00000  Uiso   1.00
Cl502  Cl    0.58263   0.02139   0.79181   0.00000  Uiso   1.00
Cu503  Cu    0.44043   0.16105   0.74436   0.00000  Uiso   1.00
Cu504  Cu    0.55957   0.17228   0.75564   0.00000  Uiso   1.00
H505   H     0.64437   0.23005   0.60273   0.00000  Uiso   1.00
H506   H     0.55713   0.23917   0.88173   0.00000  Uiso   1.00
H507   H     0.44841   0.03520   0.57603   0.00000  Uiso   1.00
H508   H     0.52771   0.06693   0.57958   0.00000  Uiso   1.00
H509   H     0.49906   0.06847   0.52081   0.00000  Uiso   1.00
H510   H     0.43864   0.32116   0.73300   0.00000  Uiso   1.00
H511   H     0.33699   0.20584   0.78964   0.00000  Uiso   1.00
H512   H     0.66298   0.12747   0.71040   0.00000  Uiso   1.00
H513   H     0.63336   0.26430   0.93489   0.00000  Uiso   1.00
H514   H     0.33411   0.25909   0.51429   0.00000  Uiso   1.00
H515   H     0.34932   0.12636   0.90119   0.00000  Uiso   1.00
H516   H     0.39013   0.14253   0.54943   0.00000  Uiso   1.00
H517   H     0.64922   0.11558   0.99405   0.00000  Uiso   1.00
N518   N     0.64908   0.18074   0.76416   0.00000  Uiso   1.00
N519   N     0.35092   0.15259   0.73584   0.00000  Uiso   1.00
O520   O     0.46131   0.23807   0.74633   0.00000  Uiso   1.00
O521   O     0.56191   0.24755   0.75586   0.00000  Uiso   1.00
O522   O     0.42515   0.15960   0.81840   0.00000  Uiso   1.00
O523   O     0.52575   0.16908   0.82793   0.00000  Uiso   1.00
O524   O     0.43809   0.08578   0.74414   0.00000  Uiso   1.00
O525   O     0.53869   0.09526   0.75367   0.00000  Uiso   1.00
O526   O     0.47425   0.16425   0.67207   0.00000  Uiso   1.00
O527   O     0.57485   0.17373   0.68160   0.00000  Uiso   1.00
O528   O     0.46443   0.11557   0.58182   0.00000  Uiso   1.00
C529   C     0.84752   0.26651   0.75383   0.00000  Uiso   1.00
C530   C     0.77882   0.16571   0.90358   0.00000  Uiso   1.00
C531   C     0.85378   0.32184   0.76154   0.00000  Uiso   1.00
C532   C     0.79976   0.16600   0.84731   0.00000  Uiso   1.00
C533   C     0.81142   0.01097   0.74810   0.00000  Uiso   1.00
C534   C     0.81815   0.06667   0.74962   0.00000  Uiso   1.00
C535   C     0.86726   0.17013   0.65289   0.00000  Uiso   1.00
C536   C     0.95662   0.23198   0.52869   0.00000  Uiso   1.00
C537   C     0.88789   0.17922   0.59780   0.00000  Uiso   1.00
C538   C     0.71667   0.14072   0.92506   0.00000  Uiso   1.00
C539   C     0.69782   0.13334   0.97756   0.00000  Uiso   1.00
C540   C     0.80540   0.17052   0.98816   0.00000  Uiso   1.00
C541   C     0.74154   0.14752   0.50884   0.00000  Uiso   1.00
C542   C     0.81994   0.06993   0.56346   0.00000  Uiso   1.00
C543   C     0.82169   0.18549   0.93617   0.00000  Uiso   1.00
C544   C     0.85288   0.18178   0.51792   0.00000  Uiso   1.00
C545   C     0.91110   0.21671   0.99857   0.00000  Uiso   1.00
C546   C     0.92304   0.23673   0.94961   0.00000  Uiso   1.00
C547   C     0.87939   0.22106   0.91868   0.00000  Uiso   1.00
C548   C     0.84545   0.15875   0.56581   0.00000  Uiso   1.00
C549   C     0.94427   0.21455   0.57861   0.00000  Uiso   1.00
Cl550  Cl    0.91596   0.02139   0.79181   0.00000  Uiso   1.00
Cu551  Cu    0.77377   0.16105   0.74436   0.00000  Uiso   1.00
Cu552  Cu    0.89290   0.17228   0.75564   0.00000  Uiso   1.00
H553   H     0.97770   0.23005   0.60273   0.00000  Uiso   1.00
H554   H     0.89046   0.23917   0.88173   0.00000  Uiso   1.00
H555   H     0.78174   0.03520   0.57603   0.00000  Uiso   1.00
H556   H     0.86104   0.06693   0.57958   0.00000  Uiso   1.00
H557   H     0.83239   0.06847   0.52081   0.00000  Uiso   1.00
H558   H     0.77197   0.32116   0.73300   0.00000  Uiso   1.00
H559   H     0.67032   0.20584   0.78964   0.00000  Uiso   1.00
H560   H     0.99632   0.12747   0.71040   0.00000  Uiso   1.00
H561   H     0.96669   0.26430   0.93489   0.00000  Uiso   1.00
H562   H     0.66744   0.25909   0.51429   0.00000  Uiso   1.00
H563   H     0.68265   0.12636   0.90119   0.00000  Uiso   1.00
H564   H     0.72346   0.14253   0.54943   0.00000  Uiso   1.00
H565   H     0.98256   0.11558   0.99405   0.00000  Uiso   1.00
N566   N     0.98241   0.18074   0.76416   0.00000  Uiso   1.00
N567   N     0.68426   0.15259   0.73584   0.00000  Uiso   1.00
O568   O     0.79464   0.23807   0.74633   0.00000  Uiso   1.00
O569   O     0.89524   0.24755   0.75586   0.00000  Uiso   1.00
O570   O     0.75848   0.15960   0.81840   0.00000  Uiso   1.00
O571   O     0.85908   0.16908   0.82793   0.00000  Uiso   1.00
O572   O     0.77142   0.08578   0.74414   0.00000  Uiso   1.00
O573   O     0.87203   0.09526   0.75367   0.00000  Uiso   1.00
O574   O     0.80758   0.16425   0.67207   0.00000  Uiso   1.00
O575   O     0.90819   0.17373   0.68160   0.00000  Uiso   1.00
O576   O     0.79776   0.11557   0.58182   0.00000  Uiso   1.00
C577   C     0.18085   0.59984   0.75383   0.00000  Uiso   1.00
C578   C     0.11215   0.49904   0.90358   0.00000  Uiso   1.00
C579   C     0.18711   0.65517   0.76154   0.00000  Uiso   1.00
C580   C     0.13309   0.49934   0.84731   0.00000  Uiso   1.00
C581   C     0.14475   0.34431   0.74810   0.00000  Uiso   1.00
C582   C     0.15148   0.40000   0.74962   0.00000  Uiso   1.00
C583   C     0.20060   0.50346   0.65289   0.00000  Uiso   1.00
C584   C     0.28996   0.56531   0.52869   0.00000  Uiso   1.00
C585   C     0.22123   0.51255   0.59780   0.00000  Uiso   1.00
C586   C     0.05000   0.47405   0.92506   0.00000  Uiso   1.00
C587   C     0.03115   0.46667   0.97756   0.00000  Uiso   1.00
C588   C     0.13873   0.50386   0.98816   0.00000  Uiso   1.00
C589   C     0.07487   0.48085   0.50884   0.00000  Uiso   1.00
C590   C     0.15327   0.40326   0.56346   0.00000  Uiso   1.00
C591   C     0.15502   0.51883   0.93617   0.00000  Uiso   1.00
C592   C     0.18622   0.51512   0.51792   0.00000  Uiso   1.00
C593   C     0.24444   0.55004   0.99857   0.00000  Uiso   1.00
C594   C     0.25637   0.57006   0.94961   0.00000  Uiso   1.00
C595   C     0.21272   0.55439   0.91868   0.00000  Uiso   1.00
C596   C     0.17878   0.49208   0.56581   0.00000  Uiso   1.00
C597   C     0.27761   0.54789   0.57861   0.00000  Uiso   1.00
Cl598  Cl    0.24930   0.35472   0.79181   0.00000  Uiso   1.00
Cu599  Cu    0.10710   0.49439   0.74436   0.00000  Uiso   1.00
Cu600  Cu    0.22623   0.50561   0.75564   0.00000  Uiso   1.00
H601   H     0.31104   0.56338   0.60273   0.00000  Uiso   1.00
H602   H     0.22379   0.57250   0.88173   0.00000  Uiso   1.00
H603   H     0.11508   0.36853   0.57603   0.00000  Uiso   1.00
H604   H     0.19437   0.40026   0.57958   0.00000  Uiso   1.00
H605   H     0.16572   0.40180   0.52081   0.00000  Uiso   1.00
H606   H     0.10531   0.65450   0.73300   0.00000  Uiso   1.00
H607   H     0.00366   0.53917   0.78964   0.00000  Uiso   1.00
H608   H     0.32965   0.46080   0.71040   0.00000  Uiso   1.00
H609   H     0.30003   0.59763   0.93489   0.00000  Uiso   1.00
H610   H     0.00077   0.59242   0.51429   0.00000  Uiso   1.00
H611   H     0.01599   0.45969   0.90119   0.00000  Uiso   1.00
H612   H     0.05679   0.47587   0.54943   0.00000  Uiso   1.00
H613   H     0.31589   0.44891   0.99405   0.00000  Uiso   1.00
N614   N     0.31574   0.51407   0.76416   0.00000  Uiso   1.00
N615   N     0.01759   0.48593   0.73584   0.00000  Uiso   1.00
O616   O     0.12797   0.57141   0.74633   0.00000  Uiso   1.00
O617   O     0.22858   0.58089   0.75586   0.00000  Uiso   1.00
O618   O     0.09181   0.49293   0.81840   0.00000  Uiso   1.00
O619   O     0.19242   0.50241   0.82793   0.00000  Uiso   1.00
O620   O     0.10476   0.41911   0.74414   0.00000  Uiso   1.00
O621   O     0.20536   0.42859   0.75367   0.00000  Uiso   1.00
O622   O     0.14092   0.49759   0.67207   0.00000  Uiso   1.00
O623   O     0.24152   0.50707   0.68160   0.00000  Uiso   1.00
O624   O     0.13109   0.44890   0.58182   0.00000  Uiso   1.00
C625   C     0.51418   0.59984   0.75383   0.00000  Uiso   1.00
C626   C     0.44549   0.49904   0.90358   0.00000  Uiso   1.00
C627   C     0.52045   0.65517   0.76154   0.00000  Uiso   1.00
C628   C     0.46642   0.49934   0.84731   0.00000  Uiso   1.00
C629   C     0.47808   0.34431   0.74810   0.00000  Uiso   1.00
C630   C     0.48481   0.40000   0.74962   0.00000  Uiso   1.00
C631   C     0.53393   0.50346   0.65289   0.00000  Uiso   1.00
C632   C     0.62329   0.56531   0.52869   0.00000  Uiso   1.00
C633   C     0.55456   0.51255   0.59780   0.00000  Uiso   1.00
C634   C     0.38333   0.47405   0.92506   0.00000  Uiso   1.00
C635   C     0.36448   0.46667   0.97756   0.00000  Uiso   1.00
C636   C     0.47206   0.50386   0.98816   0.00000  Uiso   1.00
C637   C     0.40820   0.48085   0.50884   0.00000  Uiso   1.00
C638   C     0.48660   0.40326   0.56346   0.00000  Uiso   1.00
C639   C     0.48835   0.51883   0.93617   0.00000  Uiso   1.00
C640   C     0.51955   0.51512   0.51792   0.00000  Uiso   1.00
C641   C     0.57777   0.55004   0.99857   0.00000  Uiso   1.00
C642   C     0.58970   0.57006   0.94961   0.00000  Uiso   1.00
C643   C     0.54606   0.55439   0.91868   0.00000  Uiso   1.00
C644   C     0.51211   0.49208   0.56581   0.00000  Uiso   1.00
C645   C     0.61094   0.54789   0.57861   0.00000  Uiso   1.00
Cl646  Cl    0.58263   0.35472   0.79181   0.00000  Uiso   1.00
Cu647  Cu    0.44043   0.49439   0.74436   0.00000  Uiso   1.00
Cu648  Cu    0.55957   0.50561   0.75564   0.00000  Uiso   1.00
H649   H     0.64437   0.56338   0.60273   0.00000  Uiso   1.00
H650   H     0.55713   0.57250   0.88173   0.00000  Uiso   1.00
H651   H     0.44841   0.36853   0.57603   0.00000  Uiso   1.00
H652   H     0.52771   0.40026   0.57958   0.00000  Uiso   1.00
H653   H     0.49906   0.40180   0.52081   0.00000  Uiso   1.00
H654   H     0.43864   0.65450   0.73300   0.00000  Uiso   1.00
H655   H     0.33699   0.53917   0.78964   0.00000  Uiso   1.00
H656   H     0.66298   0.46080   0.71040   0.00000  Uiso   1.00
H657   H     0.63336   0.59763   0.93489   0.00000  Uiso   1.00
H658   H     0.33411   0.59242   0.51429   0.00000  Uiso   1.00
H659   H     0.34932   0.45969   0.90119   0.00000  Uiso   1.00
H660   H     0.39013   0.47587   0.54943   0.00000  Uiso   1.00
H661   H     0.64922   0.44891   0.99405   0.00000  Uiso   1.00
N662   N     0.64908   0.51407   0.76416   0.00000  Uiso   1.00
N663   N     0.35092   0.48593   0.73584   0.00000  Uiso   1.00
O664   O     0.46131   0.57141   0.74633   0.00000  Uiso   1.00
O665   O     0.56191   0.58089   0.75586   0.00000  Uiso   1.00
O666   O     0.42515   0.49293   0.81840   0.00000  Uiso   1.00
O667   O     0.52575   0.50241   0.82793   0.00000  Uiso   1.00
O668   O     0.43809   0.41911   0.74414   0.00000  Uiso   1.00
O669   O     0.53869   0.42859   0.75367   0.00000  Uiso   1.00
O670   O     0.47425   0.49759   0.67207   0.00000  Uiso   1.00
O671   O     0.57485   0.50707   0.68160   0.00000  Uiso   1.00
O672   O     0.46443   0.44890   0.58182   0.00000  Uiso   1.00
C673   C     0.84752   0.59984   0.75383   0.00000  Uiso   1.00
C674   C     0.77882   0.49904   0.90358   0.00000  Uiso   1.00
C675   C     0.85378   0.65517   0.76154   0.00000  Uiso   1.00
C676   C     0.79976   0.49934   0.84731   0.00000  Uiso   1.00
C677   C     0.81142   0.34431   0.74810   0.00000  Uiso   1.00
C678   C     0.81815   0.40000   0.74962   0.00000  Uiso   1.00
C679   C     0.86726   0.50346   0.65289   0.00000  Uiso   1.00
C680   C     0.95662   0.56531   0.52869   0.00000  Uiso   1.00
C681   C     0.88789   0.51255   0.59780   0.00000  Uiso   1.00
C682   C     0.71667   0.47405   0.92506   0.00000  Uiso   1.00
C683   C     0.69782   0.46667   0.97756   0.00000  Uiso   1.00
C684   C     0.80540   0.50386   0.98816   0.00000  Uiso   1.00
C685   C     0.74154   0.48085   0.50884   0.00000  Uiso   1.00
C686   C     0.81994   0.40326   0.56346   0.00000  Uiso   1.00
C687   C     0.82169   0.51883   0.93617   0.00000  Uiso   1.00
C688   C     0.85288   0.51512   0.51792   0.00000  Uiso   1.00
C689   C     0.91110   0.55004   0.99857   0.00000  Uiso   1.00
C690   C     0.92304   0.57006   0.94961   0.00000  Uiso   1.00
C691   C     0.87939   0.55439   0.91868   0.00000  Uiso   1.00
C692   C     0.84545   0.49208   0.56581   0.00000  Uiso   1.00
C693   C     0.94427   0.54789   0.57861   0.00000  Uiso   1.00
Cl694  Cl    0.91596   0.35472   0.79181   0.00000  Uiso   1.00
Cu695  Cu    0.77377   0.49439   0.74436   0.00000  Uiso   1.00
Cu696  Cu    0.89290   0.50561   0.75564   0.00000  Uiso   1.00
H697   H     0.97770   0.56338   0.60273   0.00000  Uiso   1.00
H698   H     0.89046   0.57250   0.88173   0.00000  Uiso   1.00
H699   H     0.78174   0.36853   0.57603   0.00000  Uiso   1.00
H700   H     0.86104   0.40026   0.57958   0.00000  Uiso   1.00
H701   H     0.83239   0.40180   0.52081   0.00000  Uiso   1.00
H702   H     0.77197   0.65450   0.73300   0.00000  Uiso   1.00
H703   H     0.67032   0.53917   0.78964   0.00000  Uiso   1.00
H704   H     0.99632   0.46080   0.71040   0.00000  Uiso   1.00
H705   H     0.96669   0.59763   0.93489   0.00000  Uiso   1.00
H706   H     0.66744   0.59242   0.51429   0.00000  Uiso   1.00
H707   H     0.68265   0.45969   0.90119   0.00000  Uiso   1.00
H708   H     0.72346   0.47587   0.54943   0.00000  Uiso   1.00
H709   H     0.98256   0.44891   0.99405   0.00000  Uiso   1.00
N710   N     0.98241   0.51407   0.76416   0.00000  Uiso   1.00
N711   N     0.68426   0.48593   0.73584   0.00000  Uiso   1.00
O712   O     0.79464   0.57141   0.74633   0.00000  Uiso   1.00
O713   O     0.89524   0.58089   0.75586   0.00000  Uiso   1.00
O714   O     0.75848   0.49293   0.81840   0.00000  Uiso   1.00
O715   O     0.85908   0.50241   0.82793   0.00000  Uiso   1.00
O716   O     0.77142   0.41911   0.74414   0.00000  Uiso   1.00
O717   O     0.87203   0.42859   0.75367   0.00000  Uiso   1.00
O718   O     0.80758   0.49759   0.67207   0.00000  Uiso   1.00
O719   O     0.90819   0.50707   0.68160   0.00000  Uiso   1.00
O720   O     0.79776   0.44890   0.58182   0.00000  Uiso   1.00
C721   C     0.18085   0.93318   0.75383   0.00000  Uiso   1.00
C722   C     0.11215   0.83238   0.90358   0.00000  Uiso   1.00
C723   C     0.18711   0.98850   0.76154   0.00000  Uiso   1.00
C724   C     0.13309   0.83267   0.84731   0.00000  Uiso   1.00
C725   C     0.14475   0.67764   0.74810   0.00000  Uiso   1.00
C726   C     0.15148   0.73334   0.74962   0.00000  Uiso   1.00
C727   C     0.20060   0.83679   0.65289   0.00000  Uiso   1.00
C728   C     0.28996   0.89865   0.52869   0.00000  Uiso   1.00
C729   C     0.22123   0.84589   0.59780   0.00000  Uiso   1.00
C730   C     0.05000   0.80739   0.92506   0.00000  Uiso   1.00
C731   C     0.03115   0.80000   0.97756   0.00000  Uiso   1.00
C732   C     0.13873   0.83719   0.98816   0.00000  Uiso   1.00
C733   C     0.07487   0.81419   0.50884   0.00000  Uiso   1.00
C734   C     0.15327   0.73660   0.56346   0.00000  Uiso   1.00
C735   C     0.15502   0.85216   0.93617   0.00000  Uiso   1.00
C736   C     0.18622   0.84845   0.51792   0.00000  Uiso   1.00
C737   C     0.24444   0.88338   0.99857   0.00000  Uiso   1.00
C738   C     0.25637   0.90340   0.94961   0.00000  Uiso   1.00
C739   C     0.21272   0.88773   0.91868   0.00000  Uiso   1.00
C740   C     0.17878   0.82542   0.56581   0.00000  Uiso   1.00
C741   C     0.27761   0.88122   0.57861   0.00000  Uiso   1.00
Cl742  Cl    0.24930   0.68805   0.79181   0.00000  Uiso   1.00
Cu743  Cu    0.10710   0.82772   0.74436   0.00000  Uiso   1.00
Cu744  Cu    0.22623   0.83895   0.75564   0.00000  Uiso   1.00
H745   H     0.31104   0.89672   0.60273   0.00000  Uiso   1.00
H746   H     0.22379   0.90583   0.88173   0.00000  Uiso   1.00
H747   H     0.11508   0.70186   0.57603   0.00000  Uiso   1.00
H748   H     0.19437   0.73360   0.57958   0.00000  Uiso   1.00
H749   H     0.16572   0.73514   0.52081   0.00000  Uiso   1.00
H750   H     0.10531   0.98783   0.73300   0.00000  Uiso   1.00
H751   H     0.00366   0.87250   0.78964   0.00000  Uiso   1.00
H752   H     0.32965   0.79413   0.71040   0.00000  Uiso   1.00
H753   H     0.30003   0.93097   0.93489   0.00000  Uiso   1.00
H754   H     0.00077   0.92576   0.51429   0.00000  Uiso   1.00
H755   H     0.01599   0.79303   0.90119   0.00000  Uiso   1.00
H756   H     0.05679   0.80920   0.54943   0.00000  Uiso   1.00
H757   H     0.31589   0.78224   0.99405   0.00000  Uiso   1.00
N758   N     0.31574   0.84741   0.76416   0.00000  Uiso   1.00
N759   N     0.01759   0.81926   0.73584   0.00000  Uiso   1.00
O760   O     0.12797   0.90474   0.74633   0.00000  Uiso   1.00
O761   O     0.22858   0.91422   0.75586   0.00000  Uiso   1.00
O762   O     0.09181   0.82627   0.81840   0.00000  Uiso   1.00
O763   O     0.19242   0.83575   0.82793   0.00000  Uiso   1.00
O764   O     0.10476   0.75245   0.74414   0.00000  Uiso   1.00
O765   O     0.20536   0.76193   0.75367   0.00000  Uiso   1.00
O766   O     0.14092   0.83092   0.67207   0.00000  Uiso   1.00
O767   O     0.24152   0.84040   0.68160   0.00000  Uiso   1.00
O768   O     0.13109   0.78223   0.58182   0.00000  Uiso   1.00
C769   C     0.51418   0.93318   0.75383   0.00000  Uiso   1.00
C770   C     0.44549   0.83238   0.90358   0.00000  Uiso   1.00
C771   C     0.52045   0.98850   0.76154   0.00000  Uiso   1.00
C772   C     0.46642   0.83267   0.84731   0.00000  Uiso   1.00
C773   C     0.47808   0.67764   0.74810   0.00000  Uiso   1.00
C774   C     0.48481   0.73334   0.74962   0.00000  Uiso   1.00
C775   C     0.53393   0.83679   0.65289   0.00000  Uiso   1.00
C776   C     0.62329   0.89865   0.52869   0.00000  Uiso   1.00
C777   C     0.55456   0.84589   0.59780   0.00000  Uiso   1.00
C778   C     0.38333   0.80739   0.92506   0.00000  Uiso   1.00
C779   C     0.36448   0.80000   0.97756   0.00000  Uiso   1.00
C780   C     0.47206   0.83719   0.98816   0.00000  Uiso   1.00
C781   C     0.40820   0.81419   0.50884   0.00000  Uiso   1.00
C782   C     0.48660   0.73660   0.56346   0.00000  Uiso   1.00
C783   C     0.48835   0.85216   0.93617   0.00000  Uiso   1.00
C784   C     0.51955   0.84845   0.51792   0.00000  Uiso   1.00
C785   C     0.57777   0.88338   0.99857   0.00000  Uiso   1.00
C786   C     0.58970   0.90340   0.94961   0.00000  Uiso   1.00
C787   C     0.54606   0.88773   0.91868   0.00000  Uiso   1.00
C788   C     0.51211   0.82542   0.56581   0.00000  Uiso   1.00
C789   C     0.61094   0.88122   0.57861   0.00000  Uiso   1.00
Cl790  Cl    0.58263   0.68805   0.79181   0.00000  Uiso   1.00
Cu791  Cu    0.44043   0.82772   0.74436   0.00000  Uiso   1.00
Cu792  Cu    0.55957   0.83895   0.75564   0.00000  Uiso   1.00
H793   H     0.64437   0.89672   0.60273   0.00000  Uiso   1.00
H794   H     0.55713   0.90583   0.88173   0.00000  Uiso   1.00
H795   H     0.44841   0.70186   0.57603   0.00000  Uiso   1.00
H796   H     0.52771   0.73360   0.57958   0.00000  Uiso   1.00
H797   H     0.49906   0.73514   0.52081   0.00000  Uiso   1.00
H798   H     0.43864   0.98783   0.73300   0.00000  Uiso   1.00
H799   H     0.33699   0.87250   0.78964   0.00000  Uiso   1.00
H800   H     0.66298   0.79413   0.71040   0.00000  Uiso   1.00
H801   H     0.63336   0.93097   0.93489   0.00000  Uiso   1.00
H802   H     0.33411   0.92576   0.51429   0.00000  Uiso   1.00
H803   H     0.34932   0.79303   0.90119   0.00000  Uiso   1.00
H804   H     0.39013   0.80920   0.54943   0.00000  Uiso   1.00
H805   H     0.64922   0.78224   0.99405   0.00000  Uiso   1.00
N806   N     0.64908   0.84741   0.76416   0.00000  Uiso   1.00
N807   N     0.35092   0.81926   0.73584   0.00000  Uiso   1.00
O808   O     0.46131   0.90474   0.74633   0.00000  Uiso   1.00
O809   O     0.56191   0.91422   0.75586   0.00000  Uiso   1.00
O810   O     0.42515   0.82627   0.81840   0.00000  Uiso   1.00
O811   O     0.52575   0.83575   0.82793   0.00000  Uiso   1.00
O812   O     0.43809   0.75245   0.74414   0.00000  Uiso   1.00
O813   O     0.53869   0.76193   0.75367   0.00000  Uiso   1.00
O814   O     0.47425   0.83092   0.67207   0.00000  Uiso   1.00
O815   O     0.57485   0.84040   0.68160   0.00000  Uiso   1.00
O816   O     0.46443   0.78223   0.58182   0.00000  Uiso   1.00
C817   C     0.84752   0.93318   0.75383   0.00000  Uiso   1.00
C818   C     0.77882   0.83238   0.90358   0.00000  Uiso   1.00
C819   C     0.85378   0.98850   0.76154   0.00000  Uiso   1.00
C820   C     0.79976   0.83267   0.84731   0.00000  Uiso   1.00
C821   C     0.81142   0.67764   0.74810   0.00000  Uiso   1.00
C822   C     0.81815   0.73334   0.74962   0.00000  Uiso   1.00
C823   C     0.86726   0.83679   0.65289   0.00000  Uiso   1.00
C824   C     0.95662   0.89865   0.52869   0.00000  Uiso   1.00
C825   C     0.88789   0.84589   0.59780   0.00000  Uiso   1.00
C826   C     0.71667   0.80739   0.92506   0.00000  Uiso   1.00
C827   C     0.69782   0.80000   0.97756   0.00000  Uiso   1.00
C828   C     0.80540   0.83719   0.98816   0.00000  Uiso   1.00
C829   C     0.74154   0.81419   0.50884   0.00000  Uiso   1.00
C830   C     0.81994   0.73660   0.56346   0.00000  Uiso   1.00
C831   C     0.82169   0.85216   0.93617   0.00000  Uiso   1.00
C832   C     0.85288   0.84845   0.51792   0.00000  Uiso   1.00
C833   C     0.91110   0.88338   0.99857   0.00000  Uiso   1.00
C834   C     0.92304   0.90340   0.94961   0.00000  Uiso   1.00
C835   C     0.87939   0.88773   0.91868   0.00000  Uiso   1.00
C836   C     0.84545   0.82542   0.56581   0.00000  Uiso   1.00
C837   C     0.94427   0.88122   0.57861   0.00000  Uiso   1.00
Cl838  Cl    0.91596   0.68805   0.79181   0.00000  Uiso   1.00
Cu839  Cu    0.77377   0.82772   0.74436   0.00000  Uiso   1.00
Cu840  Cu    0.89290   0.83895   0.75564   0.00000  Uiso   1.00
H841   H     0.97770   0.89672   0.60273   0.00000  Uiso   1.00
H842   H     0.89046   0.90583   0.88173   0.00000  Uiso   1.00
H843   H     0.78174   0.70186   0.57603   0.00000  Uiso   1.00
H844   H     0.86104   0.73360   0.57958   0.00000  Uiso   1.00
H845   H     0.83239   0.73514   0.52081   0.00000  Uiso   1.00
H846   H     0.77197   0.98783   0.73300   0.00000  Uiso   1.00
H847   H     0.67032   0.87250   0.78964   0.00000  Uiso   1.00
H848   H     0.99632   0.79413   0.71040   0.00000  Uiso   1.00
H849   H     0.96669   0.93097   0.93489   0.00000  Uiso   1.00
H850   H     0.66744   0.92576   0.51429   0.00000  Uiso   1.00
H851   H     0.68265   0.79303   0.90119   0.00000  Uiso   1.00
H852   H     0.72346   0.80920   0.54943   0.00000  Uiso   1.00
H853   H     0.98256   0.78224   0.99405   0.00000  Uiso   1.00
N854   N     0.98241   0.84741   0.76416   0.00000  Uiso   1.00
N855   N     0.68426   0.81926   0.73584   0.00000  Uiso   1.00
O856   O     0.79464   0.90474   0.74633   0.00000  Uiso   1.00
O857   O     0.89524   0.91422   0.75586   0.00000  Uiso   1.00
O858   O     0.75848   0.82627   0.81840   0.00000  Uiso   1.00
O859   O     0.85908   0.83575   0.82793   0.00000  Uiso   1.00
O860   O     0.77142   0.75245   0.74414   0.00000  Uiso   1.00
O861   O     0.87203   0.76193   0.75367   0.00000  Uiso   1.00
O862   O     0.80758   0.83092   0.67207   0.00000  Uiso   1.00
O863   O     0.90819   0.84040   0.68160   0.00000  Uiso   1.00
O864   O     0.79776   0.78223   0.58182   0.00000  Uiso   1.00
loop_
_geom_bond_atom_site_label_1
_geom_bond_atom_site_label_2
_geom_bond_distance
_geom_bond_site_symmetry_2
_ccdc_geom_bond_type
C1     O41     1.282   .     A
C1     O40     1.291   .     A
C1     C3      1.427   .     S
C2     C4      1.475   .     S
C2     C15     1.421   .     A
C2     C10     1.403   .     A
C3     C149    1.339   .     S
C3     Cl166   1.781   .     S
C4     O43     1.295   .     A
C4     O42     1.302   .     A
C5     C6      1.430   .     S
C5     C291    1.339   1_545 S
C5     H318    1.088   1_545 S
C6     O44     1.290   .     A
C6     O45     1.285   .     A
C7     O46     1.293   .     A
C7     C9      1.464   .     S
C7     O47     1.299   .     A
C8     C21     1.391   .     A
C8     C449    1.403   1_554 S
C8     H82     1.084   .     S
C9     C20     1.406   .     A
C9     C21     1.398   .     A
C10    H35     1.083   .     S
C10    C11     1.389   .     A
C11    C445    1.392   .     S
C11    H133    1.083   1_455 S
C12    C15     1.418   .     A
C12    C445    1.416   .     S
C12    C448    1.427   .     S
C13    H36     1.078   .     S
C13    C444    1.416   1_554 S
C13    C443    1.392   1_554 S
C14    H27     1.109   .     S
C14    H29     1.114   .     S
C14    O48     1.410   .     S
C14    H28     1.114   .     S
C15    C19     1.412   .     A
C16    C20     1.415   .     A
C16    C444    1.427   1_554 S
C16    C449    1.421   1_554 S
C17    C18     1.393   .     A
C17    C448    1.421   .     S
C17    C440    1.403   .     S
C18    H33     1.084   .     S
C18    C19     1.387   .     A
C19    H26     1.081   .     S
C20    O48     1.383   .     S
C21    H25     1.083   .     S
Cl22   C291    1.781   1_545 S
Cu23   Cu24    2.683   .     S
Cu23   O46     1.915   .     S
Cu23   O42     1.936   .     S
Cu23   N39     2.016   .     S
Cu23   O40     1.963   .     S
Cu23   O44     1.958   .     S
Cu24   N38     2.016   .     S
Cu24   O41     1.958   .     S
Cu24   O45     1.963   .     S
Cu24   O43     1.915   .     S
Cu24   O47     1.936   .     S
H30    C149    1.088   .     S
H31    N134    1.029   1_455 S
H32    N87     1.029   .     S
H34    C104    1.084   1_455 S
H37    C59     1.083   .     S
N38    H79     1.029   .     S
N38    N87     1.285   .     S
N39    N134    1.285   1_455 S
N39    H128    1.029   1_455 S
C49    O89     1.282   .     A
C49    O88     1.291   .     A
C49    C51     1.427   .     S
C50    C52     1.475   .     S
C50    C63     1.421   .     A
C50    C58     1.403   .     A
C51    C197    1.339   .     S
C51    Cl214   1.781   .     S
C52    O91     1.295   .     A
C52    O90     1.302   .     A
C53    C54     1.430   .     S
C53    C339    1.339   1_545 S
C53    H366    1.088   1_545 S
C54    O92     1.290   .     A
C54    O93     1.285   .     A
C55    O94     1.293   .     A
C55    C57     1.464   .     S
C55    O95     1.299   .     A
C56    C69     1.391   .     A
C56    C497    1.403   1_554 S
C56    H130    1.084   .     S
C57    C68     1.406   .     A
C57    C69     1.398   .     A
C58    H83     1.083   .     S
C58    C59     1.389   .     A
C59    C493    1.392   .     S
C60    C63     1.418   .     A
C60    C493    1.416   .     S
C60    C496    1.427   .     S
C61    H84     1.078   .     S
C61    C492    1.416   1_554 S
C61    C491    1.392   1_554 S
C62    H75     1.109   .     S
C62    H77     1.114   .     S
C62    O96     1.410   .     S
C62    H76     1.114   .     S
C63    C67     1.412   .     A
C64    C68     1.415   .     A
C64    C492    1.427   1_554 S
C64    C497    1.421   1_554 S
C65    C66     1.393   .     A
C65    C496    1.421   .     S
C65    C488    1.403   .     S
C66    H81     1.084   .     S
C66    C67     1.387   .     A
C67    H74     1.081   .     S
C68    O96     1.383   .     S
C69    H73     1.083   .     S
Cl70   C339    1.781   1_545 S
Cu71   Cu72    2.683   .     S
Cu71   O94     1.915   .     S
Cu71   O90     1.936   .     S
Cu71   N87     2.016   .     S
Cu71   O88     1.963   .     S
Cu71   O92     1.958   .     S
Cu72   N86     2.016   .     S
Cu72   O89     1.958   .     S
Cu72   O93     1.963   .     S
Cu72   O91     1.915   .     S
Cu72   O95     1.936   .     S
H78    C197    1.088   .     S
H80    N135    1.029   .     S
H85    C107    1.083   .     S
N86    H127    1.029   .     S
N86    N135    1.285   .     S
C97    O137    1.282   .     A
C97    O136    1.291   .     A
C97    C99     1.427   .     S
C98    C100    1.475   .     S
C98    C111    1.421   .     A
C98    C106    1.403   .     A
C99    C245    1.339   .     S
C99    Cl262   1.781   .     S
C100   O139    1.295   .     A
C100   O138    1.302   .     A
C101   C102    1.430   .     S
C101   C387    1.339   1_545 S
C101   H414    1.088   1_545 S
C102   O140    1.290   .     A
C102   O141    1.285   .     A
C103   O142    1.293   .     A
C103   C105    1.464   .     S
C103   O143    1.299   .     A
C104   C117    1.391   .     A
C104   C545    1.403   1_554 S
C104   H34     1.084   1_655 S
C105   C116    1.406   .     A
C105   C117    1.398   .     A
C106   H131    1.083   .     S
C106   C107    1.389   .     A
C107   C541    1.392   .     S
C108   C111    1.418   .     A
C108   C541    1.416   .     S
C108   C544    1.427   .     S
C109   H132    1.078   .     S
C109   C540    1.416   1_554 S
C109   C539    1.392   1_554 S
C110   H123    1.109   .     S
C110   H125    1.114   .     S
C110   O144    1.410   .     S
C110   H124    1.114   .     S
C111   C115    1.412   .     A
C112   C116    1.415   .     A
C112   C540    1.427   1_554 S
C112   C545    1.421   1_554 S
C113   C114    1.393   .     A
C113   C544    1.421   .     S
C113   C536    1.403   .     S
C114   H129    1.084   .     S
C114   C115    1.387   .     A
C115   H122    1.081   .     S
C116   O144    1.383   .     S
C117   H121    1.083   .     S
Cl118  C387    1.781   1_545 S
Cu119  Cu120   2.683   .     S
Cu119  O142    1.915   .     S
Cu119  O138    1.936   .     S
Cu119  N135    2.016   .     S
Cu119  O136    1.963   .     S
Cu119  O140    1.958   .     S
Cu120  N134    2.016   .     S
Cu120  O137    1.958   .     S
Cu120  O141    1.963   .     S
Cu120  O139    1.915   .     S
Cu120  O143    1.936   .     S
H126   C245    1.088   .     S
H128   N39     1.029   1_655 S
H133   C11     1.083   1_655 S
N134   H31     1.029   1_655 S
N134   N39     1.285   1_655 S
C145   O185    1.282   .     A
C145   O184    1.291   .     A
C145   C147    1.427   .     S
C146   C148    1.475   .     S
C146   C159    1.421   .     A
C146   C154    1.403   .     A
C147   C293    1.339   .     S
C147   Cl310   1.781   .     S
C148   O187    1.295   .     A
C148   O186    1.302   .     A
C149   C150    1.430   .     S
C150   O188    1.290   .     A
C150   O189    1.285   .     A
C151   O190    1.293   .     A
C151   C153    1.464   .     S
C151   O191    1.299   .     A
C152   C165    1.391   .     A
C152   C593    1.403   1_554 S
C152   H226    1.084   .     S
C153   C164    1.406   .     A
C153   C165    1.398   .     A
C154   H179    1.083   .     S
C154   C155    1.389   .     A
C155   C589    1.392   .     S
C155   H277    1.083   1_455 S
C156   C159    1.418   .     A
C156   C589    1.416   .     S
C156   C592    1.427   .     S
C157   H180    1.078   .     S
C157   C588    1.416   1_554 S
C157   C587    1.392   1_554 S
C158   H171    1.109   .     S
C158   H173    1.114   .     S
C158   O192    1.410   .     S
C158   H172    1.114   .     S
C159   C163    1.412   .     A
C160   C164    1.415   .     A
C160   C588    1.427   1_554 S
C160   C593    1.421   1_554 S
C161   C162    1.393   .     A
C161   C592    1.421   .     S
C161   C584    1.403   .     S
C162   H177    1.084   .     S
C162   C163    1.387   .     A
C163   H170    1.081   .     S
C164   O192    1.383   .     S
C165   H169    1.083   .     S
Cu167  Cu168   2.683   .     S
Cu167  O190    1.915   .     S
Cu167  O186    1.936   .     S
Cu167  N183    2.016   .     S
Cu167  O184    1.963   .     S
Cu167  O188    1.958   .     S
Cu168  N182    2.016   .     S
Cu168  O185    1.958   .     S
Cu168  O189    1.963   .     S
Cu168  O187    1.915   .     S
Cu168  O191    1.936   .     S
H174   C293    1.088   .     S
H175   N278    1.029   1_455 S
H176   N231    1.029   .     S
H178   C248    1.084   1_455 S
H181   C203    1.083   .     S
N182   H223    1.029   .     S
N182   N231    1.285   .     S
N183   N278    1.285   1_455 S
N183   H272    1.029   1_455 S
C193   O233    1.282   .     A
C193   O232    1.291   .     A
C193   C195    1.427   .     S
C194   C196    1.475   .     S
C194   C207    1.421   .     A
C194   C202    1.403   .     A
C195   C341    1.339   .     S
C195   Cl358   1.781   .     S
C196   O235    1.295   .     A
C196   O234    1.302   .     A
C197   C198    1.430   .     S
C198   O236    1.290   .     A
C198   O237    1.285   .     A
C199   O238    1.293   .     A
C199   C201    1.464   .     S
C199   O239    1.299   .     A
C200   C213    1.391   .     A
C200   C641    1.403   1_554 S
C200   H274    1.084   .     S
C201   C212    1.406   .     A
C201   C213    1.398   .     A
C202   H227    1.083   .     S
C202   C203    1.389   .     A
C203   C637    1.392   .     S
C204   C207    1.418   .     A
C204   C637    1.416   .     S
C204   C640    1.427   .     S
C205   H228    1.078   .     S
C205   C636    1.416   1_554 S
C205   C635    1.392   1_554 S
C206   H219    1.109   .     S
C206   H221    1.114   .     S
C206   O240    1.410   .     S
C206   H220    1.114   .     S
C207   C211    1.412   .     A
C208   C212    1.415   .     A
C208   C636    1.427   1_554 S
C208   C641    1.421   1_554 S
C209   C210    1.393   .     A
C209   C640    1.421   .     S
C209   C632    1.403   .     S
C210   H225    1.084   .     S
C210   C211    1.387   .     A
C211   H218    1.081   .     S
C212   O240    1.383   .     S
C213   H217    1.083   .     S
Cu215  Cu216   2.683   .     S
Cu215  O238    1.915   .     S
Cu215  O234    1.936   .     S
Cu215  N231    2.016   .     S
Cu215  O232    1.963   .     S
Cu215  O236    1.958   .     S
Cu216  N230    2.016   .     S
Cu216  O233    1.958   .     S
Cu216  O237    1.963   .     S
Cu216  O235    1.915   .     S
Cu216  O239    1.936   .     S
H222   C341    1.088   .     S
H224   N279    1.029   .     S
H229   C251    1.083   .     S
N230   H271    1.029   .     S
N230   N279    1.285   .     S
C241   O281    1.282   .     A
C241   O280    1.291   .     A
C241   C243    1.427   .     S
C242   C244    1.475   .     S
C242   C255    1.421   .     A
C242   C250    1.403   .     A
C243   C389    1.339   .     S
C243   Cl406   1.781   .     S
C244   O283    1.295   .     A
C244   O282    1.302   .     A
C245   C246    1.430   .     S
C246   O284    1.290   .     A
C246   O285    1.285   .     A
C247   O286    1.293   .     A
C247   C249    1.464   .     S
C247   O287    1.299   .     A
C248   C261    1.391   .     A
C248   C689    1.403   1_554 S
C248   H178    1.084   1_655 S
C249   C260    1.406   .     A
C249   C261    1.398   .     A
C250   H275    1.083   .     S
C250   C251    1.389   .     A
C251   C685    1.392   .     S
C252   C255    1.418   .     A
C252   C685    1.416   .     S
C252   C688    1.427   .     S
C253   H276    1.078   .     S
C253   C684    1.416   1_554 S
C253   C683    1.392   1_554 S
C254   H267    1.109   .     S
C254   H269    1.114   .     S
C254   O288    1.410   .     S
C254   H268    1.114   .     S
C255   C259    1.412   .     A
C256   C260    1.415   .     A
C256   C684    1.427   1_554 S
C256   C689    1.421   1_554 S
C257   C258    1.393   .     A
C257   C688    1.421   .     S
C257   C680    1.403   .     S
C258   H273    1.084   .     S
C258   C259    1.387   .     A
C259   H266    1.081   .     S
C260   O288    1.383   .     S
C261   H265    1.083   .     S
Cu263  Cu264   2.683   .     S
Cu263  O286    1.915   .     S
Cu263  O282    1.936   .     S
Cu263  N279    2.016   .     S
Cu263  O280    1.963   .     S
Cu263  O284    1.958   .     S
Cu264  N278    2.016   .     S
Cu264  O281    1.958   .     S
Cu264  O285    1.963   .     S
Cu264  O283    1.915   .     S
Cu264  O287    1.936   .     S
H270   C389    1.088   .     S
H272   N183    1.029   1_655 S
H277   C155    1.083   1_655 S
N278   H175    1.029   1_655 S
N278   N183    1.285   1_655 S
C289   O329    1.282   .     A
C289   O328    1.291   .     A
C289   C291    1.427   .     S
C290   C292    1.475   .     S
C290   C303    1.421   .     A
C290   C298    1.403   .     A
C291   C5      1.339   1_565 S
C291   Cl22    1.781   1_565 S
C292   O331    1.295   .     A
C292   O330    1.302   .     A
C293   C294    1.430   .     S
C294   O332    1.290   .     A
C294   O333    1.285   .     A
C295   O334    1.293   .     A
C295   C297    1.464   .     S
C295   O335    1.299   .     A
C296   C309    1.391   .     A
C296   C737    1.403   1_554 S
C296   H370    1.084   .     S
C297   C308    1.406   .     A
C297   C309    1.398   .     A
C298   H323    1.083   .     S
C298   C299    1.389   .     A
C299   C733    1.392   .     S
C299   H421    1.083   1_455 S
C300   C303    1.418   .     A
C300   C733    1.416   .     S
C300   C736    1.427   .     S
C301   H324    1.078   .     S
C301   C732    1.416   1_554 S
C301   C731    1.392   1_554 S
C302   H315    1.109   .     S
C302   H317    1.114   .     S
C302   O336    1.410   .     S
C302   H316    1.114   .     S
C303   C307    1.412   .     A
C304   C308    1.415   .     A
C304   C732    1.427   1_554 S
C304   C737    1.421   1_554 S
C305   C306    1.393   .     A
C305   C736    1.421   .     S
C305   C728    1.403   .     S
C306   H321    1.084   .     S
C306   C307    1.387   .     A
C307   H314    1.081   .     S
C308   O336    1.383   .     S
C309   H313    1.083   .     S
Cu311  Cu312   2.683   .     S
Cu311  O334    1.915   .     S
Cu311  O330    1.936   .     S
Cu311  N327    2.016   .     S
Cu311  O328    1.963   .     S
Cu311  O332    1.958   .     S
Cu312  N326    2.016   .     S
Cu312  O329    1.958   .     S
Cu312  O333    1.963   .     S
Cu312  O331    1.915   .     S
Cu312  O335    1.936   .     S
H318   C5      1.088   1_565 S
H319   N422    1.029   1_455 S
H320   N375    1.029   .     S
H322   C392    1.084   1_455 S
H325   C347    1.083   .     S
N326   H367    1.029   .     S
N326   N375    1.285   .     S
N327   N422    1.285   1_455 S
N327   H416    1.029   1_455 S
C337   O377    1.282   .     A
C337   O376    1.291   .     A
C337   C339    1.427   .     S
C338   C340    1.475   .     S
C338   C351    1.421   .     A
C338   C346    1.403   .     A
C339   C53     1.339   1_565 S
C339   Cl70    1.781   1_565 S
C340   O379    1.295   .     A
C340   O378    1.302   .     A
C341   C342    1.430   .     S
C342   O380    1.290   .     A
C342   O381    1.285   .     A
C343   O382    1.293   .     A
C343   C345    1.464   .     S
C343   O383    1.299   .     A
C344   C357    1.391   .     A
C344   C785    1.403   1_554 S
C344   H418    1.084   .     S
C345   C356    1.406   .     A
C345   C357    1.398   .     A
C346   H371    1.083   .     S
C346   C347    1.389   .     A
C347   C781    1.392   .     S
C348   C351    1.418   .     A
C348   C781    1.416   .     S
C348   C784    1.427   .     S
C349   H372    1.078   .     S
C349   C780    1.416   1_554 S
C349   C779    1.392   1_554 S
C350   H363    1.109   .     S
C350   H365    1.114   .     S
C350   O384    1.410   .     S
C350   H364    1.114   .     S
C351   C355    1.412   .     A
C352   C356    1.415   .     A
C352   C780    1.427   1_554 S
C352   C785    1.421   1_554 S
C353   C354    1.393   .     A
C353   C784    1.421   .     S
C353   C776    1.403   .     S
C354   H369    1.084   .     S
C354   C355    1.387   .     A
C355   H362    1.081   .     S
C356   O384    1.383   .     S
C357   H361    1.083   .     S
Cu359  Cu360   2.683   .     S
Cu359  O382    1.915   .     S
Cu359  O378    1.936   .     S
Cu359  N375    2.016   .     S
Cu359  O376    1.963   .     S
Cu359  O380    1.958   .     S
Cu360  N374    2.016   .     S
Cu360  O377    1.958   .     S
Cu360  O381    1.963   .     S
Cu360  O379    1.915   .     S
Cu360  O383    1.936   .     S
H366   C53     1.088   1_565 S
H368   N423    1.029   .     S
H373   C395    1.083   .     S
N374   H415    1.029   .     S
N374   N423    1.285   .     S
C385   O425    1.282   .     A
C385   O424    1.291   .     A
C385   C387    1.427   .     S
C386   C388    1.475   .     S
C386   C399    1.421   .     A
C386   C394    1.403   .     A
C387   C101    1.339   1_565 S
C387   Cl118   1.781   1_565 S
C388   O427    1.295   .     A
C388   O426    1.302   .     A
C389   C390    1.430   .     S
C390   O428    1.290   .     A
C390   O429    1.285   .     A
C391   O430    1.293   .     A
C391   C393    1.464   .     S
C391   O431    1.299   .     A
C392   C405    1.391   .     A
C392   C833    1.403   1_554 S
C392   H322    1.084   1_655 S
C393   C404    1.406   .     A
C393   C405    1.398   .     A
C394   H419    1.083   .     S
C394   C395    1.389   .     A
C395   C829    1.392   .     S
C396   C399    1.418   .     A
C396   C829    1.416   .     S
C396   C832    1.427   .     S
C397   H420    1.078   .     S
C397   C828    1.416   1_554 S
C397   C827    1.392   1_554 S
C398   H411    1.109   .     S
C398   H413    1.114   .     S
C398   O432    1.410   .     S
C398   H412    1.114   .     S
C399   C403    1.412   .     A
C400   C404    1.415   .     A
C400   C828    1.427   1_554 S
C400   C833    1.421   1_554 S
C401   C402    1.393   .     A
C401   C832    1.421   .     S
C401   C824    1.403   .     S
C402   H417    1.084   .     S
C402   C403    1.387   .     A
C403   H410    1.081   .     S
C404   O432    1.383   .     S
C405   H409    1.083   .     S
Cu407  Cu408   2.683   .     S
Cu407  O430    1.915   .     S
Cu407  O426    1.936   .     S
Cu407  N423    2.016   .     S
Cu407  O424    1.963   .     S
Cu407  O428    1.958   .     S
Cu408  N422    2.016   .     S
Cu408  O425    1.958   .     S
Cu408  O429    1.963   .     S
Cu408  O427    1.915   .     S
Cu408  O431    1.936   .     S
H414   C101    1.088   1_565 S
H416   N327    1.029   1_655 S
H421   C299    1.083   1_655 S
N422   H319    1.029   1_655 S
N422   N327    1.285   1_655 S
C433   O473    1.282   .     A
C433   O472    1.291   .     A
C433   C435    1.427   .     S
C434   C436    1.475   .     S
C434   C447    1.421   .     A
C434   C442    1.403   .     A
C435   C581    1.339   .     S
C435   Cl598   1.781   .     S
C436   O475    1.295   .     A
C436   O474    1.302   .     A
C437   C438    1.430   .     S
C437   C723    1.339   1_545 S
C437   H750    1.088   1_545 S
C438   O476    1.290   .     A
C438   O477    1.285   .     A
C439   O478    1.293   .     A
C439   C441    1.464   .     S
C439   O479    1.299   .     A
C440   C453    1.391   .     A
C440   H514    1.084   .     S
C441   C452    1.406   .     A
C441   C453    1.398   .     A
C442   H467    1.083   .     S
C442   C443    1.389   .     A
C443   C13     1.392   1_556 S
C443   H565    1.083   1_455 S
C444   C447    1.418   .     A
C444   C13     1.416   1_556 S
C444   C16     1.427   1_556 S
C445   H468    1.078   .     S
C446   H459    1.109   .     S
C446   H461    1.114   .     S
C446   O480    1.410   .     S
C446   H460    1.114   .     S
C447   C451    1.412   .     A
C448   C452    1.415   .     A
C449   C450    1.393   .     A
C449   C16     1.421   1_556 S
C449   C8      1.403   1_556 S
C450   H465    1.084   .     S
C450   C451    1.387   .     A
C451   H458    1.081   .     S
C452   O480    1.383   .     S
C453   H457    1.083   .     S
Cl454  C723    1.781   1_545 S
Cu455  Cu456   2.683   .     S
Cu455  O478    1.915   .     S
Cu455  O474    1.936   .     S
Cu455  N471    2.016   .     S
Cu455  O472    1.963   .     S
Cu455  O476    1.958   .     S
Cu456  N470    2.016   .     S
Cu456  O473    1.958   .     S
Cu456  O477    1.963   .     S
Cu456  O475    1.915   .     S
Cu456  O479    1.936   .     S
H462   C581    1.088   .     S
H463   N566    1.029   1_455 S
H464   N519    1.029   .     S
H466   C536    1.084   1_455 S
H469   C491    1.083   .     S
N470   H511    1.029   .     S
N470   N519    1.285   .     S
N471   N566    1.285   1_455 S
N471   H560    1.029   1_455 S
C481   O521    1.282   .     A
C481   O520    1.291   .     A
C481   C483    1.427   .     S
C482   C484    1.475   .     S
C482   C495    1.421   .     A
C482   C490    1.403   .     A
C483   C629    1.339   .     S
C483   Cl646   1.781   .     S
C484   O523    1.295   .     A
C484   O522    1.302   .     A
C485   C486    1.430   .     S
C485   C771    1.339   1_545 S
C485   H798    1.088   1_545 S
C486   O524    1.290   .     A
C486   O525    1.285   .     A
C487   O526    1.293   .     A
C487   C489    1.464   .     S
C487   O527    1.299   .     A
C488   C501    1.391   .     A
C488   H562    1.084   .     S
C489   C500    1.406   .     A
C489   C501    1.398   .     A
C490   H515    1.083   .     S
C490   C491    1.389   .     A
C491   C61     1.392   1_556 S
C492   C495    1.418   .     A
C492   C61     1.416   1_556 S
C492   C64     1.427   1_556 S
C493   H516    1.078   .     S
C494   H507    1.109   .     S
C494   H509    1.114   .     S
C494   O528    1.410   .     S
C494   H508    1.114   .     S
C495   C499    1.412   .     A
C496   C500    1.415   .     A
C497   C498    1.393   .     A
C497   C64     1.421   1_556 S
C497   C56     1.403   1_556 S
C498   H513    1.084   .     S
C498   C499    1.387   .     A
C499   H506    1.081   .     S
C500   O528    1.383   .     S
C501   H505    1.083   .     S
Cl502  C771    1.781   1_545 S
Cu503  Cu504   2.683   .     S
Cu503  O526    1.915   .     S
Cu503  O522    1.936   .     S
Cu503  N519    2.016   .     S
Cu503  O520    1.963   .     S
Cu503  O524    1.958   .     S
Cu504  N518    2.016   .     S
Cu504  O521    1.958   .     S
Cu504  O525    1.963   .     S
Cu504  O523    1.915   .     S
Cu504  O527    1.936   .     S
H510   C629    1.088   .     S
H512   N567    1.029   .     S
H517   C539    1.083   .     S
N518   H559    1.029   .     S
N518   N567    1.285   .     S
C529   O569    1.282   .     A
C529   O568    1.291   .     A
C529   C531    1.427   .     S
C530   C532    1.475   .     S
C530   C543    1.421   .     A
C530   C538    1.403   .     A
C531   C677    1.339   .     S
C531   Cl694   1.781   .     S
C532   O571    1.295   .     A
C532   O570    1.302   .     A
C533   C534    1.430   .     S
C533   C819    1.339   1_545 S
C533   H846    1.088   1_545 S
C534   O572    1.290   .     A
C534   O573    1.285   .     A
C535   O574    1.293   .     A
C535   C537    1.464   .     S
C535   O575    1.299   .     A
C536   C549    1.391   .     A
C536   H466    1.084   1_655 S
C537   C548    1.406   .     A
C537   C549    1.398   .     A
C538   H563    1.083   .     S
C538   C539    1.389   .     A
C539   C109    1.392   1_556 S
C540   C543    1.418   .     A
C540   C109    1.416   1_556 S
C540   C112    1.427   1_556 S
C541   H564    1.078   .     S
C542   H555    1.109   .     S
C542   H557    1.114   .     S
C542   O576    1.410   .     S
C542   H556    1.114   .     S
C543   C547    1.412   .     A
C544   C548    1.415   .     A
C545   C546    1.393   .     A
C545   C112    1.421   1_556 S
C545   C104    1.403   1_556 S
C546   H561    1.084   .     S
C546   C547    1.387   .     A
C547   H554    1.081   .     S
C548   O576    1.383   .     S
C549   H553    1.083   .     S
Cl550  C819    1.781   1_545 S
Cu551  Cu552   2.683   .     S
Cu551  O574    1.915   .     S
Cu551  O570    1.936   .     S
Cu551  N567    2.016   .     S
Cu551  O568    1.963   .     S
Cu551  O572    1.958   .     S
Cu552  N566    2.016   .     S
Cu552  O569    1.958   .     S
Cu552  O573    1.963   .     S
Cu552  O571    1.915   .     S
Cu552  O575    1.936   .     S
H558   C677    1.088   .     S
H560   N471    1.029   1_655 S
H565   C443    1.083   1_655 S
N566   H463    1.029   1_655 S
N566   N471    1.285   1_655 S
C577   O617    1.282   .     A
C577   O616    1.291   .     A
C577   C579    1.427   .     S
C578   C580    1.475   .     S
C578   C591    1.421   .     A
C578   C586    1.403   .     A
C579   C725    1.339   .     S
C579   Cl742   1.781   .     S
C580   O619    1.295   .     A
C580   O618    1.302   .     A
C581   C582    1.430   .     S
C582   O620    1.290   .     A
C582   O621    1.285   .     A
C583   O622    1.293   .     A
C583   C585    1.464   .     S
C583   O623    1.299   .     A
C584   C597    1.391   .     A
C584   H658    1.084   .     S
C585   C596    1.406   .     A
C585   C597    1.398   .     A
C586   H611    1.083   .     S
C586   C587    1.389   .     A
C587   C157    1.392   1_556 S
C587   H709    1.083   1_455 S
C588   C591    1.418   .     A
C588   C157    1.416   1_556 S
C588   C160    1.427   1_556 S
C589   H612    1.078   .     S
C590   H603    1.109   .     S
C590   H605    1.114   .     S
C590   O624    1.410   .     S
C590   H604    1.114   .     S
C591   C595    1.412   .     A
C592   C596    1.415   .     A
C593   C594    1.393   .     A
C593   C160    1.421   1_556 S
C593   C152    1.403   1_556 S
C594   H609    1.084   .     S
C594   C595    1.387   .     A
C595   H602    1.081   .     S
C596   O624    1.383   .     S
C597   H601    1.083   .     S
Cu599  Cu600   2.683   .     S
Cu599  O622    1.915   .     S
Cu599  O618    1.936   .     S
Cu599  N615    2.016   .     S
Cu599  O616    1.963   .     S
Cu599  O620    1.958   .     S
Cu600  N614    2.016   .     S
Cu600  O617    1.958   .     S
Cu600  O621    1.963   .     S
Cu600  O619    1.915   .     S
Cu600  O623    1.936   .     S
H606   C725    1.088   .     S
H607   N710    1.029   1_455 S
H608   N663    1.029   .     S
H610   C680    1.084   1_455 S
H613   C635    1.083   .     S
N614   H655    1.029   .     S
N614   N663    1.285   .     S
N615   N710    1.285   1_455 S
N615   H704    1.029   1_455 S
C625   O665    1.282   .     A
C625   O664    1.291   .     A
C625   C627    1.427   .     S
C626   C628    1.475   .     S
C626   C639    1.421   .     A
C626   C634    1.403   .     A
C627   C773    1.339   .     S
C627   Cl790   1.781   .     S
C628   O667    1.295   .     A
C628   O666    1.302   .     A
C629   C630    1.430   .     S
C630   O668    1.290   .     A
C630   O669    1.285   .     A
C631   O670    1.293   .     A
C631   C633    1.464   .     S
C631   O671    1.299   .     A
C632   C645    1.391   .     A
C632   H706    1.084   .     S
C633   C644    1.406   .     A
C633   C645    1.398   .     A
C634   H659    1.083   .     S
C634   C635    1.389   .     A
C635   C205    1.392   1_556 S
C636   C639    1.418   .     A
C636   C205    1.416   1_556 S
C636   C208    1.427   1_556 S
C637   H660    1.078   .     S
C638   H651    1.109   .     S
C638   H653    1.114   .     S
C638   O672    1.410   .     S
C638   H652    1.114   .     S
C639   C643    1.412   .     A
C640   C644    1.415   .     A
C641   C642    1.393   .     A
C641   C208    1.421   1_556 S
C641   C200    1.403   1_556 S
C642   H657    1.084   .     S
C642   C643    1.387   .     A
C643   H650    1.081   .     S
C644   O672    1.383   .     S
C645   H649    1.083   .     S
Cu647  Cu648   2.683   .     S
Cu647  O670    1.915   .     S
Cu647  O666    1.936   .     S
Cu647  N663    2.016   .     S
Cu647  O664    1.963   .     S
Cu647  O668    1.958   .     S
Cu648  N662    2.016   .     S
Cu648  O665    1.958   .     S
Cu648  O669    1.963   .     S
Cu648  O667    1.915   .     S
Cu648  O671    1.936   .     S
H654   C773    1.088   .     S
H656   N711    1.029   .     S
H661   C683    1.083   .     S
N662   H703    1.029   .     S
N662   N711    1.285   .     S
C673   O713    1.282   .     A
C673   O712    1.291   .     A
C673   C675    1.427   .     S
C674   C676    1.475   .     S
C674   C687    1.421   .     A
C674   C682    1.403   .     A
C675   C821    1.339   .     S
C675   Cl838   1.781   .     S
C676   O715    1.295   .     A
C676   O714    1.302   .     A
C677   C678    1.430   .     S
C678   O716    1.290   .     A
C678   O717    1.285   .     A
C679   O718    1.293   .     A
C679   C681    1.464   .     S
C679   O719    1.299   .     A
C680   C693    1.391   .     A
C680   H610    1.084   1_655 S
C681   C692    1.406   .     A
C681   C693    1.398   .     A
C682   H707    1.083   .     S
C682   C683    1.389   .     A
C683   C253    1.392   1_556 S
C684   C687    1.418   .     A
C684   C253    1.416   1_556 S
C684   C256    1.427   1_556 S
C685   H708    1.078   .     S
C686   H699    1.109   .     S
C686   H701    1.114   .     S
C686   O720    1.410   .     S
C686   H700    1.114   .     S
C687   C691    1.412   .     A
C688   C692    1.415   .     A
C689   C690    1.393   .     A
C689   C256    1.421   1_556 S
C689   C248    1.403   1_556 S
C690   H705    1.084   .     S
C690   C691    1.387   .     A
C691   H698    1.081   .     S
C692   O720    1.383   .     S
C693   H697    1.083   .     S
Cu695  Cu696   2.683   .     S
Cu695  O718    1.915   .     S
Cu695  O714    1.936   .     S
Cu695  N711    2.016   .     S
Cu695  O712    1.963   .     S
Cu695  O716    1.958   .     S
Cu696  N710    2.016   .     S
Cu696  O713    1.958   .     S
Cu696  O717    1.963   .     S
Cu696  O715    1.915   .     S
Cu696  O719    1.936   .     S
H702   C821    1.088   .     S
H704   N615    1.029   1_655 S
H709   C587    1.083   1_655 S
N710   H607    1.029   1_655 S
N710   N615    1.285   1_655 S
C721   O761    1.282   .     A
C721   O760    1.291   .     A
C721   C723    1.427   .     S
C722   C724    1.475   .     S
C722   C735    1.421   .     A
C722   C730    1.403   .     A
C723   C437    1.339   1_565 S
C723   Cl454   1.781   1_565 S
C724   O763    1.295   .     A
C724   O762    1.302   .     A
C725   C726    1.430   .     S
C726   O764    1.290   .     A
C726   O765    1.285   .     A
C727   O766    1.293   .     A
C727   C729    1.464   .     S
C727   O767    1.299   .     A
C728   C741    1.391   .     A
C728   H802    1.084   .     S
C729   C740    1.406   .     A
C729   C741    1.398   .     A
C730   H755    1.083   .     S
C730   C731    1.389   .     A
C731   C301    1.392   1_556 S
C731   H853    1.083   1_455 S
C732   C735    1.418   .     A
C732   C301    1.416   1_556 S
C732   C304    1.427   1_556 S
C733   H756    1.078   .     S
C734   H747    1.109   .     S
C734   H749    1.114   .     S
C734   O768    1.410   .     S
C734   H748    1.114   .     S
C735   C739    1.412   .     A
C736   C740    1.415   .     A
C737   C738    1.393   .     A
C737   C304    1.421   1_556 S
C737   C296    1.403   1_556 S
C738   H753    1.084   .     S
C738   C739    1.387   .     A
C739   H746    1.081   .     S
C740   O768    1.383   .     S
C741   H745    1.083   .     S
Cu743  Cu744   2.683   .     S
Cu743  O766    1.915   .     S
Cu743  O762    1.936   .     S
Cu743  N759    2.016   .     S
Cu743  O760    1.963   .     S
Cu743  O764    1.958   .     S
Cu744  N758    2.016   .     S
Cu744  O761    1.958   .     S
Cu744  O765    1.963   .     S
Cu744  O763    1.915   .     S
Cu744  O767    1.936   .     S
H750   C437    1.088   1_565 S
H751   N854    1.029   1_455 S
H752   N807    1.029   .     S
H754   C824    1.084   1_455 S
H757   C779    1.083   .     S
N758   H799    1.029   .     S
N758   N807    1.285   .     S
N759   N854    1.285   1_455 S
N759   H848    1.029   1_455 S
C769   O809    1.282   .     A
C769   O808    1.291   .     A
C769   C771    1.427   .     S
C770   C772    1.475   .     S
C770   C783    1.421   .     A
C770   C778    1.403   .     A
C771   C485    1.339   1_565 S
C771   Cl502   1.781   1_565 S
C772   O811    1.295   .     A
C772   O810    1.302   .     A
C773   C774    1.430   .     S
C774   O812    1.290   .     A
C774   O813    1.285   .     A
C775   O814    1.293   .     A
C775   C777    1.464   .     S
C775   O815    1.299   .     A
C776   C789    1.391   .     A
C776   H850    1.084   .     S
C777   C788    1.406   .     A
C777   C789    1.398   .     A
C778   H803    1.083   .     S
C778   C779    1.389   .     A
C779   C349    1.392   1_556 S
C780   C783    1.418   .     A
C780   C349    1.416   1_556 S
C780   C352    1.427   1_556 S
C781   H804    1.078   .     S
C782   H795    1.109   .     S
C782   H797    1.114   .     S
C782   O816    1.410   .     S
C782   H796    1.114   .     S
C783   C787    1.412   .     A
C784   C788    1.415   .     A
C785   C786    1.393   .     A
C785   C352    1.421   1_556 S
C785   C344    1.403   1_556 S
C786   H801    1.084   .     S
C786   C787    1.387   .     A
C787   H794    1.081   .     S
C788   O816    1.383   .     S
C789   H793    1.083   .     S
Cu791  Cu792   2.683   .     S
Cu791  O814    1.915   .     S
Cu791  O810    1.936   .     S
Cu791  N807    2.016   .     S
Cu791  O808    1.963   .     S
Cu791  O812    1.958   .     S
Cu792  N806    2.016   .     S
Cu792  O809    1.958   .     S
Cu792  O813    1.963   .     S
Cu792  O811    1.915   .     S
Cu792  O815    1.936   .     S
H798   C485    1.088   1_565 S
H800   N855    1.029   .     S
H805   C827    1.083   .     S
N806   H847    1.029   .     S
N806   N855    1.285   .     S
C817   O857    1.282   .     A
C817   O856    1.291   .     A
C817   C819    1.427   .     S
C818   C820    1.475   .     S
C818   C831    1.421   .     A
C818   C826    1.403   .     A
C819   C533    1.339   1_565 S
C819   Cl550   1.781   1_565 S
C820   O859    1.295   .     A
C820   O858    1.302   .     A
C821   C822    1.430   .     S
C822   O860    1.290   .     A
C822   O861    1.285   .     A
C823   O862    1.293   .     A
C823   C825    1.464   .     S
C823   O863    1.299   .     A
C824   C837    1.391   .     A
C824   H754    1.084   1_655 S
C825   C836    1.406   .     A
C825   C837    1.398   .     A
C826   H851    1.083   .     S
C826   C827    1.389   .     A
C827   C397    1.392   1_556 S
C828   C831    1.418   .     A
C828   C397    1.416   1_556 S
C828   C400    1.427   1_556 S
C829   H852    1.078   .     S
C830   H843    1.109   .     S
C830   H845    1.114   .     S
C830   O864    1.410   .     S
C830   H844    1.114   .     S
C831   C835    1.412   .     A
C832   C836    1.415   .     A
C833   C834    1.393   .     A
C833   C400    1.421   1_556 S
C833   C392    1.403   1_556 S
C834   H849    1.084   .     S
C834   C835    1.387   .     A
C835   H842    1.081   .     S
C836   O864    1.383   .     S
C837   H841    1.083   .     S
Cu839  Cu840   2.683   .     S
Cu839  O862    1.915   .     S
Cu839  O858    1.936   .     S
Cu839  N855    2.016   .     S
Cu839  O856    1.963   .     S
Cu839  O860    1.958   .     S
Cu840  N854    2.016   .     S
Cu840  O857    1.958   .     S
Cu840  O861    1.963   .     S
Cu840  O859    1.915   .     S
Cu840  O863    1.936   .     S
H846   C533    1.088   1_565 S
H848   N759    1.029   1_655 S
H853   C731    1.083   1_655 S
N854   H751    1.029   1_655 S
N854   N759    1.285   1_655 S
