data_str_m1_o10_o16_pcu_sym.109
_audit_creation_date              2020-01-03
_audit_creation_method            'Materials Studio'
_symmetry_space_group_name_H-M    'P1'
_symmetry_Int_Tables_number       1
_symmetry_cell_setting            triclinic
loop_
_symmetry_equiv_pos_as_xyz
  x,y,z
_cell_length_a                    32.7060
_cell_length_b                    32.5939
_cell_length_c                    30.9639
_cell_angle_alpha                 96.6531
_cell_angle_beta                  74.4095
_cell_angle_gamma                 98.4983
loop_
_atom_site_label
_atom_site_type_symbol
_atom_site_fract_x
_atom_site_fract_y
_atom_site_fract_z
_atom_site_U_iso_or_equiv
_atom_site_adp_type
_atom_site_occupancy
C1     C     0.05312   0.16033   0.25941   0.00000  Uiso   1.00
C2     C     0.16039   0.15374   0.06237   0.00000  Uiso   1.00
C3     C     0.22467   0.12121   0.05337   0.00000  Uiso   1.00
C4     C     0.28069   0.17349   0.24025   0.00000  Uiso   1.00
C5     C     0.13836   0.19011   0.42074   0.00000  Uiso   1.00
C6     C     0.32619   0.17401   0.23675   0.00000  Uiso   1.00
C7     C     0.00754   0.15692   0.26683   0.00000  Uiso   1.00
C8     C     0.17993   0.32291   0.23756   0.00000  Uiso   1.00
C9     C     0.15010   0.01267   0.26516   0.00000  Uiso   1.00
C10    C     0.15585   0.05635   0.26044   0.00000  Uiso   1.00
C11    C     0.17637   0.27800   0.24035   0.00000  Uiso   1.00
C12    C     0.12361   0.24050   0.48518   0.00000  Uiso   1.00
C13    C     0.18524   0.14823   0.12934   0.00000  Uiso   1.00
C14    C     0.14718   0.18334   0.37121   0.00000  Uiso   1.00
C15    C     0.22154   0.10457   0.01031   0.00000  Uiso   1.00
C16    C     0.19091   0.14179   0.08104   0.00000  Uiso   1.00
C17    C     0.12292   0.22733   0.44118   0.00000  Uiso   1.00
C18    C     0.28814   0.15351   0.06434   0.00000  Uiso   1.00
C19    C     0.31694   0.15668   0.01627   0.00000  Uiso   1.00
C20    C     0.01160   0.19858   0.01137   0.00000  Uiso   1.00
C21    C     0.31282   0.13781   0.30967   0.00000  Uiso   1.00
C22    C     0.00390   0.12555   0.34147   0.00000  Uiso   1.00
C23    C     0.13888   0.21639   0.01098   0.00000  Uiso   1.00
C24    C     0.30643   0.10722   0.38306   0.00000  Uiso   1.00
C25    C     0.21885   0.00929   0.20339   0.00000  Uiso   1.00
C26    C     0.25699   0.02137   0.22424   0.00000  Uiso   1.00
C27    C     0.29438   0.04556   0.19257   0.00000  Uiso   1.00
C28    C     0.11033   0.32899   0.30047   0.00000  Uiso   1.00
C29    C     0.08093   0.02816   0.32621   0.00000  Uiso   1.00
C30    C     0.04275   0.00815   0.36077   0.00000  Uiso   1.00
C31    C     0.23402   0.03718   0.49803   0.00000  Uiso   1.00
C32    C     0.26404   0.00690   0.46958   0.00000  Uiso   1.00
C33    C     0.24766   0.29544   0.48110   0.00000  Uiso   1.00
C34    C     0.15079   0.17645   0.49222   0.00000  Uiso   1.00
C35    C     0.09195   0.13090   0.10059   0.00000  Uiso   1.00
C36    C     0.06562   0.12003   0.06588   0.00000  Uiso   1.00
C37    C     0.02924   0.08540   0.08072   0.00000  Uiso   1.00
C38    C     0.12154   0.25892   0.07870   0.00000  Uiso   1.00
C39    C     0.14107   0.30463   0.07989   0.00000  Uiso   1.00
C40    C     0.11123   0.33202   0.11349   0.00000  Uiso   1.00
C41    C     0.15022   0.16319   0.44696   0.00000  Uiso   1.00
C42    C     0.16806   0.15099   0.01543   0.00000  Uiso   1.00
C43    C     0.19319   0.12006   0.49096   0.00000  Uiso   1.00
C44    C     0.18850   0.10497   0.44844   0.00000  Uiso   1.00
C45    C     0.16379   0.12412   0.42864   0.00000  Uiso   1.00
H46    H     0.20318   0.07802   0.43077   0.00000  Uiso   1.00
H47    H     0.32467   0.22420   0.01712   0.00000  Uiso   1.00
H48    H     0.03283   0.19920   0.47676   0.00000  Uiso   1.00
H49    H     0.03163   0.20386   0.03573   0.00000  Uiso   1.00
H50    H     0.28449   0.13001   0.40162   0.00000  Uiso   1.00
H51    H     0.28733   0.07827   0.37325   0.00000  Uiso   1.00
H52    H     0.32481   0.09967   0.40588   0.00000  Uiso   1.00
H53    H     0.02539   0.10212   0.32362   0.00000  Uiso   1.00
H54    H     0.02348   0.15341   0.35285   0.00000  Uiso   1.00
H55    H     0.29157   0.16083   0.32930   0.00000  Uiso   1.00
H56    H     0.29322   0.10921   0.29978   0.00000  Uiso   1.00
H57    H     0.11341   0.24827   0.42194   0.00000  Uiso   1.00
H58    H     0.30503   0.02659   0.16033   0.00000  Uiso   1.00
H59    H     0.28481   0.07501   0.18577   0.00000  Uiso   1.00
H60    H     0.32157   0.05338   0.20837   0.00000  Uiso   1.00
H61    H     0.24749   0.04098   0.25626   0.00000  Uiso   1.00
H62    H     0.26764   0.32611   0.23185   0.00000  Uiso   1.00
H63    H     0.22800   0.32051   0.17329   0.00000  Uiso   1.00
H64    H     0.21151   0.03685   0.19017   0.00000  Uiso   1.00
H65    H     0.02337   0.31728   0.34385   0.00000  Uiso   1.00
H66    H     0.05383   0.32711   0.38576   0.00000  Uiso   1.00
H67    H     0.02221   0.03220   0.37883   0.00000  Uiso   1.00
H68    H     0.11527   0.27134   0.49756   0.00000  Uiso   1.00
H69    H     0.09906   0.05282   0.34409   0.00000  Uiso   1.00
H70    H     0.06873   0.04272   0.30218   0.00000  Uiso   1.00
H71    H     0.09070   0.30512   0.28339   0.00000  Uiso   1.00
H72    H     0.12092   0.31475   0.32594   0.00000  Uiso   1.00
H73    H     0.20160   0.02782   0.49222   0.00000  Uiso   1.00
H74    H     0.23231   0.03512   0.03418   0.00000  Uiso   1.00
H75    H     0.26675   0.00922   0.43335   0.00000  Uiso   1.00
H76    H     0.29637   0.01537   0.47557   0.00000  Uiso   1.00
H77    H     0.24496   0.29229   0.01714   0.00000  Uiso   1.00
H78    H     0.27029   0.27426   0.46023   0.00000  Uiso   1.00
H79    H     0.15733   0.10858   0.39805   0.00000  Uiso   1.00
H80    H     0.21585   0.28599   0.47416   0.00000  Uiso   1.00
H81    H     0.07009   0.13868   0.13389   0.00000  Uiso   1.00
H82    H     0.10622   0.10283   0.10412   0.00000  Uiso   1.00
H83    H     0.05228   0.14815   0.06163   0.00000  Uiso   1.00
H84    H     0.08631   0.10948   0.03296   0.00000  Uiso   1.00
H85    H     0.04211   0.05712   0.08571   0.00000  Uiso   1.00
H86    H     0.01129   0.07730   0.05453   0.00000  Uiso   1.00
H87    H     0.00686   0.09577   0.11261   0.00000  Uiso   1.00
H88    H     0.11539   0.24839   0.11299   0.00000  Uiso   1.00
H89    H     0.08969   0.25524   0.07111   0.00000  Uiso   1.00
H90    H     0.01540   0.18869   0.20850   0.00000  Uiso   1.00
H91    H     0.17180   0.30733   0.08954   0.00000  Uiso   1.00
H92    H     0.14794   0.31613   0.04602   0.00000  Uiso   1.00
H93    H     0.08052   0.33042   0.10411   0.00000  Uiso   1.00
H94    H     0.12648   0.03147   0.11343   0.00000  Uiso   1.00
H95    H     0.10482   0.32183   0.14796   0.00000  Uiso   1.00
H96    H     0.30864   0.15383   0.08773   0.00000  Uiso   1.00
H97    H     0.27128   0.18177   0.07509   0.00000  Uiso   1.00
H98    H     0.00416   0.13115   0.00750   0.00000  Uiso   1.00
H99    H     0.29720   0.15366   0.49175   0.00000  Uiso   1.00
O100   O     0.16667   0.16667   0.25000   0.00000  Uiso   1.00
O101   O     0.15451   0.12637   0.15458   0.00000  Uiso   1.00
O102   O     0.12940   0.20391   0.34968   0.00000  Uiso   1.00
O103   O     0.20824   0.17759   0.14606   0.00000  Uiso   1.00
O104   O     0.17451   0.15880   0.34968   0.00000  Uiso   1.00
O105   O     0.25968   0.11592   0.06824   0.00000  Uiso   1.00
O106   O     0.24986   0.07788   0.48528   0.00000  Uiso   1.00
O107   O     0.12256   0.16630   0.08968   0.00000  Uiso   1.00
O108   O     0.15142   0.23434   0.04928   0.00000  Uiso   1.00
O109   O     0.17930   0.08019   0.28213   0.00000  Uiso   1.00
O110   O     0.14632   0.26085   0.27013   0.00000  Uiso   1.00
O111   O     0.07412   0.13291   0.23413   0.00000  Uiso   1.00
O112   O     0.26693   0.19272   0.21360   0.00000  Uiso   1.00
O113   O     0.07071   0.18878   0.28213   0.00000  Uiso   1.00
O114   O     0.25491   0.15226   0.27013   0.00000  Uiso   1.00
O115   O     0.13760   0.06944   0.23413   0.00000  Uiso   1.00
O116   O     0.20345   0.25620   0.21360   0.00000  Uiso   1.00
Zn117  Zn    0.19338   0.13994   0.28734   0.00000  Uiso   1.00
Zn118  Zn    0.13379   0.12458   0.21875   0.00000  Uiso   1.00
Zn119  Zn    0.21056   0.19775   0.20657   0.00000  Uiso   1.00
Zn120  Zn    0.12893   0.20439   0.28733   0.00000  Uiso   1.00
C121   C     0.38645   0.16033   0.25941   0.00000  Uiso   1.00
C122   C     0.49373   0.15374   0.06237   0.00000  Uiso   1.00
C123   C     0.55800   0.12121   0.05337   0.00000  Uiso   1.00
C124   C     0.61402   0.17349   0.24025   0.00000  Uiso   1.00
C125   C     0.47169   0.19011   0.42074   0.00000  Uiso   1.00
C126   C     0.65952   0.17401   0.23675   0.00000  Uiso   1.00
C127   C     0.34087   0.15692   0.26683   0.00000  Uiso   1.00
C128   C     0.51326   0.32291   0.23756   0.00000  Uiso   1.00
C129   C     0.48344   0.01267   0.26516   0.00000  Uiso   1.00
C130   C     0.48918   0.05635   0.26044   0.00000  Uiso   1.00
C131   C     0.50971   0.27800   0.24035   0.00000  Uiso   1.00
C132   C     0.45694   0.24050   0.48518   0.00000  Uiso   1.00
C133   C     0.51857   0.14823   0.12934   0.00000  Uiso   1.00
C134   C     0.48051   0.18334   0.37121   0.00000  Uiso   1.00
C135   C     0.55487   0.10457   0.01031   0.00000  Uiso   1.00
C136   C     0.52424   0.14179   0.08104   0.00000  Uiso   1.00
C137   C     0.45626   0.22733   0.44118   0.00000  Uiso   1.00
C138   C     0.62148   0.15351   0.06434   0.00000  Uiso   1.00
C139   C     0.65028   0.15668   0.01627   0.00000  Uiso   1.00
C140   C     0.34493   0.19858   0.01137   0.00000  Uiso   1.00
C141   C     0.64616   0.13781   0.30967   0.00000  Uiso   1.00
C142   C     0.33724   0.12555   0.34147   0.00000  Uiso   1.00
C143   C     0.47221   0.21639   0.01098   0.00000  Uiso   1.00
C144   C     0.63976   0.10722   0.38306   0.00000  Uiso   1.00
C145   C     0.55219   0.00929   0.20339   0.00000  Uiso   1.00
C146   C     0.59033   0.02137   0.22424   0.00000  Uiso   1.00
C147   C     0.62771   0.04556   0.19257   0.00000  Uiso   1.00
C148   C     0.44366   0.32899   0.30047   0.00000  Uiso   1.00
C149   C     0.41426   0.02816   0.32621   0.00000  Uiso   1.00
C150   C     0.37609   0.00815   0.36077   0.00000  Uiso   1.00
C151   C     0.56736   0.03718   0.49803   0.00000  Uiso   1.00
C152   C     0.59737   0.00690   0.46958   0.00000  Uiso   1.00
C153   C     0.58099   0.29544   0.48110   0.00000  Uiso   1.00
C154   C     0.48412   0.17645   0.49222   0.00000  Uiso   1.00
C155   C     0.42528   0.13090   0.10059   0.00000  Uiso   1.00
C156   C     0.39896   0.12003   0.06588   0.00000  Uiso   1.00
C157   C     0.36257   0.08540   0.08072   0.00000  Uiso   1.00
C158   C     0.45488   0.25892   0.07870   0.00000  Uiso   1.00
C159   C     0.47441   0.30463   0.07989   0.00000  Uiso   1.00
C160   C     0.44457   0.33202   0.11349   0.00000  Uiso   1.00
C161   C     0.48355   0.16319   0.44696   0.00000  Uiso   1.00
C162   C     0.50140   0.15099   0.01543   0.00000  Uiso   1.00
C163   C     0.52652   0.12006   0.49096   0.00000  Uiso   1.00
C164   C     0.52183   0.10497   0.44844   0.00000  Uiso   1.00
C165   C     0.49712   0.12412   0.42864   0.00000  Uiso   1.00
H166   H     0.53651   0.07802   0.43077   0.00000  Uiso   1.00
H167   H     0.65800   0.22420   0.01712   0.00000  Uiso   1.00
H168   H     0.36616   0.19920   0.47676   0.00000  Uiso   1.00
H169   H     0.36497   0.20386   0.03573   0.00000  Uiso   1.00
H170   H     0.61782   0.13001   0.40162   0.00000  Uiso   1.00
H171   H     0.62067   0.07827   0.37325   0.00000  Uiso   1.00
H172   H     0.65814   0.09967   0.40588   0.00000  Uiso   1.00
H173   H     0.35872   0.10212   0.32362   0.00000  Uiso   1.00
H174   H     0.35682   0.15341   0.35285   0.00000  Uiso   1.00
H175   H     0.62490   0.16083   0.32930   0.00000  Uiso   1.00
H176   H     0.62655   0.10921   0.29978   0.00000  Uiso   1.00
H177   H     0.44674   0.24827   0.42194   0.00000  Uiso   1.00
H178   H     0.63836   0.02659   0.16033   0.00000  Uiso   1.00
H179   H     0.61814   0.07501   0.18577   0.00000  Uiso   1.00
H180   H     0.65491   0.05338   0.20837   0.00000  Uiso   1.00
H181   H     0.58083   0.04098   0.25626   0.00000  Uiso   1.00
H182   H     0.60098   0.32611   0.23185   0.00000  Uiso   1.00
H183   H     0.56133   0.32051   0.17329   0.00000  Uiso   1.00
H184   H     0.54485   0.03685   0.19017   0.00000  Uiso   1.00
H185   H     0.35670   0.31728   0.34385   0.00000  Uiso   1.00
H186   H     0.38716   0.32711   0.38576   0.00000  Uiso   1.00
H187   H     0.35555   0.03220   0.37883   0.00000  Uiso   1.00
H188   H     0.44860   0.27134   0.49756   0.00000  Uiso   1.00
H189   H     0.43239   0.05282   0.34409   0.00000  Uiso   1.00
H190   H     0.40207   0.04272   0.30218   0.00000  Uiso   1.00
H191   H     0.42404   0.30512   0.28339   0.00000  Uiso   1.00
H192   H     0.45425   0.31475   0.32594   0.00000  Uiso   1.00
H193   H     0.53493   0.02782   0.49222   0.00000  Uiso   1.00
H194   H     0.56564   0.03512   0.03418   0.00000  Uiso   1.00
H195   H     0.60008   0.00922   0.43335   0.00000  Uiso   1.00
H196   H     0.62970   0.01537   0.47557   0.00000  Uiso   1.00
H197   H     0.57829   0.29229   0.01714   0.00000  Uiso   1.00
H198   H     0.60363   0.27426   0.46023   0.00000  Uiso   1.00
H199   H     0.49066   0.10858   0.39805   0.00000  Uiso   1.00
H200   H     0.54918   0.28599   0.47416   0.00000  Uiso   1.00
H201   H     0.40343   0.13868   0.13389   0.00000  Uiso   1.00
H202   H     0.43956   0.10283   0.10412   0.00000  Uiso   1.00
H203   H     0.38562   0.14815   0.06163   0.00000  Uiso   1.00
H204   H     0.41964   0.10948   0.03296   0.00000  Uiso   1.00
H205   H     0.37545   0.05712   0.08571   0.00000  Uiso   1.00
H206   H     0.34462   0.07730   0.05453   0.00000  Uiso   1.00
H207   H     0.34020   0.09577   0.11261   0.00000  Uiso   1.00
H208   H     0.44872   0.24839   0.11299   0.00000  Uiso   1.00
H209   H     0.42303   0.25524   0.07111   0.00000  Uiso   1.00
H210   H     0.34874   0.18869   0.20850   0.00000  Uiso   1.00
H211   H     0.50514   0.30733   0.08954   0.00000  Uiso   1.00
H212   H     0.48128   0.31613   0.04602   0.00000  Uiso   1.00
H213   H     0.41386   0.33042   0.10411   0.00000  Uiso   1.00
H214   H     0.45981   0.03147   0.11343   0.00000  Uiso   1.00
H215   H     0.43815   0.32183   0.14796   0.00000  Uiso   1.00
H216   H     0.64197   0.15383   0.08773   0.00000  Uiso   1.00
H217   H     0.60462   0.18177   0.07509   0.00000  Uiso   1.00
H218   H     0.33750   0.13115   0.00750   0.00000  Uiso   1.00
H219   H     0.63053   0.15366   0.49175   0.00000  Uiso   1.00
O220   O     0.50000   0.16667   0.25000   0.00000  Uiso   1.00
O221   O     0.48784   0.12637   0.15458   0.00000  Uiso   1.00
O222   O     0.46274   0.20391   0.34968   0.00000  Uiso   1.00
O223   O     0.54157   0.17759   0.14606   0.00000  Uiso   1.00
O224   O     0.50785   0.15880   0.34968   0.00000  Uiso   1.00
O225   O     0.59301   0.11592   0.06824   0.00000  Uiso   1.00
O226   O     0.58319   0.07788   0.48528   0.00000  Uiso   1.00
O227   O     0.45589   0.16630   0.08968   0.00000  Uiso   1.00
O228   O     0.48475   0.23434   0.04928   0.00000  Uiso   1.00
O229   O     0.51264   0.08019   0.28213   0.00000  Uiso   1.00
O230   O     0.47965   0.26085   0.27013   0.00000  Uiso   1.00
O231   O     0.40745   0.13291   0.23413   0.00000  Uiso   1.00
O232   O     0.60026   0.19272   0.21360   0.00000  Uiso   1.00
O233   O     0.40405   0.18878   0.28213   0.00000  Uiso   1.00
O234   O     0.58824   0.15226   0.27013   0.00000  Uiso   1.00
O235   O     0.47093   0.06944   0.23413   0.00000  Uiso   1.00
O236   O     0.53678   0.25620   0.21360   0.00000  Uiso   1.00
Zn237  Zn    0.52672   0.13994   0.28734   0.00000  Uiso   1.00
Zn238  Zn    0.46713   0.12458   0.21875   0.00000  Uiso   1.00
Zn239  Zn    0.54389   0.19775   0.20657   0.00000  Uiso   1.00
Zn240  Zn    0.46226   0.20439   0.28733   0.00000  Uiso   1.00
C241   C     0.71978   0.16033   0.25941   0.00000  Uiso   1.00
C242   C     0.82706   0.15374   0.06237   0.00000  Uiso   1.00
C243   C     0.89133   0.12121   0.05337   0.00000  Uiso   1.00
C244   C     0.94736   0.17349   0.24025   0.00000  Uiso   1.00
C245   C     0.80503   0.19011   0.42074   0.00000  Uiso   1.00
C246   C     0.99286   0.17401   0.23675   0.00000  Uiso   1.00
C247   C     0.67420   0.15692   0.26683   0.00000  Uiso   1.00
C248   C     0.84659   0.32291   0.23756   0.00000  Uiso   1.00
C249   C     0.81677   0.01267   0.26516   0.00000  Uiso   1.00
C250   C     0.82252   0.05635   0.26044   0.00000  Uiso   1.00
C251   C     0.84304   0.27800   0.24035   0.00000  Uiso   1.00
C252   C     0.79028   0.24050   0.48518   0.00000  Uiso   1.00
C253   C     0.85190   0.14823   0.12934   0.00000  Uiso   1.00
C254   C     0.81384   0.18334   0.37121   0.00000  Uiso   1.00
C255   C     0.88821   0.10457   0.01031   0.00000  Uiso   1.00
C256   C     0.85758   0.14179   0.08104   0.00000  Uiso   1.00
C257   C     0.78959   0.22733   0.44118   0.00000  Uiso   1.00
C258   C     0.95481   0.15351   0.06434   0.00000  Uiso   1.00
C259   C     0.98361   0.15668   0.01627   0.00000  Uiso   1.00
C260   C     0.67827   0.19858   0.01137   0.00000  Uiso   1.00
C261   C     0.97949   0.13781   0.30967   0.00000  Uiso   1.00
C262   C     0.67057   0.12555   0.34147   0.00000  Uiso   1.00
C263   C     0.80554   0.21639   0.01098   0.00000  Uiso   1.00
C264   C     0.97310   0.10722   0.38306   0.00000  Uiso   1.00
C265   C     0.88552   0.00929   0.20339   0.00000  Uiso   1.00
C266   C     0.92366   0.02137   0.22424   0.00000  Uiso   1.00
C267   C     0.96105   0.04556   0.19257   0.00000  Uiso   1.00
C268   C     0.77699   0.32899   0.30047   0.00000  Uiso   1.00
C269   C     0.74759   0.02816   0.32621   0.00000  Uiso   1.00
C270   C     0.70942   0.00815   0.36077   0.00000  Uiso   1.00
C271   C     0.90069   0.03718   0.49803   0.00000  Uiso   1.00
C272   C     0.93071   0.00690   0.46958   0.00000  Uiso   1.00
C273   C     0.91432   0.29544   0.48110   0.00000  Uiso   1.00
C274   C     0.81745   0.17645   0.49222   0.00000  Uiso   1.00
C275   C     0.75862   0.13090   0.10059   0.00000  Uiso   1.00
C276   C     0.73229   0.12003   0.06588   0.00000  Uiso   1.00
C277   C     0.69590   0.08540   0.08072   0.00000  Uiso   1.00
C278   C     0.78821   0.25892   0.07870   0.00000  Uiso   1.00
C279   C     0.80774   0.30463   0.07989   0.00000  Uiso   1.00
C280   C     0.77790   0.33202   0.11349   0.00000  Uiso   1.00
C281   C     0.81688   0.16319   0.44696   0.00000  Uiso   1.00
C282   C     0.83473   0.15099   0.01543   0.00000  Uiso   1.00
C283   C     0.85986   0.12006   0.49096   0.00000  Uiso   1.00
C284   C     0.85516   0.10497   0.44844   0.00000  Uiso   1.00
C285   C     0.83046   0.12412   0.42864   0.00000  Uiso   1.00
H286   H     0.86985   0.07802   0.43077   0.00000  Uiso   1.00
H287   H     0.99134   0.22420   0.01712   0.00000  Uiso   1.00
H288   H     0.69950   0.19920   0.47676   0.00000  Uiso   1.00
H289   H     0.69830   0.20386   0.03573   0.00000  Uiso   1.00
H290   H     0.95115   0.13001   0.40162   0.00000  Uiso   1.00
H291   H     0.95400   0.07827   0.37325   0.00000  Uiso   1.00
H292   H     0.99147   0.09967   0.40588   0.00000  Uiso   1.00
H293   H     0.69205   0.10212   0.32362   0.00000  Uiso   1.00
H294   H     0.69015   0.15341   0.35285   0.00000  Uiso   1.00
H295   H     0.95823   0.16083   0.32930   0.00000  Uiso   1.00
H296   H     0.95988   0.10921   0.29978   0.00000  Uiso   1.00
H297   H     0.78007   0.24827   0.42194   0.00000  Uiso   1.00
H298   H     0.97170   0.02659   0.16033   0.00000  Uiso   1.00
H299   H     0.95147   0.07501   0.18577   0.00000  Uiso   1.00
H300   H     0.98824   0.05338   0.20837   0.00000  Uiso   1.00
H301   H     0.91416   0.04098   0.25626   0.00000  Uiso   1.00
H302   H     0.93431   0.32611   0.23185   0.00000  Uiso   1.00
H303   H     0.89466   0.32051   0.17329   0.00000  Uiso   1.00
H304   H     0.87818   0.03685   0.19017   0.00000  Uiso   1.00
H305   H     0.69003   0.31728   0.34385   0.00000  Uiso   1.00
H306   H     0.72049   0.32711   0.38576   0.00000  Uiso   1.00
H307   H     0.68888   0.03220   0.37883   0.00000  Uiso   1.00
H308   H     0.78193   0.27134   0.49756   0.00000  Uiso   1.00
H309   H     0.76573   0.05282   0.34409   0.00000  Uiso   1.00
H310   H     0.73540   0.04272   0.30218   0.00000  Uiso   1.00
H311   H     0.75737   0.30512   0.28339   0.00000  Uiso   1.00
H312   H     0.78759   0.31475   0.32594   0.00000  Uiso   1.00
H313   H     0.86827   0.02782   0.49222   0.00000  Uiso   1.00
H314   H     0.89897   0.03512   0.03418   0.00000  Uiso   1.00
H315   H     0.93341   0.00922   0.43335   0.00000  Uiso   1.00
H316   H     0.96304   0.01537   0.47557   0.00000  Uiso   1.00
H317   H     0.91163   0.29229   0.01714   0.00000  Uiso   1.00
H318   H     0.93696   0.27426   0.46023   0.00000  Uiso   1.00
H319   H     0.82400   0.10858   0.39805   0.00000  Uiso   1.00
H320   H     0.88251   0.28599   0.47416   0.00000  Uiso   1.00
H321   H     0.73676   0.13868   0.13389   0.00000  Uiso   1.00
H322   H     0.77289   0.10283   0.10412   0.00000  Uiso   1.00
H323   H     0.71895   0.14815   0.06163   0.00000  Uiso   1.00
H324   H     0.75297   0.10948   0.03296   0.00000  Uiso   1.00
H325   H     0.70878   0.05712   0.08571   0.00000  Uiso   1.00
H326   H     0.67796   0.07730   0.05453   0.00000  Uiso   1.00
H327   H     0.67353   0.09577   0.11261   0.00000  Uiso   1.00
H328   H     0.78205   0.24839   0.11299   0.00000  Uiso   1.00
H329   H     0.75636   0.25524   0.07111   0.00000  Uiso   1.00
H330   H     0.68207   0.18869   0.20850   0.00000  Uiso   1.00
H331   H     0.83847   0.30733   0.08954   0.00000  Uiso   1.00
H332   H     0.81461   0.31613   0.04602   0.00000  Uiso   1.00
H333   H     0.74719   0.33042   0.10411   0.00000  Uiso   1.00
H334   H     0.79314   0.03147   0.11343   0.00000  Uiso   1.00
H335   H     0.77148   0.32183   0.14796   0.00000  Uiso   1.00
H336   H     0.97530   0.15383   0.08773   0.00000  Uiso   1.00
H337   H     0.93795   0.18177   0.07509   0.00000  Uiso   1.00
H338   H     0.67083   0.13115   0.00750   0.00000  Uiso   1.00
H339   H     0.96387   0.15366   0.49175   0.00000  Uiso   1.00
O340   O     0.83333   0.16667   0.25000   0.00000  Uiso   1.00
O341   O     0.82118   0.12637   0.15458   0.00000  Uiso   1.00
O342   O     0.79607   0.20391   0.34968   0.00000  Uiso   1.00
O343   O     0.87491   0.17759   0.14606   0.00000  Uiso   1.00
O344   O     0.84118   0.15880   0.34968   0.00000  Uiso   1.00
O345   O     0.92635   0.11592   0.06824   0.00000  Uiso   1.00
O346   O     0.91653   0.07788   0.48528   0.00000  Uiso   1.00
O347   O     0.78923   0.16630   0.08968   0.00000  Uiso   1.00
O348   O     0.81809   0.23434   0.04928   0.00000  Uiso   1.00
O349   O     0.84597   0.08019   0.28213   0.00000  Uiso   1.00
O350   O     0.81298   0.26085   0.27013   0.00000  Uiso   1.00
O351   O     0.74078   0.13291   0.23413   0.00000  Uiso   1.00
O352   O     0.93360   0.19272   0.21360   0.00000  Uiso   1.00
O353   O     0.73738   0.18878   0.28213   0.00000  Uiso   1.00
O354   O     0.92158   0.15226   0.27013   0.00000  Uiso   1.00
O355   O     0.80426   0.06944   0.23413   0.00000  Uiso   1.00
O356   O     0.87012   0.25620   0.21360   0.00000  Uiso   1.00
Zn357  Zn    0.86005   0.13994   0.28734   0.00000  Uiso   1.00
Zn358  Zn    0.80046   0.12458   0.21875   0.00000  Uiso   1.00
Zn359  Zn    0.87723   0.19775   0.20657   0.00000  Uiso   1.00
Zn360  Zn    0.79560   0.20439   0.28733   0.00000  Uiso   1.00
C361   C     0.05312   0.49366   0.25941   0.00000  Uiso   1.00
C362   C     0.16039   0.48707   0.06237   0.00000  Uiso   1.00
C363   C     0.22467   0.45454   0.05337   0.00000  Uiso   1.00
C364   C     0.28069   0.50682   0.24025   0.00000  Uiso   1.00
C365   C     0.13836   0.52345   0.42074   0.00000  Uiso   1.00
C366   C     0.32619   0.50734   0.23675   0.00000  Uiso   1.00
C367   C     0.00754   0.49025   0.26683   0.00000  Uiso   1.00
C368   C     0.17993   0.65625   0.23756   0.00000  Uiso   1.00
C369   C     0.15010   0.34601   0.26516   0.00000  Uiso   1.00
C370   C     0.15585   0.38968   0.26044   0.00000  Uiso   1.00
C371   C     0.17637   0.61134   0.24035   0.00000  Uiso   1.00
C372   C     0.12361   0.57383   0.48518   0.00000  Uiso   1.00
C373   C     0.18524   0.48156   0.12934   0.00000  Uiso   1.00
C374   C     0.14718   0.51668   0.37121   0.00000  Uiso   1.00
C375   C     0.22154   0.43791   0.01031   0.00000  Uiso   1.00
C376   C     0.19091   0.47512   0.08104   0.00000  Uiso   1.00
C377   C     0.12292   0.56066   0.44118   0.00000  Uiso   1.00
C378   C     0.28814   0.48684   0.06434   0.00000  Uiso   1.00
C379   C     0.31694   0.49001   0.01627   0.00000  Uiso   1.00
C380   C     0.01160   0.53191   0.01137   0.00000  Uiso   1.00
C381   C     0.31282   0.47114   0.30967   0.00000  Uiso   1.00
C382   C     0.00390   0.45888   0.34147   0.00000  Uiso   1.00
C383   C     0.13888   0.54972   0.01098   0.00000  Uiso   1.00
C384   C     0.30643   0.44055   0.38306   0.00000  Uiso   1.00
C385   C     0.21885   0.34262   0.20339   0.00000  Uiso   1.00
C386   C     0.25699   0.35470   0.22424   0.00000  Uiso   1.00
C387   C     0.29438   0.37890   0.19257   0.00000  Uiso   1.00
C388   C     0.11033   0.66232   0.30047   0.00000  Uiso   1.00
C389   C     0.08093   0.36150   0.32621   0.00000  Uiso   1.00
C390   C     0.04275   0.34148   0.36077   0.00000  Uiso   1.00
C391   C     0.23402   0.37051   0.49803   0.00000  Uiso   1.00
C392   C     0.26404   0.34023   0.46958   0.00000  Uiso   1.00
C393   C     0.24766   0.62877   0.48110   0.00000  Uiso   1.00
C394   C     0.15079   0.50978   0.49222   0.00000  Uiso   1.00
C395   C     0.09195   0.46424   0.10059   0.00000  Uiso   1.00
C396   C     0.06562   0.45337   0.06588   0.00000  Uiso   1.00
C397   C     0.02924   0.41873   0.08072   0.00000  Uiso   1.00
C398   C     0.12154   0.59225   0.07870   0.00000  Uiso   1.00
C399   C     0.14107   0.63796   0.07989   0.00000  Uiso   1.00
C400   C     0.11123   0.66535   0.11349   0.00000  Uiso   1.00
C401   C     0.15022   0.49652   0.44696   0.00000  Uiso   1.00
C402   C     0.16806   0.48432   0.01543   0.00000  Uiso   1.00
C403   C     0.19319   0.45339   0.49096   0.00000  Uiso   1.00
C404   C     0.18850   0.43830   0.44844   0.00000  Uiso   1.00
C405   C     0.16379   0.45745   0.42864   0.00000  Uiso   1.00
H406   H     0.20318   0.41136   0.43077   0.00000  Uiso   1.00
H407   H     0.32467   0.55754   0.01712   0.00000  Uiso   1.00
H408   H     0.03283   0.53253   0.47676   0.00000  Uiso   1.00
H409   H     0.03163   0.53719   0.03573   0.00000  Uiso   1.00
H410   H     0.28449   0.46334   0.40162   0.00000  Uiso   1.00
H411   H     0.28733   0.41160   0.37325   0.00000  Uiso   1.00
H412   H     0.32481   0.43301   0.40588   0.00000  Uiso   1.00
H413   H     0.02539   0.43546   0.32362   0.00000  Uiso   1.00
H414   H     0.02348   0.48675   0.35285   0.00000  Uiso   1.00
H415   H     0.29157   0.49417   0.32930   0.00000  Uiso   1.00
H416   H     0.29322   0.44254   0.29978   0.00000  Uiso   1.00
H417   H     0.11341   0.58160   0.42194   0.00000  Uiso   1.00
H418   H     0.30503   0.35993   0.16033   0.00000  Uiso   1.00
H419   H     0.28481   0.40834   0.18577   0.00000  Uiso   1.00
H420   H     0.32157   0.38672   0.20837   0.00000  Uiso   1.00
H421   H     0.24749   0.37431   0.25626   0.00000  Uiso   1.00
H422   H     0.26764   0.65945   0.23185   0.00000  Uiso   1.00
H423   H     0.22800   0.65384   0.17329   0.00000  Uiso   1.00
H424   H     0.21151   0.37018   0.19017   0.00000  Uiso   1.00
H425   H     0.02337   0.65061   0.34385   0.00000  Uiso   1.00
H426   H     0.05383   0.66044   0.38576   0.00000  Uiso   1.00
H427   H     0.02221   0.36554   0.37883   0.00000  Uiso   1.00
H428   H     0.11527   0.60467   0.49756   0.00000  Uiso   1.00
H429   H     0.09906   0.38615   0.34409   0.00000  Uiso   1.00
H430   H     0.06873   0.37605   0.30218   0.00000  Uiso   1.00
H431   H     0.09070   0.63845   0.28339   0.00000  Uiso   1.00
H432   H     0.12092   0.64808   0.32594   0.00000  Uiso   1.00
H433   H     0.20160   0.36115   0.49222   0.00000  Uiso   1.00
H434   H     0.23231   0.36845   0.03418   0.00000  Uiso   1.00
H435   H     0.26675   0.34255   0.43335   0.00000  Uiso   1.00
H436   H     0.29637   0.34871   0.47557   0.00000  Uiso   1.00
H437   H     0.24496   0.62562   0.01714   0.00000  Uiso   1.00
H438   H     0.27029   0.60759   0.46023   0.00000  Uiso   1.00
H439   H     0.15733   0.44192   0.39805   0.00000  Uiso   1.00
H440   H     0.21585   0.61932   0.47416   0.00000  Uiso   1.00
H441   H     0.07009   0.47202   0.13389   0.00000  Uiso   1.00
H442   H     0.10622   0.43617   0.10412   0.00000  Uiso   1.00
H443   H     0.05228   0.48148   0.06163   0.00000  Uiso   1.00
H444   H     0.08631   0.44281   0.03296   0.00000  Uiso   1.00
H445   H     0.04211   0.39046   0.08571   0.00000  Uiso   1.00
H446   H     0.01129   0.41064   0.05453   0.00000  Uiso   1.00
H447   H     0.00686   0.42911   0.11261   0.00000  Uiso   1.00
H448   H     0.11539   0.58173   0.11299   0.00000  Uiso   1.00
H449   H     0.08969   0.58857   0.07111   0.00000  Uiso   1.00
H450   H     0.01540   0.52203   0.20850   0.00000  Uiso   1.00
H451   H     0.17180   0.64066   0.08954   0.00000  Uiso   1.00
H452   H     0.14794   0.64947   0.04602   0.00000  Uiso   1.00
H453   H     0.08052   0.66376   0.10411   0.00000  Uiso   1.00
H454   H     0.12648   0.36481   0.11343   0.00000  Uiso   1.00
H455   H     0.10482   0.65516   0.14796   0.00000  Uiso   1.00
H456   H     0.30864   0.48717   0.08773   0.00000  Uiso   1.00
H457   H     0.27128   0.51510   0.07509   0.00000  Uiso   1.00
H458   H     0.00416   0.46449   0.00750   0.00000  Uiso   1.00
H459   H     0.29720   0.48700   0.49175   0.00000  Uiso   1.00
O460   O     0.16667   0.50000   0.25000   0.00000  Uiso   1.00
O461   O     0.15451   0.45970   0.15458   0.00000  Uiso   1.00
O462   O     0.12940   0.53724   0.34968   0.00000  Uiso   1.00
O463   O     0.20824   0.51092   0.14606   0.00000  Uiso   1.00
O464   O     0.17451   0.49213   0.34968   0.00000  Uiso   1.00
O465   O     0.25968   0.44925   0.06824   0.00000  Uiso   1.00
O466   O     0.24986   0.41122   0.48528   0.00000  Uiso   1.00
O467   O     0.12256   0.49964   0.08968   0.00000  Uiso   1.00
O468   O     0.15142   0.56767   0.04928   0.00000  Uiso   1.00
O469   O     0.17930   0.41352   0.28213   0.00000  Uiso   1.00
O470   O     0.14632   0.59418   0.27013   0.00000  Uiso   1.00
O471   O     0.07412   0.46625   0.23413   0.00000  Uiso   1.00
O472   O     0.26693   0.52605   0.21360   0.00000  Uiso   1.00
O473   O     0.07071   0.52211   0.28213   0.00000  Uiso   1.00
O474   O     0.25491   0.48559   0.27013   0.00000  Uiso   1.00
O475   O     0.13760   0.40277   0.23413   0.00000  Uiso   1.00
O476   O     0.20345   0.58953   0.21360   0.00000  Uiso   1.00
Zn477  Zn    0.19338   0.47327   0.28734   0.00000  Uiso   1.00
Zn478  Zn    0.13379   0.45791   0.21875   0.00000  Uiso   1.00
Zn479  Zn    0.21056   0.53109   0.20657   0.00000  Uiso   1.00
Zn480  Zn    0.12893   0.53773   0.28733   0.00000  Uiso   1.00
C481   C     0.38645   0.49366   0.25941   0.00000  Uiso   1.00
C482   C     0.49373   0.48707   0.06237   0.00000  Uiso   1.00
C483   C     0.55800   0.45454   0.05337   0.00000  Uiso   1.00
C484   C     0.61402   0.50682   0.24025   0.00000  Uiso   1.00
C485   C     0.47169   0.52345   0.42074   0.00000  Uiso   1.00
C486   C     0.65952   0.50734   0.23675   0.00000  Uiso   1.00
C487   C     0.34087   0.49025   0.26683   0.00000  Uiso   1.00
C488   C     0.51326   0.65625   0.23756   0.00000  Uiso   1.00
C489   C     0.48344   0.34601   0.26516   0.00000  Uiso   1.00
C490   C     0.48918   0.38968   0.26044   0.00000  Uiso   1.00
C491   C     0.50971   0.61134   0.24035   0.00000  Uiso   1.00
C492   C     0.45694   0.57383   0.48518   0.00000  Uiso   1.00
C493   C     0.51857   0.48156   0.12934   0.00000  Uiso   1.00
C494   C     0.48051   0.51668   0.37121   0.00000  Uiso   1.00
C495   C     0.55487   0.43791   0.01031   0.00000  Uiso   1.00
C496   C     0.52424   0.47512   0.08104   0.00000  Uiso   1.00
C497   C     0.45626   0.56066   0.44118   0.00000  Uiso   1.00
C498   C     0.62148   0.48684   0.06434   0.00000  Uiso   1.00
C499   C     0.65028   0.49001   0.01627   0.00000  Uiso   1.00
C500   C     0.34493   0.53191   0.01137   0.00000  Uiso   1.00
C501   C     0.64616   0.47114   0.30967   0.00000  Uiso   1.00
C502   C     0.33724   0.45888   0.34147   0.00000  Uiso   1.00
C503   C     0.47221   0.54972   0.01098   0.00000  Uiso   1.00
C504   C     0.63976   0.44055   0.38306   0.00000  Uiso   1.00
C505   C     0.55219   0.34262   0.20339   0.00000  Uiso   1.00
C506   C     0.59033   0.35470   0.22424   0.00000  Uiso   1.00
C507   C     0.62771   0.37890   0.19257   0.00000  Uiso   1.00
C508   C     0.44366   0.66232   0.30047   0.00000  Uiso   1.00
C509   C     0.41426   0.36150   0.32621   0.00000  Uiso   1.00
C510   C     0.37609   0.34148   0.36077   0.00000  Uiso   1.00
C511   C     0.56736   0.37051   0.49803   0.00000  Uiso   1.00
C512   C     0.59737   0.34023   0.46958   0.00000  Uiso   1.00
C513   C     0.58099   0.62877   0.48110   0.00000  Uiso   1.00
C514   C     0.48412   0.50978   0.49222   0.00000  Uiso   1.00
C515   C     0.42528   0.46424   0.10059   0.00000  Uiso   1.00
C516   C     0.39896   0.45337   0.06588   0.00000  Uiso   1.00
C517   C     0.36257   0.41873   0.08072   0.00000  Uiso   1.00
C518   C     0.45488   0.59225   0.07870   0.00000  Uiso   1.00
C519   C     0.47441   0.63796   0.07989   0.00000  Uiso   1.00
C520   C     0.44457   0.66535   0.11349   0.00000  Uiso   1.00
C521   C     0.48355   0.49652   0.44696   0.00000  Uiso   1.00
C522   C     0.50140   0.48432   0.01543   0.00000  Uiso   1.00
C523   C     0.52652   0.45339   0.49096   0.00000  Uiso   1.00
C524   C     0.52183   0.43830   0.44844   0.00000  Uiso   1.00
C525   C     0.49712   0.45745   0.42864   0.00000  Uiso   1.00
H526   H     0.53651   0.41136   0.43077   0.00000  Uiso   1.00
H527   H     0.65800   0.55754   0.01712   0.00000  Uiso   1.00
H528   H     0.36616   0.53253   0.47676   0.00000  Uiso   1.00
H529   H     0.36497   0.53719   0.03573   0.00000  Uiso   1.00
H530   H     0.61782   0.46334   0.40162   0.00000  Uiso   1.00
H531   H     0.62067   0.41160   0.37325   0.00000  Uiso   1.00
H532   H     0.65814   0.43301   0.40588   0.00000  Uiso   1.00
H533   H     0.35872   0.43546   0.32362   0.00000  Uiso   1.00
H534   H     0.35682   0.48675   0.35285   0.00000  Uiso   1.00
H535   H     0.62490   0.49417   0.32930   0.00000  Uiso   1.00
H536   H     0.62655   0.44254   0.29978   0.00000  Uiso   1.00
H537   H     0.44674   0.58160   0.42194   0.00000  Uiso   1.00
H538   H     0.63836   0.35993   0.16033   0.00000  Uiso   1.00
H539   H     0.61814   0.40834   0.18577   0.00000  Uiso   1.00
H540   H     0.65491   0.38672   0.20837   0.00000  Uiso   1.00
H541   H     0.58083   0.37431   0.25626   0.00000  Uiso   1.00
H542   H     0.60098   0.65945   0.23185   0.00000  Uiso   1.00
H543   H     0.56133   0.65384   0.17329   0.00000  Uiso   1.00
H544   H     0.54485   0.37018   0.19017   0.00000  Uiso   1.00
H545   H     0.35670   0.65061   0.34385   0.00000  Uiso   1.00
H546   H     0.38716   0.66044   0.38576   0.00000  Uiso   1.00
H547   H     0.35555   0.36554   0.37883   0.00000  Uiso   1.00
H548   H     0.44860   0.60467   0.49756   0.00000  Uiso   1.00
H549   H     0.43239   0.38615   0.34409   0.00000  Uiso   1.00
H550   H     0.40207   0.37605   0.30218   0.00000  Uiso   1.00
H551   H     0.42404   0.63845   0.28339   0.00000  Uiso   1.00
H552   H     0.45425   0.64808   0.32594   0.00000  Uiso   1.00
H553   H     0.53493   0.36115   0.49222   0.00000  Uiso   1.00
H554   H     0.56564   0.36845   0.03418   0.00000  Uiso   1.00
H555   H     0.60008   0.34255   0.43335   0.00000  Uiso   1.00
H556   H     0.62970   0.34871   0.47557   0.00000  Uiso   1.00
H557   H     0.57829   0.62562   0.01714   0.00000  Uiso   1.00
H558   H     0.60363   0.60759   0.46023   0.00000  Uiso   1.00
H559   H     0.49066   0.44192   0.39805   0.00000  Uiso   1.00
H560   H     0.54918   0.61932   0.47416   0.00000  Uiso   1.00
H561   H     0.40343   0.47202   0.13389   0.00000  Uiso   1.00
H562   H     0.43956   0.43617   0.10412   0.00000  Uiso   1.00
H563   H     0.38562   0.48148   0.06163   0.00000  Uiso   1.00
H564   H     0.41964   0.44281   0.03296   0.00000  Uiso   1.00
H565   H     0.37545   0.39046   0.08571   0.00000  Uiso   1.00
H566   H     0.34462   0.41064   0.05453   0.00000  Uiso   1.00
H567   H     0.34020   0.42911   0.11261   0.00000  Uiso   1.00
H568   H     0.44872   0.58173   0.11299   0.00000  Uiso   1.00
H569   H     0.42303   0.58857   0.07111   0.00000  Uiso   1.00
H570   H     0.34874   0.52203   0.20850   0.00000  Uiso   1.00
H571   H     0.50514   0.64066   0.08954   0.00000  Uiso   1.00
H572   H     0.48128   0.64947   0.04602   0.00000  Uiso   1.00
H573   H     0.41386   0.66376   0.10411   0.00000  Uiso   1.00
H574   H     0.45981   0.36481   0.11343   0.00000  Uiso   1.00
H575   H     0.43815   0.65516   0.14796   0.00000  Uiso   1.00
H576   H     0.64197   0.48717   0.08773   0.00000  Uiso   1.00
H577   H     0.60462   0.51510   0.07509   0.00000  Uiso   1.00
H578   H     0.33750   0.46449   0.00750   0.00000  Uiso   1.00
H579   H     0.63053   0.48700   0.49175   0.00000  Uiso   1.00
O580   O     0.50000   0.50000   0.25000   0.00000  Uiso   1.00
O581   O     0.48784   0.45970   0.15458   0.00000  Uiso   1.00
O582   O     0.46274   0.53724   0.34968   0.00000  Uiso   1.00
O583   O     0.54157   0.51092   0.14606   0.00000  Uiso   1.00
O584   O     0.50785   0.49213   0.34968   0.00000  Uiso   1.00
O585   O     0.59301   0.44925   0.06824   0.00000  Uiso   1.00
O586   O     0.58319   0.41122   0.48528   0.00000  Uiso   1.00
O587   O     0.45589   0.49964   0.08968   0.00000  Uiso   1.00
O588   O     0.48475   0.56767   0.04928   0.00000  Uiso   1.00
O589   O     0.51264   0.41352   0.28213   0.00000  Uiso   1.00
O590   O     0.47965   0.59418   0.27013   0.00000  Uiso   1.00
O591   O     0.40745   0.46625   0.23413   0.00000  Uiso   1.00
O592   O     0.60026   0.52605   0.21360   0.00000  Uiso   1.00
O593   O     0.40405   0.52211   0.28213   0.00000  Uiso   1.00
O594   O     0.58824   0.48559   0.27013   0.00000  Uiso   1.00
O595   O     0.47093   0.40277   0.23413   0.00000  Uiso   1.00
O596   O     0.53678   0.58953   0.21360   0.00000  Uiso   1.00
Zn597  Zn    0.52672   0.47327   0.28734   0.00000  Uiso   1.00
Zn598  Zn    0.46713   0.45791   0.21875   0.00000  Uiso   1.00
Zn599  Zn    0.54389   0.53109   0.20657   0.00000  Uiso   1.00
Zn600  Zn    0.46226   0.53773   0.28733   0.00000  Uiso   1.00
C601   C     0.71978   0.49366   0.25941   0.00000  Uiso   1.00
C602   C     0.82706   0.48707   0.06237   0.00000  Uiso   1.00
C603   C     0.89133   0.45454   0.05337   0.00000  Uiso   1.00
C604   C     0.94736   0.50682   0.24025   0.00000  Uiso   1.00
C605   C     0.80503   0.52345   0.42074   0.00000  Uiso   1.00
C606   C     0.99286   0.50734   0.23675   0.00000  Uiso   1.00
C607   C     0.67420   0.49025   0.26683   0.00000  Uiso   1.00
C608   C     0.84659   0.65625   0.23756   0.00000  Uiso   1.00
C609   C     0.81677   0.34601   0.26516   0.00000  Uiso   1.00
C610   C     0.82252   0.38968   0.26044   0.00000  Uiso   1.00
C611   C     0.84304   0.61134   0.24035   0.00000  Uiso   1.00
C612   C     0.79028   0.57383   0.48518   0.00000  Uiso   1.00
C613   C     0.85190   0.48156   0.12934   0.00000  Uiso   1.00
C614   C     0.81384   0.51668   0.37121   0.00000  Uiso   1.00
C615   C     0.88821   0.43791   0.01031   0.00000  Uiso   1.00
C616   C     0.85758   0.47512   0.08104   0.00000  Uiso   1.00
C617   C     0.78959   0.56066   0.44118   0.00000  Uiso   1.00
C618   C     0.95481   0.48684   0.06434   0.00000  Uiso   1.00
C619   C     0.98361   0.49001   0.01627   0.00000  Uiso   1.00
C620   C     0.67827   0.53191   0.01137   0.00000  Uiso   1.00
C621   C     0.97949   0.47114   0.30967   0.00000  Uiso   1.00
C622   C     0.67057   0.45888   0.34147   0.00000  Uiso   1.00
C623   C     0.80554   0.54972   0.01098   0.00000  Uiso   1.00
C624   C     0.97310   0.44055   0.38306   0.00000  Uiso   1.00
C625   C     0.88552   0.34262   0.20339   0.00000  Uiso   1.00
C626   C     0.92366   0.35470   0.22424   0.00000  Uiso   1.00
C627   C     0.96105   0.37890   0.19257   0.00000  Uiso   1.00
C628   C     0.77699   0.66232   0.30047   0.00000  Uiso   1.00
C629   C     0.74759   0.36150   0.32621   0.00000  Uiso   1.00
C630   C     0.70942   0.34148   0.36077   0.00000  Uiso   1.00
C631   C     0.90069   0.37051   0.49803   0.00000  Uiso   1.00
C632   C     0.93071   0.34023   0.46958   0.00000  Uiso   1.00
C633   C     0.91432   0.62877   0.48110   0.00000  Uiso   1.00
C634   C     0.81745   0.50978   0.49222   0.00000  Uiso   1.00
C635   C     0.75862   0.46424   0.10059   0.00000  Uiso   1.00
C636   C     0.73229   0.45337   0.06588   0.00000  Uiso   1.00
C637   C     0.69590   0.41873   0.08072   0.00000  Uiso   1.00
C638   C     0.78821   0.59225   0.07870   0.00000  Uiso   1.00
C639   C     0.80774   0.63796   0.07989   0.00000  Uiso   1.00
C640   C     0.77790   0.66535   0.11349   0.00000  Uiso   1.00
C641   C     0.81688   0.49652   0.44696   0.00000  Uiso   1.00
C642   C     0.83473   0.48432   0.01543   0.00000  Uiso   1.00
C643   C     0.85986   0.45339   0.49096   0.00000  Uiso   1.00
C644   C     0.85516   0.43830   0.44844   0.00000  Uiso   1.00
C645   C     0.83046   0.45745   0.42864   0.00000  Uiso   1.00
H646   H     0.86985   0.41136   0.43077   0.00000  Uiso   1.00
H647   H     0.99134   0.55754   0.01712   0.00000  Uiso   1.00
H648   H     0.69950   0.53253   0.47676   0.00000  Uiso   1.00
H649   H     0.69830   0.53719   0.03573   0.00000  Uiso   1.00
H650   H     0.95115   0.46334   0.40162   0.00000  Uiso   1.00
H651   H     0.95400   0.41160   0.37325   0.00000  Uiso   1.00
H652   H     0.99147   0.43301   0.40588   0.00000  Uiso   1.00
H653   H     0.69205   0.43546   0.32362   0.00000  Uiso   1.00
H654   H     0.69015   0.48675   0.35285   0.00000  Uiso   1.00
H655   H     0.95823   0.49417   0.32930   0.00000  Uiso   1.00
H656   H     0.95988   0.44254   0.29978   0.00000  Uiso   1.00
H657   H     0.78007   0.58160   0.42194   0.00000  Uiso   1.00
H658   H     0.97170   0.35993   0.16033   0.00000  Uiso   1.00
H659   H     0.95147   0.40834   0.18577   0.00000  Uiso   1.00
H660   H     0.98824   0.38672   0.20837   0.00000  Uiso   1.00
H661   H     0.91416   0.37431   0.25626   0.00000  Uiso   1.00
H662   H     0.93431   0.65945   0.23185   0.00000  Uiso   1.00
H663   H     0.89466   0.65384   0.17329   0.00000  Uiso   1.00
H664   H     0.87818   0.37018   0.19017   0.00000  Uiso   1.00
H665   H     0.69003   0.65061   0.34385   0.00000  Uiso   1.00
H666   H     0.72049   0.66044   0.38576   0.00000  Uiso   1.00
H667   H     0.68888   0.36554   0.37883   0.00000  Uiso   1.00
H668   H     0.78193   0.60467   0.49756   0.00000  Uiso   1.00
H669   H     0.76573   0.38615   0.34409   0.00000  Uiso   1.00
H670   H     0.73540   0.37605   0.30218   0.00000  Uiso   1.00
H671   H     0.75737   0.63845   0.28339   0.00000  Uiso   1.00
H672   H     0.78759   0.64808   0.32594   0.00000  Uiso   1.00
H673   H     0.86827   0.36115   0.49222   0.00000  Uiso   1.00
H674   H     0.89897   0.36845   0.03418   0.00000  Uiso   1.00
H675   H     0.93341   0.34255   0.43335   0.00000  Uiso   1.00
H676   H     0.96304   0.34871   0.47557   0.00000  Uiso   1.00
H677   H     0.91163   0.62562   0.01714   0.00000  Uiso   1.00
H678   H     0.93696   0.60759   0.46023   0.00000  Uiso   1.00
H679   H     0.82400   0.44192   0.39805   0.00000  Uiso   1.00
H680   H     0.88251   0.61932   0.47416   0.00000  Uiso   1.00
H681   H     0.73676   0.47202   0.13389   0.00000  Uiso   1.00
H682   H     0.77289   0.43617   0.10412   0.00000  Uiso   1.00
H683   H     0.71895   0.48148   0.06163   0.00000  Uiso   1.00
H684   H     0.75297   0.44281   0.03296   0.00000  Uiso   1.00
H685   H     0.70878   0.39046   0.08571   0.00000  Uiso   1.00
H686   H     0.67796   0.41064   0.05453   0.00000  Uiso   1.00
H687   H     0.67353   0.42911   0.11261   0.00000  Uiso   1.00
H688   H     0.78205   0.58173   0.11299   0.00000  Uiso   1.00
H689   H     0.75636   0.58857   0.07111   0.00000  Uiso   1.00
H690   H     0.68207   0.52203   0.20850   0.00000  Uiso   1.00
H691   H     0.83847   0.64066   0.08954   0.00000  Uiso   1.00
H692   H     0.81461   0.64947   0.04602   0.00000  Uiso   1.00
H693   H     0.74719   0.66376   0.10411   0.00000  Uiso   1.00
H694   H     0.79314   0.36481   0.11343   0.00000  Uiso   1.00
H695   H     0.77148   0.65516   0.14796   0.00000  Uiso   1.00
H696   H     0.97530   0.48717   0.08773   0.00000  Uiso   1.00
H697   H     0.93795   0.51510   0.07509   0.00000  Uiso   1.00
H698   H     0.67083   0.46449   0.00750   0.00000  Uiso   1.00
H699   H     0.96387   0.48700   0.49175   0.00000  Uiso   1.00
O700   O     0.83333   0.50000   0.25000   0.00000  Uiso   1.00
O701   O     0.82118   0.45970   0.15458   0.00000  Uiso   1.00
O702   O     0.79607   0.53724   0.34968   0.00000  Uiso   1.00
O703   O     0.87491   0.51092   0.14606   0.00000  Uiso   1.00
O704   O     0.84118   0.49213   0.34968   0.00000  Uiso   1.00
O705   O     0.92635   0.44925   0.06824   0.00000  Uiso   1.00
O706   O     0.91653   0.41122   0.48528   0.00000  Uiso   1.00
O707   O     0.78923   0.49964   0.08968   0.00000  Uiso   1.00
O708   O     0.81809   0.56767   0.04928   0.00000  Uiso   1.00
O709   O     0.84597   0.41352   0.28213   0.00000  Uiso   1.00
O710   O     0.81298   0.59418   0.27013   0.00000  Uiso   1.00
O711   O     0.74078   0.46625   0.23413   0.00000  Uiso   1.00
O712   O     0.93360   0.52605   0.21360   0.00000  Uiso   1.00
O713   O     0.73738   0.52211   0.28213   0.00000  Uiso   1.00
O714   O     0.92158   0.48559   0.27013   0.00000  Uiso   1.00
O715   O     0.80426   0.40277   0.23413   0.00000  Uiso   1.00
O716   O     0.87012   0.58953   0.21360   0.00000  Uiso   1.00
Zn717  Zn    0.86005   0.47327   0.28734   0.00000  Uiso   1.00
Zn718  Zn    0.80046   0.45791   0.21875   0.00000  Uiso   1.00
Zn719  Zn    0.87723   0.53109   0.20657   0.00000  Uiso   1.00
Zn720  Zn    0.79560   0.53773   0.28733   0.00000  Uiso   1.00
C721   C     0.05312   0.82700   0.25941   0.00000  Uiso   1.00
C722   C     0.16039   0.82041   0.06237   0.00000  Uiso   1.00
C723   C     0.22467   0.78787   0.05337   0.00000  Uiso   1.00
C724   C     0.28069   0.84016   0.24025   0.00000  Uiso   1.00
C725   C     0.13836   0.85678   0.42074   0.00000  Uiso   1.00
C726   C     0.32619   0.84067   0.23675   0.00000  Uiso   1.00
C727   C     0.00754   0.82358   0.26683   0.00000  Uiso   1.00
C728   C     0.17993   0.98958   0.23756   0.00000  Uiso   1.00
C729   C     0.15010   0.67934   0.26516   0.00000  Uiso   1.00
C730   C     0.15585   0.72301   0.26044   0.00000  Uiso   1.00
C731   C     0.17637   0.94467   0.24035   0.00000  Uiso   1.00
C732   C     0.12361   0.90716   0.48518   0.00000  Uiso   1.00
C733   C     0.18524   0.81489   0.12934   0.00000  Uiso   1.00
C734   C     0.14718   0.85001   0.37121   0.00000  Uiso   1.00
C735   C     0.22154   0.77124   0.01031   0.00000  Uiso   1.00
C736   C     0.19091   0.80845   0.08104   0.00000  Uiso   1.00
C737   C     0.12292   0.89400   0.44118   0.00000  Uiso   1.00
C738   C     0.28814   0.82017   0.06434   0.00000  Uiso   1.00
C739   C     0.31694   0.82335   0.01627   0.00000  Uiso   1.00
C740   C     0.01160   0.86525   0.01137   0.00000  Uiso   1.00
C741   C     0.31282   0.80447   0.30967   0.00000  Uiso   1.00
C742   C     0.00390   0.79221   0.34147   0.00000  Uiso   1.00
C743   C     0.13888   0.88306   0.01098   0.00000  Uiso   1.00
C744   C     0.30643   0.77388   0.38306   0.00000  Uiso   1.00
C745   C     0.21885   0.67596   0.20339   0.00000  Uiso   1.00
C746   C     0.25699   0.68804   0.22424   0.00000  Uiso   1.00
C747   C     0.29438   0.71223   0.19257   0.00000  Uiso   1.00
C748   C     0.11033   0.99566   0.30047   0.00000  Uiso   1.00
C749   C     0.08093   0.69483   0.32621   0.00000  Uiso   1.00
C750   C     0.04275   0.67482   0.36077   0.00000  Uiso   1.00
C751   C     0.23402   0.70384   0.49803   0.00000  Uiso   1.00
C752   C     0.26404   0.67357   0.46958   0.00000  Uiso   1.00
C753   C     0.24766   0.96211   0.48110   0.00000  Uiso   1.00
C754   C     0.15079   0.84311   0.49222   0.00000  Uiso   1.00
C755   C     0.09195   0.79757   0.10059   0.00000  Uiso   1.00
C756   C     0.06562   0.78670   0.06588   0.00000  Uiso   1.00
C757   C     0.02924   0.75207   0.08072   0.00000  Uiso   1.00
C758   C     0.12154   0.92559   0.07870   0.00000  Uiso   1.00
C759   C     0.14107   0.97130   0.07989   0.00000  Uiso   1.00
C760   C     0.11123   0.99868   0.11349   0.00000  Uiso   1.00
C761   C     0.15022   0.82986   0.44696   0.00000  Uiso   1.00
C762   C     0.16806   0.81766   0.01543   0.00000  Uiso   1.00
C763   C     0.19319   0.78672   0.49096   0.00000  Uiso   1.00
C764   C     0.18850   0.77164   0.44844   0.00000  Uiso   1.00
C765   C     0.16379   0.79078   0.42864   0.00000  Uiso   1.00
H766   H     0.20318   0.74469   0.43077   0.00000  Uiso   1.00
H767   H     0.32467   0.89087   0.01712   0.00000  Uiso   1.00
H768   H     0.03283   0.86586   0.47676   0.00000  Uiso   1.00
H769   H     0.03163   0.87053   0.03573   0.00000  Uiso   1.00
H770   H     0.28449   0.79668   0.40162   0.00000  Uiso   1.00
H771   H     0.28733   0.74494   0.37325   0.00000  Uiso   1.00
H772   H     0.32481   0.76634   0.40588   0.00000  Uiso   1.00
H773   H     0.02539   0.76879   0.32362   0.00000  Uiso   1.00
H774   H     0.02348   0.82008   0.35285   0.00000  Uiso   1.00
H775   H     0.29157   0.82750   0.32930   0.00000  Uiso   1.00
H776   H     0.29322   0.77587   0.29978   0.00000  Uiso   1.00
H777   H     0.11341   0.91493   0.42194   0.00000  Uiso   1.00
H778   H     0.30503   0.69326   0.16033   0.00000  Uiso   1.00
H779   H     0.28481   0.74168   0.18577   0.00000  Uiso   1.00
H780   H     0.32157   0.72005   0.20837   0.00000  Uiso   1.00
H781   H     0.24749   0.70764   0.25626   0.00000  Uiso   1.00
H782   H     0.26764   0.99278   0.23185   0.00000  Uiso   1.00
H783   H     0.22800   0.98717   0.17329   0.00000  Uiso   1.00
H784   H     0.21151   0.70352   0.19017   0.00000  Uiso   1.00
H785   H     0.02337   0.98395   0.34385   0.00000  Uiso   1.00
H786   H     0.05383   0.99377   0.38576   0.00000  Uiso   1.00
H787   H     0.02221   0.69887   0.37883   0.00000  Uiso   1.00
H788   H     0.11527   0.93800   0.49756   0.00000  Uiso   1.00
H789   H     0.09906   0.71949   0.34409   0.00000  Uiso   1.00
H790   H     0.06873   0.70938   0.30218   0.00000  Uiso   1.00
H791   H     0.09070   0.97179   0.28339   0.00000  Uiso   1.00
H792   H     0.12092   0.98141   0.32594   0.00000  Uiso   1.00
H793   H     0.20160   0.69449   0.49222   0.00000  Uiso   1.00
H794   H     0.23231   0.70179   0.03418   0.00000  Uiso   1.00
H795   H     0.26675   0.67588   0.43335   0.00000  Uiso   1.00
H796   H     0.29637   0.68204   0.47557   0.00000  Uiso   1.00
H797   H     0.24496   0.95895   0.01714   0.00000  Uiso   1.00
H798   H     0.27029   0.94093   0.46023   0.00000  Uiso   1.00
H799   H     0.15733   0.77525   0.39805   0.00000  Uiso   1.00
H800   H     0.21585   0.95266   0.47416   0.00000  Uiso   1.00
H801   H     0.07009   0.80535   0.13389   0.00000  Uiso   1.00
H802   H     0.10622   0.76950   0.10412   0.00000  Uiso   1.00
H803   H     0.05228   0.81482   0.06163   0.00000  Uiso   1.00
H804   H     0.08631   0.77614   0.03296   0.00000  Uiso   1.00
H805   H     0.04211   0.72379   0.08571   0.00000  Uiso   1.00
H806   H     0.01129   0.74397   0.05453   0.00000  Uiso   1.00
H807   H     0.00686   0.76244   0.11261   0.00000  Uiso   1.00
H808   H     0.11539   0.91506   0.11299   0.00000  Uiso   1.00
H809   H     0.08969   0.92191   0.07111   0.00000  Uiso   1.00
H810   H     0.01540   0.85536   0.20850   0.00000  Uiso   1.00
H811   H     0.17180   0.97400   0.08954   0.00000  Uiso   1.00
H812   H     0.14794   0.98280   0.04602   0.00000  Uiso   1.00
H813   H     0.08052   0.99709   0.10411   0.00000  Uiso   1.00
H814   H     0.12648   0.69814   0.11343   0.00000  Uiso   1.00
H815   H     0.10482   0.98850   0.14796   0.00000  Uiso   1.00
H816   H     0.30864   0.82050   0.08773   0.00000  Uiso   1.00
H817   H     0.27128   0.84844   0.07509   0.00000  Uiso   1.00
H818   H     0.00416   0.79782   0.00750   0.00000  Uiso   1.00
H819   H     0.29720   0.82033   0.49175   0.00000  Uiso   1.00
O820   O     0.16667   0.83333   0.25000   0.00000  Uiso   1.00
O821   O     0.15451   0.79304   0.15458   0.00000  Uiso   1.00
O822   O     0.12940   0.87058   0.34968   0.00000  Uiso   1.00
O823   O     0.20824   0.84425   0.14606   0.00000  Uiso   1.00
O824   O     0.17451   0.82546   0.34968   0.00000  Uiso   1.00
O825   O     0.25968   0.78258   0.06824   0.00000  Uiso   1.00
O826   O     0.24986   0.74455   0.48528   0.00000  Uiso   1.00
O827   O     0.12256   0.83297   0.08968   0.00000  Uiso   1.00
O828   O     0.15142   0.90100   0.04928   0.00000  Uiso   1.00
O829   O     0.17930   0.74686   0.28213   0.00000  Uiso   1.00
O830   O     0.14632   0.92751   0.27013   0.00000  Uiso   1.00
O831   O     0.07412   0.79958   0.23413   0.00000  Uiso   1.00
O832   O     0.26693   0.85939   0.21360   0.00000  Uiso   1.00
O833   O     0.07071   0.85544   0.28213   0.00000  Uiso   1.00
O834   O     0.25491   0.81892   0.27013   0.00000  Uiso   1.00
O835   O     0.13760   0.73610   0.23413   0.00000  Uiso   1.00
O836   O     0.20345   0.92286   0.21360   0.00000  Uiso   1.00
Zn837  Zn    0.19338   0.80661   0.28734   0.00000  Uiso   1.00
Zn838  Zn    0.13379   0.79124   0.21875   0.00000  Uiso   1.00
Zn839  Zn    0.21056   0.86442   0.20657   0.00000  Uiso   1.00
Zn840  Zn    0.12893   0.87106   0.28733   0.00000  Uiso   1.00
C841   C     0.38645   0.82700   0.25941   0.00000  Uiso   1.00
C842   C     0.49373   0.82041   0.06237   0.00000  Uiso   1.00
C843   C     0.55800   0.78787   0.05337   0.00000  Uiso   1.00
C844   C     0.61402   0.84016   0.24025   0.00000  Uiso   1.00
C845   C     0.47169   0.85678   0.42074   0.00000  Uiso   1.00
C846   C     0.65952   0.84067   0.23675   0.00000  Uiso   1.00
C847   C     0.34087   0.82358   0.26683   0.00000  Uiso   1.00
C848   C     0.51326   0.98958   0.23756   0.00000  Uiso   1.00
C849   C     0.48344   0.67934   0.26516   0.00000  Uiso   1.00
C850   C     0.48918   0.72301   0.26044   0.00000  Uiso   1.00
C851   C     0.50971   0.94467   0.24035   0.00000  Uiso   1.00
C852   C     0.45694   0.90716   0.48518   0.00000  Uiso   1.00
C853   C     0.51857   0.81489   0.12934   0.00000  Uiso   1.00
C854   C     0.48051   0.85001   0.37121   0.00000  Uiso   1.00
C855   C     0.55487   0.77124   0.01031   0.00000  Uiso   1.00
C856   C     0.52424   0.80845   0.08104   0.00000  Uiso   1.00
C857   C     0.45626   0.89400   0.44118   0.00000  Uiso   1.00
C858   C     0.62148   0.82017   0.06434   0.00000  Uiso   1.00
C859   C     0.65028   0.82335   0.01627   0.00000  Uiso   1.00
C860   C     0.34493   0.86525   0.01137   0.00000  Uiso   1.00
C861   C     0.64616   0.80447   0.30967   0.00000  Uiso   1.00
C862   C     0.33724   0.79221   0.34147   0.00000  Uiso   1.00
C863   C     0.47221   0.88306   0.01098   0.00000  Uiso   1.00
C864   C     0.63976   0.77388   0.38306   0.00000  Uiso   1.00
C865   C     0.55219   0.67596   0.20339   0.00000  Uiso   1.00
C866   C     0.59033   0.68804   0.22424   0.00000  Uiso   1.00
C867   C     0.62771   0.71223   0.19257   0.00000  Uiso   1.00
C868   C     0.44366   0.99566   0.30047   0.00000  Uiso   1.00
C869   C     0.41426   0.69483   0.32621   0.00000  Uiso   1.00
C870   C     0.37609   0.67482   0.36077   0.00000  Uiso   1.00
C871   C     0.56736   0.70384   0.49803   0.00000  Uiso   1.00
C872   C     0.59737   0.67357   0.46958   0.00000  Uiso   1.00
C873   C     0.58099   0.96211   0.48110   0.00000  Uiso   1.00
C874   C     0.48412   0.84311   0.49222   0.00000  Uiso   1.00
C875   C     0.42528   0.79757   0.10059   0.00000  Uiso   1.00
C876   C     0.39896   0.78670   0.06588   0.00000  Uiso   1.00
C877   C     0.36257   0.75207   0.08072   0.00000  Uiso   1.00
C878   C     0.45488   0.92559   0.07870   0.00000  Uiso   1.00
C879   C     0.47441   0.97130   0.07989   0.00000  Uiso   1.00
C880   C     0.44457   0.99868   0.11349   0.00000  Uiso   1.00
C881   C     0.48355   0.82986   0.44696   0.00000  Uiso   1.00
C882   C     0.50140   0.81766   0.01543   0.00000  Uiso   1.00
C883   C     0.52652   0.78672   0.49096   0.00000  Uiso   1.00
C884   C     0.52183   0.77164   0.44844   0.00000  Uiso   1.00
C885   C     0.49712   0.79078   0.42864   0.00000  Uiso   1.00
H886   H     0.53651   0.74469   0.43077   0.00000  Uiso   1.00
H887   H     0.65800   0.89087   0.01712   0.00000  Uiso   1.00
H888   H     0.36616   0.86586   0.47676   0.00000  Uiso   1.00
H889   H     0.36497   0.87053   0.03573   0.00000  Uiso   1.00
H890   H     0.61782   0.79668   0.40162   0.00000  Uiso   1.00
H891   H     0.62067   0.74494   0.37325   0.00000  Uiso   1.00
H892   H     0.65814   0.76634   0.40588   0.00000  Uiso   1.00
H893   H     0.35872   0.76879   0.32362   0.00000  Uiso   1.00
H894   H     0.35682   0.82008   0.35285   0.00000  Uiso   1.00
H895   H     0.62490   0.82750   0.32930   0.00000  Uiso   1.00
H896   H     0.62655   0.77587   0.29978   0.00000  Uiso   1.00
H897   H     0.44674   0.91493   0.42194   0.00000  Uiso   1.00
H898   H     0.63836   0.69326   0.16033   0.00000  Uiso   1.00
H899   H     0.61814   0.74168   0.18577   0.00000  Uiso   1.00
H900   H     0.65491   0.72005   0.20837   0.00000  Uiso   1.00
H901   H     0.58083   0.70764   0.25626   0.00000  Uiso   1.00
H902   H     0.60098   0.99278   0.23185   0.00000  Uiso   1.00
H903   H     0.56133   0.98717   0.17329   0.00000  Uiso   1.00
H904   H     0.54485   0.70352   0.19017   0.00000  Uiso   1.00
H905   H     0.35670   0.98395   0.34385   0.00000  Uiso   1.00
H906   H     0.38716   0.99377   0.38576   0.00000  Uiso   1.00
H907   H     0.35555   0.69887   0.37883   0.00000  Uiso   1.00
H908   H     0.44860   0.93800   0.49756   0.00000  Uiso   1.00
H909   H     0.43239   0.71949   0.34409   0.00000  Uiso   1.00
H910   H     0.40207   0.70938   0.30218   0.00000  Uiso   1.00
H911   H     0.42404   0.97179   0.28339   0.00000  Uiso   1.00
H912   H     0.45425   0.98141   0.32594   0.00000  Uiso   1.00
H913   H     0.53493   0.69449   0.49222   0.00000  Uiso   1.00
H914   H     0.56564   0.70179   0.03418   0.00000  Uiso   1.00
H915   H     0.60008   0.67588   0.43335   0.00000  Uiso   1.00
H916   H     0.62970   0.68204   0.47557   0.00000  Uiso   1.00
H917   H     0.57829   0.95895   0.01714   0.00000  Uiso   1.00
H918   H     0.60363   0.94093   0.46023   0.00000  Uiso   1.00
H919   H     0.49066   0.77525   0.39805   0.00000  Uiso   1.00
H920   H     0.54918   0.95266   0.47416   0.00000  Uiso   1.00
H921   H     0.40343   0.80535   0.13389   0.00000  Uiso   1.00
H922   H     0.43956   0.76950   0.10412   0.00000  Uiso   1.00
H923   H     0.38562   0.81482   0.06163   0.00000  Uiso   1.00
H924   H     0.41964   0.77614   0.03296   0.00000  Uiso   1.00
H925   H     0.37545   0.72379   0.08571   0.00000  Uiso   1.00
H926   H     0.34462   0.74397   0.05453   0.00000  Uiso   1.00
H927   H     0.34020   0.76244   0.11261   0.00000  Uiso   1.00
H928   H     0.44872   0.91506   0.11299   0.00000  Uiso   1.00
H929   H     0.42303   0.92191   0.07111   0.00000  Uiso   1.00
H930   H     0.34874   0.85536   0.20850   0.00000  Uiso   1.00
H931   H     0.50514   0.97400   0.08954   0.00000  Uiso   1.00
H932   H     0.48128   0.98280   0.04602   0.00000  Uiso   1.00
H933   H     0.41386   0.99709   0.10411   0.00000  Uiso   1.00
H934   H     0.45981   0.69814   0.11343   0.00000  Uiso   1.00
H935   H     0.43815   0.98850   0.14796   0.00000  Uiso   1.00
H936   H     0.64197   0.82050   0.08773   0.00000  Uiso   1.00
H937   H     0.60462   0.84844   0.07509   0.00000  Uiso   1.00
H938   H     0.33750   0.79782   0.00750   0.00000  Uiso   1.00
H939   H     0.63053   0.82033   0.49175   0.00000  Uiso   1.00
O940   O     0.50000   0.83333   0.25000   0.00000  Uiso   1.00
O941   O     0.48784   0.79304   0.15458   0.00000  Uiso   1.00
O942   O     0.46274   0.87058   0.34968   0.00000  Uiso   1.00
O943   O     0.54157   0.84425   0.14606   0.00000  Uiso   1.00
O944   O     0.50785   0.82546   0.34968   0.00000  Uiso   1.00
O945   O     0.59301   0.78258   0.06824   0.00000  Uiso   1.00
O946   O     0.58319   0.74455   0.48528   0.00000  Uiso   1.00
O947   O     0.45589   0.83297   0.08968   0.00000  Uiso   1.00
O948   O     0.48475   0.90100   0.04928   0.00000  Uiso   1.00
O949   O     0.51264   0.74686   0.28213   0.00000  Uiso   1.00
O950   O     0.47965   0.92751   0.27013   0.00000  Uiso   1.00
O951   O     0.40745   0.79958   0.23413   0.00000  Uiso   1.00
O952   O     0.60026   0.85939   0.21360   0.00000  Uiso   1.00
O953   O     0.40405   0.85544   0.28213   0.00000  Uiso   1.00
O954   O     0.58824   0.81892   0.27013   0.00000  Uiso   1.00
O955   O     0.47093   0.73610   0.23413   0.00000  Uiso   1.00
O956   O     0.53678   0.92286   0.21360   0.00000  Uiso   1.00
Zn957  Zn    0.52672   0.80661   0.28734   0.00000  Uiso   1.00
Zn958  Zn    0.46713   0.79124   0.21875   0.00000  Uiso   1.00
Zn959  Zn    0.54389   0.86442   0.20657   0.00000  Uiso   1.00
Zn960  Zn    0.46226   0.87106   0.28733   0.00000  Uiso   1.00
C961   C     0.71978   0.82700   0.25941   0.00000  Uiso   1.00
C962   C     0.82706   0.82041   0.06237   0.00000  Uiso   1.00
C963   C     0.89133   0.78787   0.05337   0.00000  Uiso   1.00
C964   C     0.94736   0.84016   0.24025   0.00000  Uiso   1.00
C965   C     0.80503   0.85678   0.42074   0.00000  Uiso   1.00
C966   C     0.99286   0.84067   0.23675   0.00000  Uiso   1.00
C967   C     0.67420   0.82358   0.26683   0.00000  Uiso   1.00
C968   C     0.84659   0.98958   0.23756   0.00000  Uiso   1.00
C969   C     0.81677   0.67934   0.26516   0.00000  Uiso   1.00
C970   C     0.82252   0.72301   0.26044   0.00000  Uiso   1.00
C971   C     0.84304   0.94467   0.24035   0.00000  Uiso   1.00
C972   C     0.79028   0.90716   0.48518   0.00000  Uiso   1.00
C973   C     0.85190   0.81489   0.12934   0.00000  Uiso   1.00
C974   C     0.81384   0.85001   0.37121   0.00000  Uiso   1.00
C975   C     0.88821   0.77124   0.01031   0.00000  Uiso   1.00
C976   C     0.85758   0.80845   0.08104   0.00000  Uiso   1.00
C977   C     0.78959   0.89400   0.44118   0.00000  Uiso   1.00
C978   C     0.95481   0.82017   0.06434   0.00000  Uiso   1.00
C979   C     0.98361   0.82335   0.01627   0.00000  Uiso   1.00
C980   C     0.67827   0.86525   0.01137   0.00000  Uiso   1.00
C981   C     0.97949   0.80447   0.30967   0.00000  Uiso   1.00
C982   C     0.67057   0.79221   0.34147   0.00000  Uiso   1.00
C983   C     0.80554   0.88306   0.01098   0.00000  Uiso   1.00
C984   C     0.97310   0.77388   0.38306   0.00000  Uiso   1.00
C985   C     0.88552   0.67596   0.20339   0.00000  Uiso   1.00
C986   C     0.92366   0.68804   0.22424   0.00000  Uiso   1.00
C987   C     0.96105   0.71223   0.19257   0.00000  Uiso   1.00
C988   C     0.77699   0.99566   0.30047   0.00000  Uiso   1.00
C989   C     0.74759   0.69483   0.32621   0.00000  Uiso   1.00
C990   C     0.70942   0.67482   0.36077   0.00000  Uiso   1.00
C991   C     0.90069   0.70384   0.49803   0.00000  Uiso   1.00
C992   C     0.93071   0.67357   0.46958   0.00000  Uiso   1.00
C993   C     0.91432   0.96211   0.48110   0.00000  Uiso   1.00
C994   C     0.81745   0.84311   0.49222   0.00000  Uiso   1.00
C995   C     0.75862   0.79757   0.10059   0.00000  Uiso   1.00
C996   C     0.73229   0.78670   0.06588   0.00000  Uiso   1.00
C997   C     0.69590   0.75207   0.08072   0.00000  Uiso   1.00
C998   C     0.78821   0.92559   0.07870   0.00000  Uiso   1.00
C999   C     0.80774   0.97130   0.07989   0.00000  Uiso   1.00
C1000  C     0.77790   0.99868   0.11349   0.00000  Uiso   1.00
C1001  C     0.81688   0.82986   0.44696   0.00000  Uiso   1.00
C1002  C     0.83473   0.81766   0.01543   0.00000  Uiso   1.00
C1003  C     0.85986   0.78672   0.49096   0.00000  Uiso   1.00
C1004  C     0.85516   0.77164   0.44844   0.00000  Uiso   1.00
C1005  C     0.83046   0.79078   0.42864   0.00000  Uiso   1.00
H1006  H     0.86985   0.74469   0.43077   0.00000  Uiso   1.00
H1007  H     0.99134   0.89087   0.01712   0.00000  Uiso   1.00
H1008  H     0.69950   0.86586   0.47676   0.00000  Uiso   1.00
H1009  H     0.69830   0.87053   0.03573   0.00000  Uiso   1.00
H1010  H     0.95115   0.79668   0.40162   0.00000  Uiso   1.00
H1011  H     0.95400   0.74494   0.37325   0.00000  Uiso   1.00
H1012  H     0.99147   0.76634   0.40588   0.00000  Uiso   1.00
H1013  H     0.69205   0.76879   0.32362   0.00000  Uiso   1.00
H1014  H     0.69015   0.82008   0.35285   0.00000  Uiso   1.00
H1015  H     0.95823   0.82750   0.32930   0.00000  Uiso   1.00
H1016  H     0.95988   0.77587   0.29978   0.00000  Uiso   1.00
H1017  H     0.78007   0.91493   0.42194   0.00000  Uiso   1.00
H1018  H     0.97170   0.69326   0.16033   0.00000  Uiso   1.00
H1019  H     0.95147   0.74168   0.18577   0.00000  Uiso   1.00
H1020  H     0.98824   0.72005   0.20837   0.00000  Uiso   1.00
H1021  H     0.91416   0.70764   0.25626   0.00000  Uiso   1.00
H1022  H     0.93431   0.99278   0.23185   0.00000  Uiso   1.00
H1023  H     0.89466   0.98717   0.17329   0.00000  Uiso   1.00
H1024  H     0.87818   0.70352   0.19017   0.00000  Uiso   1.00
H1025  H     0.69003   0.98395   0.34385   0.00000  Uiso   1.00
H1026  H     0.72049   0.99377   0.38576   0.00000  Uiso   1.00
H1027  H     0.68888   0.69887   0.37883   0.00000  Uiso   1.00
H1028  H     0.78193   0.93800   0.49756   0.00000  Uiso   1.00
H1029  H     0.76573   0.71949   0.34409   0.00000  Uiso   1.00
H1030  H     0.73540   0.70938   0.30218   0.00000  Uiso   1.00
H1031  H     0.75737   0.97179   0.28339   0.00000  Uiso   1.00
H1032  H     0.78759   0.98141   0.32594   0.00000  Uiso   1.00
H1033  H     0.86827   0.69449   0.49222   0.00000  Uiso   1.00
H1034  H     0.89897   0.70179   0.03418   0.00000  Uiso   1.00
H1035  H     0.93341   0.67588   0.43335   0.00000  Uiso   1.00
H1036  H     0.96304   0.68204   0.47557   0.00000  Uiso   1.00
H1037  H     0.91163   0.95895   0.01714   0.00000  Uiso   1.00
H1038  H     0.93696   0.94093   0.46023   0.00000  Uiso   1.00
H1039  H     0.82400   0.77525   0.39805   0.00000  Uiso   1.00
H1040  H     0.88251   0.95266   0.47416   0.00000  Uiso   1.00
H1041  H     0.73676   0.80535   0.13389   0.00000  Uiso   1.00
H1042  H     0.77289   0.76950   0.10412   0.00000  Uiso   1.00
H1043  H     0.71895   0.81482   0.06163   0.00000  Uiso   1.00
H1044  H     0.75297   0.77614   0.03296   0.00000  Uiso   1.00
H1045  H     0.70878   0.72379   0.08571   0.00000  Uiso   1.00
H1046  H     0.67796   0.74397   0.05453   0.00000  Uiso   1.00
H1047  H     0.67353   0.76244   0.11261   0.00000  Uiso   1.00
H1048  H     0.78205   0.91506   0.11299   0.00000  Uiso   1.00
H1049  H     0.75636   0.92191   0.07111   0.00000  Uiso   1.00
H1050  H     0.68207   0.85536   0.20850   0.00000  Uiso   1.00
H1051  H     0.83847   0.97400   0.08954   0.00000  Uiso   1.00
H1052  H     0.81461   0.98280   0.04602   0.00000  Uiso   1.00
H1053  H     0.74719   0.99709   0.10411   0.00000  Uiso   1.00
H1054  H     0.79314   0.69814   0.11343   0.00000  Uiso   1.00
H1055  H     0.77148   0.98850   0.14796   0.00000  Uiso   1.00
H1056  H     0.97530   0.82050   0.08773   0.00000  Uiso   1.00
H1057  H     0.93795   0.84844   0.07509   0.00000  Uiso   1.00
H1058  H     0.67083   0.79782   0.00750   0.00000  Uiso   1.00
H1059  H     0.96387   0.82033   0.49175   0.00000  Uiso   1.00
O1060  O     0.83333   0.83333   0.25000   0.00000  Uiso   1.00
O1061  O     0.82118   0.79304   0.15458   0.00000  Uiso   1.00
O1062  O     0.79607   0.87058   0.34968   0.00000  Uiso   1.00
O1063  O     0.87491   0.84425   0.14606   0.00000  Uiso   1.00
O1064  O     0.84118   0.82546   0.34968   0.00000  Uiso   1.00
O1065  O     0.92635   0.78258   0.06824   0.00000  Uiso   1.00
O1066  O     0.91653   0.74455   0.48528   0.00000  Uiso   1.00
O1067  O     0.78923   0.83297   0.08968   0.00000  Uiso   1.00
O1068  O     0.81809   0.90100   0.04928   0.00000  Uiso   1.00
O1069  O     0.84597   0.74686   0.28213   0.00000  Uiso   1.00
O1070  O     0.81298   0.92751   0.27013   0.00000  Uiso   1.00
O1071  O     0.74078   0.79958   0.23413   0.00000  Uiso   1.00
O1072  O     0.93360   0.85939   0.21360   0.00000  Uiso   1.00
O1073  O     0.73738   0.85544   0.28213   0.00000  Uiso   1.00
O1074  O     0.92158   0.81892   0.27013   0.00000  Uiso   1.00
O1075  O     0.80426   0.73610   0.23413   0.00000  Uiso   1.00
O1076  O     0.87012   0.92286   0.21360   0.00000  Uiso   1.00
Zn1077 Zn    0.86005   0.80661   0.28734   0.00000  Uiso   1.00
Zn1078 Zn    0.80046   0.79124   0.21875   0.00000  Uiso   1.00
Zn1079 Zn    0.87723   0.86442   0.20657   0.00000  Uiso   1.00
Zn1080 Zn    0.79560   0.87106   0.28733   0.00000  Uiso   1.00
C1081  C     0.05312   0.16033   0.75941   0.00000  Uiso   1.00
C1082  C     0.16039   0.15374   0.56237   0.00000  Uiso   1.00
C1083  C     0.22467   0.12121   0.55337   0.00000  Uiso   1.00
C1084  C     0.28069   0.17349   0.74025   0.00000  Uiso   1.00
C1085  C     0.13836   0.19011   0.92074   0.00000  Uiso   1.00
C1086  C     0.32619   0.17401   0.73675   0.00000  Uiso   1.00
C1087  C     0.00754   0.15692   0.76683   0.00000  Uiso   1.00
C1088  C     0.17993   0.32291   0.73756   0.00000  Uiso   1.00
C1089  C     0.15010   0.01267   0.76516   0.00000  Uiso   1.00
C1090  C     0.15585   0.05635   0.76044   0.00000  Uiso   1.00
C1091  C     0.17637   0.27800   0.74035   0.00000  Uiso   1.00
C1092  C     0.12361   0.24050   0.98518   0.00000  Uiso   1.00
C1093  C     0.18524   0.14823   0.62934   0.00000  Uiso   1.00
C1094  C     0.14718   0.18334   0.87121   0.00000  Uiso   1.00
C1095  C     0.22154   0.10457   0.51031   0.00000  Uiso   1.00
C1096  C     0.19091   0.14179   0.58104   0.00000  Uiso   1.00
C1097  C     0.12292   0.22733   0.94118   0.00000  Uiso   1.00
C1098  C     0.28814   0.15351   0.56434   0.00000  Uiso   1.00
C1099  C     0.31694   0.15668   0.51627   0.00000  Uiso   1.00
C1100  C     0.01160   0.19858   0.51137   0.00000  Uiso   1.00
C1101  C     0.31282   0.13781   0.80967   0.00000  Uiso   1.00
C1102  C     0.00390   0.12555   0.84147   0.00000  Uiso   1.00
C1103  C     0.13888   0.21639   0.51098   0.00000  Uiso   1.00
C1104  C     0.30643   0.10722   0.88306   0.00000  Uiso   1.00
C1105  C     0.21885   0.00929   0.70339   0.00000  Uiso   1.00
C1106  C     0.25699   0.02137   0.72424   0.00000  Uiso   1.00
C1107  C     0.29438   0.04556   0.69257   0.00000  Uiso   1.00
C1108  C     0.11033   0.32899   0.80047   0.00000  Uiso   1.00
C1109  C     0.08093   0.02816   0.82621   0.00000  Uiso   1.00
C1110  C     0.04275   0.00815   0.86077   0.00000  Uiso   1.00
C1111  C     0.23402   0.03718   0.99803   0.00000  Uiso   1.00
C1112  C     0.26404   0.00690   0.96958   0.00000  Uiso   1.00
C1113  C     0.24766   0.29544   0.98110   0.00000  Uiso   1.00
C1114  C     0.15079   0.17645   0.99222   0.00000  Uiso   1.00
C1115  C     0.09195   0.13090   0.60059   0.00000  Uiso   1.00
C1116  C     0.06562   0.12003   0.56588   0.00000  Uiso   1.00
C1117  C     0.02924   0.08540   0.58072   0.00000  Uiso   1.00
C1118  C     0.12154   0.25892   0.57870   0.00000  Uiso   1.00
C1119  C     0.14107   0.30463   0.57989   0.00000  Uiso   1.00
C1120  C     0.11123   0.33202   0.61349   0.00000  Uiso   1.00
C1121  C     0.15022   0.16319   0.94696   0.00000  Uiso   1.00
C1122  C     0.16806   0.15099   0.51543   0.00000  Uiso   1.00
C1123  C     0.19319   0.12006   0.99096   0.00000  Uiso   1.00
C1124  C     0.18850   0.10497   0.94844   0.00000  Uiso   1.00
C1125  C     0.16379   0.12412   0.92864   0.00000  Uiso   1.00
H1126  H     0.20318   0.07802   0.93077   0.00000  Uiso   1.00
H1127  H     0.32467   0.22420   0.51712   0.00000  Uiso   1.00
H1128  H     0.03283   0.19920   0.97676   0.00000  Uiso   1.00
H1129  H     0.03163   0.20386   0.53573   0.00000  Uiso   1.00
H1130  H     0.28449   0.13001   0.90162   0.00000  Uiso   1.00
H1131  H     0.28733   0.07827   0.87325   0.00000  Uiso   1.00
H1132  H     0.32481   0.09967   0.90588   0.00000  Uiso   1.00
H1133  H     0.02539   0.10212   0.82362   0.00000  Uiso   1.00
H1134  H     0.02348   0.15341   0.85285   0.00000  Uiso   1.00
H1135  H     0.29157   0.16083   0.82930   0.00000  Uiso   1.00
H1136  H     0.29322   0.10921   0.79978   0.00000  Uiso   1.00
H1137  H     0.11341   0.24827   0.92194   0.00000  Uiso   1.00
H1138  H     0.30503   0.02659   0.66033   0.00000  Uiso   1.00
H1139  H     0.28481   0.07501   0.68577   0.00000  Uiso   1.00
H1140  H     0.32157   0.05338   0.70837   0.00000  Uiso   1.00
H1141  H     0.24749   0.04098   0.75626   0.00000  Uiso   1.00
H1142  H     0.26764   0.32611   0.73185   0.00000  Uiso   1.00
H1143  H     0.22800   0.32051   0.67329   0.00000  Uiso   1.00
H1144  H     0.21151   0.03685   0.69017   0.00000  Uiso   1.00
H1145  H     0.02337   0.31728   0.84385   0.00000  Uiso   1.00
H1146  H     0.05383   0.32711   0.88576   0.00000  Uiso   1.00
H1147  H     0.02221   0.03220   0.87883   0.00000  Uiso   1.00
H1148  H     0.11527   0.27134   0.99756   0.00000  Uiso   1.00
H1149  H     0.09906   0.05282   0.84409   0.00000  Uiso   1.00
H1150  H     0.06873   0.04272   0.80218   0.00000  Uiso   1.00
H1151  H     0.09070   0.30512   0.78339   0.00000  Uiso   1.00
H1152  H     0.12092   0.31475   0.82594   0.00000  Uiso   1.00
H1153  H     0.20160   0.02782   0.99222   0.00000  Uiso   1.00
H1154  H     0.23231   0.03512   0.53418   0.00000  Uiso   1.00
H1155  H     0.26675   0.00922   0.93335   0.00000  Uiso   1.00
H1156  H     0.29637   0.01537   0.97557   0.00000  Uiso   1.00
H1157  H     0.24496   0.29229   0.51714   0.00000  Uiso   1.00
H1158  H     0.27029   0.27426   0.96023   0.00000  Uiso   1.00
H1159  H     0.15733   0.10858   0.89805   0.00000  Uiso   1.00
H1160  H     0.21585   0.28599   0.97416   0.00000  Uiso   1.00
H1161  H     0.07009   0.13868   0.63389   0.00000  Uiso   1.00
H1162  H     0.10622   0.10283   0.60412   0.00000  Uiso   1.00
H1163  H     0.05228   0.14815   0.56163   0.00000  Uiso   1.00
H1164  H     0.08631   0.10948   0.53296   0.00000  Uiso   1.00
H1165  H     0.04211   0.05712   0.58571   0.00000  Uiso   1.00
H1166  H     0.01129   0.07730   0.55453   0.00000  Uiso   1.00
H1167  H     0.00686   0.09577   0.61261   0.00000  Uiso   1.00
H1168  H     0.11539   0.24839   0.61299   0.00000  Uiso   1.00
H1169  H     0.08969   0.25524   0.57111   0.00000  Uiso   1.00
H1170  H     0.01540   0.18869   0.70850   0.00000  Uiso   1.00
H1171  H     0.17180   0.30733   0.58954   0.00000  Uiso   1.00
H1172  H     0.14794   0.31613   0.54602   0.00000  Uiso   1.00
H1173  H     0.08052   0.33042   0.60411   0.00000  Uiso   1.00
H1174  H     0.12648   0.03147   0.61343   0.00000  Uiso   1.00
H1175  H     0.10482   0.32183   0.64796   0.00000  Uiso   1.00
H1176  H     0.30864   0.15383   0.58773   0.00000  Uiso   1.00
H1177  H     0.27128   0.18177   0.57509   0.00000  Uiso   1.00
H1178  H     0.00416   0.13115   0.50750   0.00000  Uiso   1.00
H1179  H     0.29720   0.15366   0.99175   0.00000  Uiso   1.00
O1180  O     0.16667   0.16667   0.75000   0.00000  Uiso   1.00
O1181  O     0.15451   0.12637   0.65458   0.00000  Uiso   1.00
O1182  O     0.12940   0.20391   0.84968   0.00000  Uiso   1.00
O1183  O     0.20824   0.17759   0.64606   0.00000  Uiso   1.00
O1184  O     0.17451   0.15880   0.84968   0.00000  Uiso   1.00
O1185  O     0.25968   0.11592   0.56824   0.00000  Uiso   1.00
O1186  O     0.24986   0.07788   0.98528   0.00000  Uiso   1.00
O1187  O     0.12256   0.16630   0.58968   0.00000  Uiso   1.00
O1188  O     0.15142   0.23434   0.54928   0.00000  Uiso   1.00
O1189  O     0.17930   0.08019   0.78213   0.00000  Uiso   1.00
O1190  O     0.14632   0.26085   0.77013   0.00000  Uiso   1.00
O1191  O     0.07412   0.13291   0.73413   0.00000  Uiso   1.00
O1192  O     0.26693   0.19272   0.71360   0.00000  Uiso   1.00
O1193  O     0.07071   0.18878   0.78213   0.00000  Uiso   1.00
O1194  O     0.25491   0.15226   0.77013   0.00000  Uiso   1.00
O1195  O     0.13760   0.06944   0.73413   0.00000  Uiso   1.00
O1196  O     0.20345   0.25620   0.71360   0.00000  Uiso   1.00
Zn1197 Zn    0.19338   0.13994   0.78734   0.00000  Uiso   1.00
Zn1198 Zn    0.13379   0.12458   0.71875   0.00000  Uiso   1.00
Zn1199 Zn    0.21056   0.19775   0.70657   0.00000  Uiso   1.00
Zn1200 Zn    0.12893   0.20439   0.78733   0.00000  Uiso   1.00
C1201  C     0.38645   0.16033   0.75941   0.00000  Uiso   1.00
C1202  C     0.49373   0.15374   0.56237   0.00000  Uiso   1.00
C1203  C     0.55800   0.12121   0.55337   0.00000  Uiso   1.00
C1204  C     0.61402   0.17349   0.74025   0.00000  Uiso   1.00
C1205  C     0.47169   0.19011   0.92074   0.00000  Uiso   1.00
C1206  C     0.65952   0.17401   0.73675   0.00000  Uiso   1.00
C1207  C     0.34087   0.15692   0.76683   0.00000  Uiso   1.00
C1208  C     0.51326   0.32291   0.73756   0.00000  Uiso   1.00
C1209  C     0.48344   0.01267   0.76516   0.00000  Uiso   1.00
C1210  C     0.48918   0.05635   0.76044   0.00000  Uiso   1.00
C1211  C     0.50971   0.27800   0.74035   0.00000  Uiso   1.00
C1212  C     0.45694   0.24050   0.98518   0.00000  Uiso   1.00
C1213  C     0.51857   0.14823   0.62934   0.00000  Uiso   1.00
C1214  C     0.48051   0.18334   0.87121   0.00000  Uiso   1.00
C1215  C     0.55487   0.10457   0.51031   0.00000  Uiso   1.00
C1216  C     0.52424   0.14179   0.58104   0.00000  Uiso   1.00
C1217  C     0.45626   0.22733   0.94118   0.00000  Uiso   1.00
C1218  C     0.62148   0.15351   0.56434   0.00000  Uiso   1.00
C1219  C     0.65028   0.15668   0.51627   0.00000  Uiso   1.00
C1220  C     0.34493   0.19858   0.51137   0.00000  Uiso   1.00
C1221  C     0.64616   0.13781   0.80967   0.00000  Uiso   1.00
C1222  C     0.33724   0.12555   0.84147   0.00000  Uiso   1.00
C1223  C     0.47221   0.21639   0.51098   0.00000  Uiso   1.00
C1224  C     0.63976   0.10722   0.88306   0.00000  Uiso   1.00
C1225  C     0.55219   0.00929   0.70339   0.00000  Uiso   1.00
C1226  C     0.59033   0.02137   0.72424   0.00000  Uiso   1.00
C1227  C     0.62771   0.04556   0.69257   0.00000  Uiso   1.00
C1228  C     0.44366   0.32899   0.80047   0.00000  Uiso   1.00
C1229  C     0.41426   0.02816   0.82621   0.00000  Uiso   1.00
C1230  C     0.37609   0.00815   0.86077   0.00000  Uiso   1.00
C1231  C     0.56736   0.03718   0.99803   0.00000  Uiso   1.00
C1232  C     0.59737   0.00690   0.96958   0.00000  Uiso   1.00
C1233  C     0.58099   0.29544   0.98110   0.00000  Uiso   1.00
C1234  C     0.48412   0.17645   0.99222   0.00000  Uiso   1.00
C1235  C     0.42528   0.13090   0.60059   0.00000  Uiso   1.00
C1236  C     0.39896   0.12003   0.56588   0.00000  Uiso   1.00
C1237  C     0.36257   0.08540   0.58072   0.00000  Uiso   1.00
C1238  C     0.45488   0.25892   0.57870   0.00000  Uiso   1.00
C1239  C     0.47441   0.30463   0.57989   0.00000  Uiso   1.00
C1240  C     0.44457   0.33202   0.61349   0.00000  Uiso   1.00
C1241  C     0.48355   0.16319   0.94696   0.00000  Uiso   1.00
C1242  C     0.50140   0.15099   0.51543   0.00000  Uiso   1.00
C1243  C     0.52652   0.12006   0.99096   0.00000  Uiso   1.00
C1244  C     0.52183   0.10497   0.94844   0.00000  Uiso   1.00
C1245  C     0.49712   0.12412   0.92864   0.00000  Uiso   1.00
H1246  H     0.53651   0.07802   0.93077   0.00000  Uiso   1.00
H1247  H     0.65800   0.22420   0.51712   0.00000  Uiso   1.00
H1248  H     0.36616   0.19920   0.97676   0.00000  Uiso   1.00
H1249  H     0.36497   0.20386   0.53573   0.00000  Uiso   1.00
H1250  H     0.61782   0.13001   0.90162   0.00000  Uiso   1.00
H1251  H     0.62067   0.07827   0.87325   0.00000  Uiso   1.00
H1252  H     0.65814   0.09967   0.90588   0.00000  Uiso   1.00
H1253  H     0.35872   0.10212   0.82362   0.00000  Uiso   1.00
H1254  H     0.35682   0.15341   0.85285   0.00000  Uiso   1.00
H1255  H     0.62490   0.16083   0.82930   0.00000  Uiso   1.00
H1256  H     0.62655   0.10921   0.79978   0.00000  Uiso   1.00
H1257  H     0.44674   0.24827   0.92194   0.00000  Uiso   1.00
H1258  H     0.63836   0.02659   0.66033   0.00000  Uiso   1.00
H1259  H     0.61814   0.07501   0.68577   0.00000  Uiso   1.00
H1260  H     0.65491   0.05338   0.70837   0.00000  Uiso   1.00
H1261  H     0.58083   0.04098   0.75626   0.00000  Uiso   1.00
H1262  H     0.60098   0.32611   0.73185   0.00000  Uiso   1.00
H1263  H     0.56133   0.32051   0.67329   0.00000  Uiso   1.00
H1264  H     0.54485   0.03685   0.69017   0.00000  Uiso   1.00
H1265  H     0.35670   0.31728   0.84385   0.00000  Uiso   1.00
H1266  H     0.38716   0.32711   0.88576   0.00000  Uiso   1.00
H1267  H     0.35555   0.03220   0.87883   0.00000  Uiso   1.00
H1268  H     0.44860   0.27134   0.99756   0.00000  Uiso   1.00
H1269  H     0.43239   0.05282   0.84409   0.00000  Uiso   1.00
H1270  H     0.40207   0.04272   0.80218   0.00000  Uiso   1.00
H1271  H     0.42404   0.30512   0.78339   0.00000  Uiso   1.00
H1272  H     0.45425   0.31475   0.82594   0.00000  Uiso   1.00
H1273  H     0.53493   0.02782   0.99222   0.00000  Uiso   1.00
H1274  H     0.56564   0.03512   0.53418   0.00000  Uiso   1.00
H1275  H     0.60008   0.00922   0.93335   0.00000  Uiso   1.00
H1276  H     0.62970   0.01537   0.97557   0.00000  Uiso   1.00
H1277  H     0.57829   0.29229   0.51714   0.00000  Uiso   1.00
H1278  H     0.60363   0.27426   0.96023   0.00000  Uiso   1.00
H1279  H     0.49066   0.10858   0.89805   0.00000  Uiso   1.00
H1280  H     0.54918   0.28599   0.97416   0.00000  Uiso   1.00
H1281  H     0.40343   0.13868   0.63389   0.00000  Uiso   1.00
H1282  H     0.43956   0.10283   0.60412   0.00000  Uiso   1.00
H1283  H     0.38562   0.14815   0.56163   0.00000  Uiso   1.00
H1284  H     0.41964   0.10948   0.53296   0.00000  Uiso   1.00
H1285  H     0.37545   0.05712   0.58571   0.00000  Uiso   1.00
H1286  H     0.34462   0.07730   0.55453   0.00000  Uiso   1.00
H1287  H     0.34020   0.09577   0.61261   0.00000  Uiso   1.00
H1288  H     0.44872   0.24839   0.61299   0.00000  Uiso   1.00
H1289  H     0.42303   0.25524   0.57111   0.00000  Uiso   1.00
H1290  H     0.34874   0.18869   0.70850   0.00000  Uiso   1.00
H1291  H     0.50514   0.30733   0.58954   0.00000  Uiso   1.00
H1292  H     0.48128   0.31613   0.54602   0.00000  Uiso   1.00
H1293  H     0.41386   0.33042   0.60411   0.00000  Uiso   1.00
H1294  H     0.45981   0.03147   0.61343   0.00000  Uiso   1.00
H1295  H     0.43815   0.32183   0.64796   0.00000  Uiso   1.00
H1296  H     0.64197   0.15383   0.58773   0.00000  Uiso   1.00
H1297  H     0.60462   0.18177   0.57509   0.00000  Uiso   1.00
H1298  H     0.33750   0.13115   0.50750   0.00000  Uiso   1.00
H1299  H     0.63053   0.15366   0.99175   0.00000  Uiso   1.00
O1300  O     0.50000   0.16667   0.75000   0.00000  Uiso   1.00
O1301  O     0.48784   0.12637   0.65458   0.00000  Uiso   1.00
O1302  O     0.46274   0.20391   0.84968   0.00000  Uiso   1.00
O1303  O     0.54157   0.17759   0.64606   0.00000  Uiso   1.00
O1304  O     0.50785   0.15880   0.84968   0.00000  Uiso   1.00
O1305  O     0.59301   0.11592   0.56824   0.00000  Uiso   1.00
O1306  O     0.58319   0.07788   0.98528   0.00000  Uiso   1.00
O1307  O     0.45589   0.16630   0.58968   0.00000  Uiso   1.00
O1308  O     0.48475   0.23434   0.54928   0.00000  Uiso   1.00
O1309  O     0.51264   0.08019   0.78213   0.00000  Uiso   1.00
O1310  O     0.47965   0.26085   0.77013   0.00000  Uiso   1.00
O1311  O     0.40745   0.13291   0.73413   0.00000  Uiso   1.00
O1312  O     0.60026   0.19272   0.71360   0.00000  Uiso   1.00
O1313  O     0.40405   0.18878   0.78213   0.00000  Uiso   1.00
O1314  O     0.58824   0.15226   0.77013   0.00000  Uiso   1.00
O1315  O     0.47093   0.06944   0.73413   0.00000  Uiso   1.00
O1316  O     0.53678   0.25620   0.71360   0.00000  Uiso   1.00
Zn1317 Zn    0.52672   0.13994   0.78734   0.00000  Uiso   1.00
Zn1318 Zn    0.46713   0.12458   0.71875   0.00000  Uiso   1.00
Zn1319 Zn    0.54389   0.19775   0.70657   0.00000  Uiso   1.00
Zn1320 Zn    0.46226   0.20439   0.78733   0.00000  Uiso   1.00
C1321  C     0.71978   0.16033   0.75941   0.00000  Uiso   1.00
C1322  C     0.82706   0.15374   0.56237   0.00000  Uiso   1.00
C1323  C     0.89133   0.12121   0.55337   0.00000  Uiso   1.00
C1324  C     0.94736   0.17349   0.74025   0.00000  Uiso   1.00
C1325  C     0.80503   0.19011   0.92074   0.00000  Uiso   1.00
C1326  C     0.99286   0.17401   0.73675   0.00000  Uiso   1.00
C1327  C     0.67420   0.15692   0.76683   0.00000  Uiso   1.00
C1328  C     0.84659   0.32291   0.73756   0.00000  Uiso   1.00
C1329  C     0.81677   0.01267   0.76516   0.00000  Uiso   1.00
C1330  C     0.82252   0.05635   0.76044   0.00000  Uiso   1.00
C1331  C     0.84304   0.27800   0.74035   0.00000  Uiso   1.00
C1332  C     0.79028   0.24050   0.98518   0.00000  Uiso   1.00
C1333  C     0.85190   0.14823   0.62934   0.00000  Uiso   1.00
C1334  C     0.81384   0.18334   0.87121   0.00000  Uiso   1.00
C1335  C     0.88821   0.10457   0.51031   0.00000  Uiso   1.00
C1336  C     0.85758   0.14179   0.58104   0.00000  Uiso   1.00
C1337  C     0.78959   0.22733   0.94118   0.00000  Uiso   1.00
C1338  C     0.95481   0.15351   0.56434   0.00000  Uiso   1.00
C1339  C     0.98361   0.15668   0.51627   0.00000  Uiso   1.00
C1340  C     0.67827   0.19858   0.51137   0.00000  Uiso   1.00
C1341  C     0.97949   0.13781   0.80967   0.00000  Uiso   1.00
C1342  C     0.67057   0.12555   0.84147   0.00000  Uiso   1.00
C1343  C     0.80554   0.21639   0.51098   0.00000  Uiso   1.00
C1344  C     0.97310   0.10722   0.88306   0.00000  Uiso   1.00
C1345  C     0.88552   0.00929   0.70339   0.00000  Uiso   1.00
C1346  C     0.92366   0.02137   0.72424   0.00000  Uiso   1.00
C1347  C     0.96105   0.04556   0.69257   0.00000  Uiso   1.00
C1348  C     0.77699   0.32899   0.80047   0.00000  Uiso   1.00
C1349  C     0.74759   0.02816   0.82621   0.00000  Uiso   1.00
C1350  C     0.70942   0.00815   0.86077   0.00000  Uiso   1.00
C1351  C     0.90069   0.03718   0.99803   0.00000  Uiso   1.00
C1352  C     0.93071   0.00690   0.96958   0.00000  Uiso   1.00
C1353  C     0.91432   0.29544   0.98110   0.00000  Uiso   1.00
C1354  C     0.81745   0.17645   0.99222   0.00000  Uiso   1.00
C1355  C     0.75862   0.13090   0.60059   0.00000  Uiso   1.00
C1356  C     0.73229   0.12003   0.56588   0.00000  Uiso   1.00
C1357  C     0.69590   0.08540   0.58072   0.00000  Uiso   1.00
C1358  C     0.78821   0.25892   0.57870   0.00000  Uiso   1.00
C1359  C     0.80774   0.30463   0.57989   0.00000  Uiso   1.00
C1360  C     0.77790   0.33202   0.61349   0.00000  Uiso   1.00
C1361  C     0.81688   0.16319   0.94696   0.00000  Uiso   1.00
C1362  C     0.83473   0.15099   0.51543   0.00000  Uiso   1.00
C1363  C     0.85986   0.12006   0.99096   0.00000  Uiso   1.00
C1364  C     0.85516   0.10497   0.94844   0.00000  Uiso   1.00
C1365  C     0.83046   0.12412   0.92864   0.00000  Uiso   1.00
H1366  H     0.86985   0.07802   0.93077   0.00000  Uiso   1.00
H1367  H     0.99134   0.22420   0.51712   0.00000  Uiso   1.00
H1368  H     0.69950   0.19920   0.97676   0.00000  Uiso   1.00
H1369  H     0.69830   0.20386   0.53573   0.00000  Uiso   1.00
H1370  H     0.95115   0.13001   0.90162   0.00000  Uiso   1.00
H1371  H     0.95400   0.07827   0.87325   0.00000  Uiso   1.00
H1372  H     0.99147   0.09967   0.90588   0.00000  Uiso   1.00
H1373  H     0.69205   0.10212   0.82362   0.00000  Uiso   1.00
H1374  H     0.69015   0.15341   0.85285   0.00000  Uiso   1.00
H1375  H     0.95823   0.16083   0.82930   0.00000  Uiso   1.00
H1376  H     0.95988   0.10921   0.79978   0.00000  Uiso   1.00
H1377  H     0.78007   0.24827   0.92194   0.00000  Uiso   1.00
H1378  H     0.97170   0.02659   0.66033   0.00000  Uiso   1.00
H1379  H     0.95147   0.07501   0.68577   0.00000  Uiso   1.00
H1380  H     0.98824   0.05338   0.70837   0.00000  Uiso   1.00
H1381  H     0.91416   0.04098   0.75626   0.00000  Uiso   1.00
H1382  H     0.93431   0.32611   0.73185   0.00000  Uiso   1.00
H1383  H     0.89466   0.32051   0.67329   0.00000  Uiso   1.00
H1384  H     0.87818   0.03685   0.69017   0.00000  Uiso   1.00
H1385  H     0.69003   0.31728   0.84385   0.00000  Uiso   1.00
H1386  H     0.72049   0.32711   0.88576   0.00000  Uiso   1.00
H1387  H     0.68888   0.03220   0.87883   0.00000  Uiso   1.00
H1388  H     0.78193   0.27134   0.99756   0.00000  Uiso   1.00
H1389  H     0.76573   0.05282   0.84409   0.00000  Uiso   1.00
H1390  H     0.73540   0.04272   0.80218   0.00000  Uiso   1.00
H1391  H     0.75737   0.30512   0.78339   0.00000  Uiso   1.00
H1392  H     0.78759   0.31475   0.82594   0.00000  Uiso   1.00
H1393  H     0.86827   0.02782   0.99222   0.00000  Uiso   1.00
H1394  H     0.89897   0.03512   0.53418   0.00000  Uiso   1.00
H1395  H     0.93341   0.00922   0.93335   0.00000  Uiso   1.00
H1396  H     0.96304   0.01537   0.97557   0.00000  Uiso   1.00
H1397  H     0.91163   0.29229   0.51714   0.00000  Uiso   1.00
H1398  H     0.93696   0.27426   0.96023   0.00000  Uiso   1.00
H1399  H     0.82400   0.10858   0.89805   0.00000  Uiso   1.00
H1400  H     0.88251   0.28599   0.97416   0.00000  Uiso   1.00
H1401  H     0.73676   0.13868   0.63389   0.00000  Uiso   1.00
H1402  H     0.77289   0.10283   0.60412   0.00000  Uiso   1.00
H1403  H     0.71895   0.14815   0.56163   0.00000  Uiso   1.00
H1404  H     0.75297   0.10948   0.53296   0.00000  Uiso   1.00
H1405  H     0.70878   0.05712   0.58571   0.00000  Uiso   1.00
H1406  H     0.67796   0.07730   0.55453   0.00000  Uiso   1.00
H1407  H     0.67353   0.09577   0.61261   0.00000  Uiso   1.00
H1408  H     0.78205   0.24839   0.61299   0.00000  Uiso   1.00
H1409  H     0.75636   0.25524   0.57111   0.00000  Uiso   1.00
H1410  H     0.68207   0.18869   0.70850   0.00000  Uiso   1.00
H1411  H     0.83847   0.30733   0.58954   0.00000  Uiso   1.00
H1412  H     0.81461   0.31613   0.54602   0.00000  Uiso   1.00
H1413  H     0.74719   0.33042   0.60411   0.00000  Uiso   1.00
H1414  H     0.79314   0.03147   0.61343   0.00000  Uiso   1.00
H1415  H     0.77148   0.32183   0.64796   0.00000  Uiso   1.00
H1416  H     0.97530   0.15383   0.58773   0.00000  Uiso   1.00
H1417  H     0.93795   0.18177   0.57509   0.00000  Uiso   1.00
H1418  H     0.67083   0.13115   0.50750   0.00000  Uiso   1.00
H1419  H     0.96387   0.15366   0.99175   0.00000  Uiso   1.00
O1420  O     0.83333   0.16667   0.75000   0.00000  Uiso   1.00
O1421  O     0.82118   0.12637   0.65458   0.00000  Uiso   1.00
O1422  O     0.79607   0.20391   0.84968   0.00000  Uiso   1.00
O1423  O     0.87491   0.17759   0.64606   0.00000  Uiso   1.00
O1424  O     0.84118   0.15880   0.84968   0.00000  Uiso   1.00
O1425  O     0.92635   0.11592   0.56824   0.00000  Uiso   1.00
O1426  O     0.91653   0.07788   0.98528   0.00000  Uiso   1.00
O1427  O     0.78923   0.16630   0.58968   0.00000  Uiso   1.00
O1428  O     0.81809   0.23434   0.54928   0.00000  Uiso   1.00
O1429  O     0.84597   0.08019   0.78213   0.00000  Uiso   1.00
O1430  O     0.81298   0.26085   0.77013   0.00000  Uiso   1.00
O1431  O     0.74078   0.13291   0.73413   0.00000  Uiso   1.00
O1432  O     0.93360   0.19272   0.71360   0.00000  Uiso   1.00
O1433  O     0.73738   0.18878   0.78213   0.00000  Uiso   1.00
O1434  O     0.92158   0.15226   0.77013   0.00000  Uiso   1.00
O1435  O     0.80426   0.06944   0.73413   0.00000  Uiso   1.00
O1436  O     0.87012   0.25620   0.71360   0.00000  Uiso   1.00
Zn1437 Zn    0.86005   0.13994   0.78734   0.00000  Uiso   1.00
Zn1438 Zn    0.80046   0.12458   0.71875   0.00000  Uiso   1.00
Zn1439 Zn    0.87723   0.19775   0.70657   0.00000  Uiso   1.00
Zn1440 Zn    0.79560   0.20439   0.78733   0.00000  Uiso   1.00
C1441  C     0.05312   0.49366   0.75941   0.00000  Uiso   1.00
C1442  C     0.16039   0.48707   0.56237   0.00000  Uiso   1.00
C1443  C     0.22467   0.45454   0.55337   0.00000  Uiso   1.00
C1444  C     0.28069   0.50682   0.74025   0.00000  Uiso   1.00
C1445  C     0.13836   0.52345   0.92074   0.00000  Uiso   1.00
C1446  C     0.32619   0.50734   0.73675   0.00000  Uiso   1.00
C1447  C     0.00754   0.49025   0.76683   0.00000  Uiso   1.00
C1448  C     0.17993   0.65625   0.73756   0.00000  Uiso   1.00
C1449  C     0.15010   0.34601   0.76516   0.00000  Uiso   1.00
C1450  C     0.15585   0.38968   0.76044   0.00000  Uiso   1.00
C1451  C     0.17637   0.61134   0.74035   0.00000  Uiso   1.00
C1452  C     0.12361   0.57383   0.98518   0.00000  Uiso   1.00
C1453  C     0.18524   0.48156   0.62934   0.00000  Uiso   1.00
C1454  C     0.14718   0.51668   0.87121   0.00000  Uiso   1.00
C1455  C     0.22154   0.43791   0.51031   0.00000  Uiso   1.00
C1456  C     0.19091   0.47512   0.58104   0.00000  Uiso   1.00
C1457  C     0.12292   0.56066   0.94118   0.00000  Uiso   1.00
C1458  C     0.28814   0.48684   0.56434   0.00000  Uiso   1.00
C1459  C     0.31694   0.49001   0.51627   0.00000  Uiso   1.00
C1460  C     0.01160   0.53191   0.51137   0.00000  Uiso   1.00
C1461  C     0.31282   0.47114   0.80967   0.00000  Uiso   1.00
C1462  C     0.00390   0.45888   0.84147   0.00000  Uiso   1.00
C1463  C     0.13888   0.54972   0.51098   0.00000  Uiso   1.00
C1464  C     0.30643   0.44055   0.88306   0.00000  Uiso   1.00
C1465  C     0.21885   0.34262   0.70339   0.00000  Uiso   1.00
C1466  C     0.25699   0.35470   0.72424   0.00000  Uiso   1.00
C1467  C     0.29438   0.37890   0.69257   0.00000  Uiso   1.00
C1468  C     0.11033   0.66232   0.80047   0.00000  Uiso   1.00
C1469  C     0.08093   0.36150   0.82621   0.00000  Uiso   1.00
C1470  C     0.04275   0.34148   0.86077   0.00000  Uiso   1.00
C1471  C     0.23402   0.37051   0.99803   0.00000  Uiso   1.00
C1472  C     0.26404   0.34023   0.96958   0.00000  Uiso   1.00
C1473  C     0.24766   0.62877   0.98110   0.00000  Uiso   1.00
C1474  C     0.15079   0.50978   0.99222   0.00000  Uiso   1.00
C1475  C     0.09195   0.46424   0.60059   0.00000  Uiso   1.00
C1476  C     0.06562   0.45337   0.56588   0.00000  Uiso   1.00
C1477  C     0.02924   0.41873   0.58072   0.00000  Uiso   1.00
C1478  C     0.12154   0.59225   0.57870   0.00000  Uiso   1.00
C1479  C     0.14107   0.63796   0.57989   0.00000  Uiso   1.00
C1480  C     0.11123   0.66535   0.61349   0.00000  Uiso   1.00
C1481  C     0.15022   0.49652   0.94696   0.00000  Uiso   1.00
C1482  C     0.16806   0.48432   0.51543   0.00000  Uiso   1.00
C1483  C     0.19319   0.45339   0.99096   0.00000  Uiso   1.00
C1484  C     0.18850   0.43830   0.94844   0.00000  Uiso   1.00
C1485  C     0.16379   0.45745   0.92864   0.00000  Uiso   1.00
H1486  H     0.20318   0.41136   0.93077   0.00000  Uiso   1.00
H1487  H     0.32467   0.55754   0.51712   0.00000  Uiso   1.00
H1488  H     0.03283   0.53253   0.97676   0.00000  Uiso   1.00
H1489  H     0.03163   0.53719   0.53573   0.00000  Uiso   1.00
H1490  H     0.28449   0.46334   0.90162   0.00000  Uiso   1.00
H1491  H     0.28733   0.41160   0.87325   0.00000  Uiso   1.00
H1492  H     0.32481   0.43301   0.90588   0.00000  Uiso   1.00
H1493  H     0.02539   0.43546   0.82362   0.00000  Uiso   1.00
H1494  H     0.02348   0.48675   0.85285   0.00000  Uiso   1.00
H1495  H     0.29157   0.49417   0.82930   0.00000  Uiso   1.00
H1496  H     0.29322   0.44254   0.79978   0.00000  Uiso   1.00
H1497  H     0.11341   0.58160   0.92194   0.00000  Uiso   1.00
H1498  H     0.30503   0.35993   0.66033   0.00000  Uiso   1.00
H1499  H     0.28481   0.40834   0.68577   0.00000  Uiso   1.00
H1500  H     0.32157   0.38672   0.70837   0.00000  Uiso   1.00
H1501  H     0.24749   0.37431   0.75626   0.00000  Uiso   1.00
H1502  H     0.26764   0.65945   0.73185   0.00000  Uiso   1.00
H1503  H     0.22800   0.65384   0.67329   0.00000  Uiso   1.00
H1504  H     0.21151   0.37018   0.69017   0.00000  Uiso   1.00
H1505  H     0.02337   0.65061   0.84385   0.00000  Uiso   1.00
H1506  H     0.05383   0.66044   0.88576   0.00000  Uiso   1.00
H1507  H     0.02221   0.36554   0.87883   0.00000  Uiso   1.00
H1508  H     0.11527   0.60467   0.99756   0.00000  Uiso   1.00
H1509  H     0.09906   0.38615   0.84409   0.00000  Uiso   1.00
H1510  H     0.06873   0.37605   0.80218   0.00000  Uiso   1.00
H1511  H     0.09070   0.63845   0.78339   0.00000  Uiso   1.00
H1512  H     0.12092   0.64808   0.82594   0.00000  Uiso   1.00
H1513  H     0.20160   0.36115   0.99222   0.00000  Uiso   1.00
H1514  H     0.23231   0.36845   0.53418   0.00000  Uiso   1.00
H1515  H     0.26675   0.34255   0.93335   0.00000  Uiso   1.00
H1516  H     0.29637   0.34871   0.97557   0.00000  Uiso   1.00
H1517  H     0.24496   0.62562   0.51714   0.00000  Uiso   1.00
H1518  H     0.27029   0.60759   0.96023   0.00000  Uiso   1.00
H1519  H     0.15733   0.44192   0.89805   0.00000  Uiso   1.00
H1520  H     0.21585   0.61932   0.97416   0.00000  Uiso   1.00
H1521  H     0.07009   0.47202   0.63389   0.00000  Uiso   1.00
H1522  H     0.10622   0.43617   0.60412   0.00000  Uiso   1.00
H1523  H     0.05228   0.48148   0.56163   0.00000  Uiso   1.00
H1524  H     0.08631   0.44281   0.53296   0.00000  Uiso   1.00
H1525  H     0.04211   0.39046   0.58571   0.00000  Uiso   1.00
H1526  H     0.01129   0.41064   0.55453   0.00000  Uiso   1.00
H1527  H     0.00686   0.42911   0.61261   0.00000  Uiso   1.00
H1528  H     0.11539   0.58173   0.61299   0.00000  Uiso   1.00
H1529  H     0.08969   0.58857   0.57111   0.00000  Uiso   1.00
H1530  H     0.01540   0.52203   0.70850   0.00000  Uiso   1.00
H1531  H     0.17180   0.64066   0.58954   0.00000  Uiso   1.00
H1532  H     0.14794   0.64947   0.54602   0.00000  Uiso   1.00
H1533  H     0.08052   0.66376   0.60411   0.00000  Uiso   1.00
H1534  H     0.12648   0.36481   0.61343   0.00000  Uiso   1.00
H1535  H     0.10482   0.65516   0.64796   0.00000  Uiso   1.00
H1536  H     0.30864   0.48717   0.58773   0.00000  Uiso   1.00
H1537  H     0.27128   0.51510   0.57509   0.00000  Uiso   1.00
H1538  H     0.00416   0.46449   0.50750   0.00000  Uiso   1.00
H1539  H     0.29720   0.48700   0.99175   0.00000  Uiso   1.00
O1540  O     0.16667   0.50000   0.75000   0.00000  Uiso   1.00
O1541  O     0.15451   0.45970   0.65458   0.00000  Uiso   1.00
O1542  O     0.12940   0.53724   0.84968   0.00000  Uiso   1.00
O1543  O     0.20824   0.51092   0.64606   0.00000  Uiso   1.00
O1544  O     0.17451   0.49213   0.84968   0.00000  Uiso   1.00
O1545  O     0.25968   0.44925   0.56824   0.00000  Uiso   1.00
O1546  O     0.24986   0.41122   0.98528   0.00000  Uiso   1.00
O1547  O     0.12256   0.49964   0.58968   0.00000  Uiso   1.00
O1548  O     0.15142   0.56767   0.54928   0.00000  Uiso   1.00
O1549  O     0.17930   0.41352   0.78213   0.00000  Uiso   1.00
O1550  O     0.14632   0.59418   0.77013   0.00000  Uiso   1.00
O1551  O     0.07412   0.46625   0.73413   0.00000  Uiso   1.00
O1552  O     0.26693   0.52605   0.71360   0.00000  Uiso   1.00
O1553  O     0.07071   0.52211   0.78213   0.00000  Uiso   1.00
O1554  O     0.25491   0.48559   0.77013   0.00000  Uiso   1.00
O1555  O     0.13760   0.40277   0.73413   0.00000  Uiso   1.00
O1556  O     0.20345   0.58953   0.71360   0.00000  Uiso   1.00
Zn1557 Zn    0.19338   0.47327   0.78734   0.00000  Uiso   1.00
Zn1558 Zn    0.13379   0.45791   0.71875   0.00000  Uiso   1.00
Zn1559 Zn    0.21056   0.53109   0.70657   0.00000  Uiso   1.00
Zn1560 Zn    0.12893   0.53773   0.78733   0.00000  Uiso   1.00
C1561  C     0.38645   0.49366   0.75941   0.00000  Uiso   1.00
C1562  C     0.49373   0.48707   0.56237   0.00000  Uiso   1.00
C1563  C     0.55800   0.45454   0.55337   0.00000  Uiso   1.00
C1564  C     0.61402   0.50682   0.74025   0.00000  Uiso   1.00
C1565  C     0.47169   0.52345   0.92074   0.00000  Uiso   1.00
C1566  C     0.65952   0.50734   0.73675   0.00000  Uiso   1.00
C1567  C     0.34087   0.49025   0.76683   0.00000  Uiso   1.00
C1568  C     0.51326   0.65625   0.73756   0.00000  Uiso   1.00
C1569  C     0.48344   0.34601   0.76516   0.00000  Uiso   1.00
C1570  C     0.48918   0.38968   0.76044   0.00000  Uiso   1.00
C1571  C     0.50971   0.61134   0.74035   0.00000  Uiso   1.00
C1572  C     0.45694   0.57383   0.98518   0.00000  Uiso   1.00
C1573  C     0.51857   0.48156   0.62934   0.00000  Uiso   1.00
C1574  C     0.48051   0.51668   0.87121   0.00000  Uiso   1.00
C1575  C     0.55487   0.43791   0.51031   0.00000  Uiso   1.00
C1576  C     0.52424   0.47512   0.58104   0.00000  Uiso   1.00
C1577  C     0.45626   0.56066   0.94118   0.00000  Uiso   1.00
C1578  C     0.62148   0.48684   0.56434   0.00000  Uiso   1.00
C1579  C     0.65028   0.49001   0.51627   0.00000  Uiso   1.00
C1580  C     0.34493   0.53191   0.51137   0.00000  Uiso   1.00
C1581  C     0.64616   0.47114   0.80967   0.00000  Uiso   1.00
C1582  C     0.33724   0.45888   0.84147   0.00000  Uiso   1.00
C1583  C     0.47221   0.54972   0.51098   0.00000  Uiso   1.00
C1584  C     0.63976   0.44055   0.88306   0.00000  Uiso   1.00
C1585  C     0.55219   0.34262   0.70339   0.00000  Uiso   1.00
C1586  C     0.59033   0.35470   0.72424   0.00000  Uiso   1.00
C1587  C     0.62771   0.37890   0.69257   0.00000  Uiso   1.00
C1588  C     0.44366   0.66232   0.80047   0.00000  Uiso   1.00
C1589  C     0.41426   0.36150   0.82621   0.00000  Uiso   1.00
C1590  C     0.37609   0.34148   0.86077   0.00000  Uiso   1.00
C1591  C     0.56736   0.37051   0.99803   0.00000  Uiso   1.00
C1592  C     0.59737   0.34023   0.96958   0.00000  Uiso   1.00
C1593  C     0.58099   0.62877   0.98110   0.00000  Uiso   1.00
C1594  C     0.48412   0.50978   0.99222   0.00000  Uiso   1.00
C1595  C     0.42528   0.46424   0.60059   0.00000  Uiso   1.00
C1596  C     0.39896   0.45337   0.56588   0.00000  Uiso   1.00
C1597  C     0.36257   0.41873   0.58072   0.00000  Uiso   1.00
C1598  C     0.45488   0.59225   0.57870   0.00000  Uiso   1.00
C1599  C     0.47441   0.63796   0.57989   0.00000  Uiso   1.00
C1600  C     0.44457   0.66535   0.61349   0.00000  Uiso   1.00
C1601  C     0.48355   0.49652   0.94696   0.00000  Uiso   1.00
C1602  C     0.50140   0.48432   0.51543   0.00000  Uiso   1.00
C1603  C     0.52652   0.45339   0.99096   0.00000  Uiso   1.00
C1604  C     0.52183   0.43830   0.94844   0.00000  Uiso   1.00
C1605  C     0.49712   0.45745   0.92864   0.00000  Uiso   1.00
H1606  H     0.53651   0.41136   0.93077   0.00000  Uiso   1.00
H1607  H     0.65800   0.55754   0.51712   0.00000  Uiso   1.00
H1608  H     0.36616   0.53253   0.97676   0.00000  Uiso   1.00
H1609  H     0.36497   0.53719   0.53573   0.00000  Uiso   1.00
H1610  H     0.61782   0.46334   0.90162   0.00000  Uiso   1.00
H1611  H     0.62067   0.41160   0.87325   0.00000  Uiso   1.00
H1612  H     0.65814   0.43301   0.90588   0.00000  Uiso   1.00
H1613  H     0.35872   0.43546   0.82362   0.00000  Uiso   1.00
H1614  H     0.35682   0.48675   0.85285   0.00000  Uiso   1.00
H1615  H     0.62490   0.49417   0.82930   0.00000  Uiso   1.00
H1616  H     0.62655   0.44254   0.79978   0.00000  Uiso   1.00
H1617  H     0.44674   0.58160   0.92194   0.00000  Uiso   1.00
H1618  H     0.63836   0.35993   0.66033   0.00000  Uiso   1.00
H1619  H     0.61814   0.40834   0.68577   0.00000  Uiso   1.00
H1620  H     0.65491   0.38672   0.70837   0.00000  Uiso   1.00
H1621  H     0.58083   0.37431   0.75626   0.00000  Uiso   1.00
H1622  H     0.60098   0.65945   0.73185   0.00000  Uiso   1.00
H1623  H     0.56133   0.65384   0.67329   0.00000  Uiso   1.00
H1624  H     0.54485   0.37018   0.69017   0.00000  Uiso   1.00
H1625  H     0.35670   0.65061   0.84385   0.00000  Uiso   1.00
H1626  H     0.38716   0.66044   0.88576   0.00000  Uiso   1.00
H1627  H     0.35555   0.36554   0.87883   0.00000  Uiso   1.00
H1628  H     0.44860   0.60467   0.99756   0.00000  Uiso   1.00
H1629  H     0.43239   0.38615   0.84409   0.00000  Uiso   1.00
H1630  H     0.40207   0.37605   0.80218   0.00000  Uiso   1.00
H1631  H     0.42404   0.63845   0.78339   0.00000  Uiso   1.00
H1632  H     0.45425   0.64808   0.82594   0.00000  Uiso   1.00
H1633  H     0.53493   0.36115   0.99222   0.00000  Uiso   1.00
H1634  H     0.56564   0.36845   0.53418   0.00000  Uiso   1.00
H1635  H     0.60008   0.34255   0.93335   0.00000  Uiso   1.00
H1636  H     0.62970   0.34871   0.97557   0.00000  Uiso   1.00
H1637  H     0.57829   0.62562   0.51714   0.00000  Uiso   1.00
H1638  H     0.60363   0.60759   0.96023   0.00000  Uiso   1.00
H1639  H     0.49066   0.44192   0.89805   0.00000  Uiso   1.00
H1640  H     0.54918   0.61932   0.97416   0.00000  Uiso   1.00
H1641  H     0.40343   0.47202   0.63389   0.00000  Uiso   1.00
H1642  H     0.43956   0.43617   0.60412   0.00000  Uiso   1.00
H1643  H     0.38562   0.48148   0.56163   0.00000  Uiso   1.00
H1644  H     0.41964   0.44281   0.53296   0.00000  Uiso   1.00
H1645  H     0.37545   0.39046   0.58571   0.00000  Uiso   1.00
H1646  H     0.34462   0.41064   0.55453   0.00000  Uiso   1.00
H1647  H     0.34020   0.42911   0.61261   0.00000  Uiso   1.00
H1648  H     0.44872   0.58173   0.61299   0.00000  Uiso   1.00
H1649  H     0.42303   0.58857   0.57111   0.00000  Uiso   1.00
H1650  H     0.34874   0.52203   0.70850   0.00000  Uiso   1.00
H1651  H     0.50514   0.64066   0.58954   0.00000  Uiso   1.00
H1652  H     0.48128   0.64947   0.54602   0.00000  Uiso   1.00
H1653  H     0.41386   0.66376   0.60411   0.00000  Uiso   1.00
H1654  H     0.45981   0.36481   0.61343   0.00000  Uiso   1.00
H1655  H     0.43815   0.65516   0.64796   0.00000  Uiso   1.00
H1656  H     0.64197   0.48717   0.58773   0.00000  Uiso   1.00
H1657  H     0.60462   0.51510   0.57509   0.00000  Uiso   1.00
H1658  H     0.33750   0.46449   0.50750   0.00000  Uiso   1.00
H1659  H     0.63053   0.48700   0.99175   0.00000  Uiso   1.00
O1660  O     0.50000   0.50000   0.75000   0.00000  Uiso   1.00
O1661  O     0.48784   0.45970   0.65458   0.00000  Uiso   1.00
O1662  O     0.46274   0.53724   0.84968   0.00000  Uiso   1.00
O1663  O     0.54157   0.51092   0.64606   0.00000  Uiso   1.00
O1664  O     0.50785   0.49213   0.84968   0.00000  Uiso   1.00
O1665  O     0.59301   0.44925   0.56824   0.00000  Uiso   1.00
O1666  O     0.58319   0.41122   0.98528   0.00000  Uiso   1.00
O1667  O     0.45589   0.49964   0.58968   0.00000  Uiso   1.00
O1668  O     0.48475   0.56767   0.54928   0.00000  Uiso   1.00
O1669  O     0.51264   0.41352   0.78213   0.00000  Uiso   1.00
O1670  O     0.47965   0.59418   0.77013   0.00000  Uiso   1.00
O1671  O     0.40745   0.46625   0.73413   0.00000  Uiso   1.00
O1672  O     0.60026   0.52605   0.71360   0.00000  Uiso   1.00
O1673  O     0.40405   0.52211   0.78213   0.00000  Uiso   1.00
O1674  O     0.58824   0.48559   0.77013   0.00000  Uiso   1.00
O1675  O     0.47093   0.40277   0.73413   0.00000  Uiso   1.00
O1676  O     0.53678   0.58953   0.71360   0.00000  Uiso   1.00
Zn1677 Zn    0.52672   0.47327   0.78734   0.00000  Uiso   1.00
Zn1678 Zn    0.46713   0.45791   0.71875   0.00000  Uiso   1.00
Zn1679 Zn    0.54389   0.53109   0.70657   0.00000  Uiso   1.00
Zn1680 Zn    0.46226   0.53773   0.78733   0.00000  Uiso   1.00
C1681  C     0.71978   0.49366   0.75941   0.00000  Uiso   1.00
C1682  C     0.82706   0.48707   0.56237   0.00000  Uiso   1.00
C1683  C     0.89133   0.45454   0.55337   0.00000  Uiso   1.00
C1684  C     0.94736   0.50682   0.74025   0.00000  Uiso   1.00
C1685  C     0.80503   0.52345   0.92074   0.00000  Uiso   1.00
C1686  C     0.99286   0.50734   0.73675   0.00000  Uiso   1.00
C1687  C     0.67420   0.49025   0.76683   0.00000  Uiso   1.00
C1688  C     0.84659   0.65625   0.73756   0.00000  Uiso   1.00
C1689  C     0.81677   0.34601   0.76516   0.00000  Uiso   1.00
C1690  C     0.82252   0.38968   0.76044   0.00000  Uiso   1.00
C1691  C     0.84304   0.61134   0.74035   0.00000  Uiso   1.00
C1692  C     0.79028   0.57383   0.98518   0.00000  Uiso   1.00
C1693  C     0.85190   0.48156   0.62934   0.00000  Uiso   1.00
C1694  C     0.81384   0.51668   0.87121   0.00000  Uiso   1.00
C1695  C     0.88821   0.43791   0.51031   0.00000  Uiso   1.00
C1696  C     0.85758   0.47512   0.58104   0.00000  Uiso   1.00
C1697  C     0.78959   0.56066   0.94118   0.00000  Uiso   1.00
C1698  C     0.95481   0.48684   0.56434   0.00000  Uiso   1.00
C1699  C     0.98361   0.49001   0.51627   0.00000  Uiso   1.00
C1700  C     0.67827   0.53191   0.51137   0.00000  Uiso   1.00
C1701  C     0.97949   0.47114   0.80967   0.00000  Uiso   1.00
C1702  C     0.67057   0.45888   0.84147   0.00000  Uiso   1.00
C1703  C     0.80554   0.54972   0.51098   0.00000  Uiso   1.00
C1704  C     0.97310   0.44055   0.88306   0.00000  Uiso   1.00
C1705  C     0.88552   0.34262   0.70339   0.00000  Uiso   1.00
C1706  C     0.92366   0.35470   0.72424   0.00000  Uiso   1.00
C1707  C     0.96105   0.37890   0.69257   0.00000  Uiso   1.00
C1708  C     0.77699   0.66232   0.80047   0.00000  Uiso   1.00
C1709  C     0.74759   0.36150   0.82621   0.00000  Uiso   1.00
C1710  C     0.70942   0.34148   0.86077   0.00000  Uiso   1.00
C1711  C     0.90069   0.37051   0.99803   0.00000  Uiso   1.00
C1712  C     0.93071   0.34023   0.96958   0.00000  Uiso   1.00
C1713  C     0.91432   0.62877   0.98110   0.00000  Uiso   1.00
C1714  C     0.81745   0.50978   0.99222   0.00000  Uiso   1.00
C1715  C     0.75862   0.46424   0.60059   0.00000  Uiso   1.00
C1716  C     0.73229   0.45337   0.56588   0.00000  Uiso   1.00
C1717  C     0.69590   0.41873   0.58072   0.00000  Uiso   1.00
C1718  C     0.78821   0.59225   0.57870   0.00000  Uiso   1.00
C1719  C     0.80774   0.63796   0.57989   0.00000  Uiso   1.00
C1720  C     0.77790   0.66535   0.61349   0.00000  Uiso   1.00
C1721  C     0.81688   0.49652   0.94696   0.00000  Uiso   1.00
C1722  C     0.83473   0.48432   0.51543   0.00000  Uiso   1.00
C1723  C     0.85986   0.45339   0.99096   0.00000  Uiso   1.00
C1724  C     0.85516   0.43830   0.94844   0.00000  Uiso   1.00
C1725  C     0.83046   0.45745   0.92864   0.00000  Uiso   1.00
H1726  H     0.86985   0.41136   0.93077   0.00000  Uiso   1.00
H1727  H     0.99134   0.55754   0.51712   0.00000  Uiso   1.00
H1728  H     0.69950   0.53253   0.97676   0.00000  Uiso   1.00
H1729  H     0.69830   0.53719   0.53573   0.00000  Uiso   1.00
H1730  H     0.95115   0.46334   0.90162   0.00000  Uiso   1.00
H1731  H     0.95400   0.41160   0.87325   0.00000  Uiso   1.00
H1732  H     0.99147   0.43301   0.90588   0.00000  Uiso   1.00
H1733  H     0.69205   0.43546   0.82362   0.00000  Uiso   1.00
H1734  H     0.69015   0.48675   0.85285   0.00000  Uiso   1.00
H1735  H     0.95823   0.49417   0.82930   0.00000  Uiso   1.00
H1736  H     0.95988   0.44254   0.79978   0.00000  Uiso   1.00
H1737  H     0.78007   0.58160   0.92194   0.00000  Uiso   1.00
H1738  H     0.97170   0.35993   0.66033   0.00000  Uiso   1.00
H1739  H     0.95147   0.40834   0.68577   0.00000  Uiso   1.00
H1740  H     0.98824   0.38672   0.70837   0.00000  Uiso   1.00
H1741  H     0.91416   0.37431   0.75626   0.00000  Uiso   1.00
H1742  H     0.93431   0.65945   0.73185   0.00000  Uiso   1.00
H1743  H     0.89466   0.65384   0.67329   0.00000  Uiso   1.00
H1744  H     0.87818   0.37018   0.69017   0.00000  Uiso   1.00
H1745  H     0.69003   0.65061   0.84385   0.00000  Uiso   1.00
H1746  H     0.72049   0.66044   0.88576   0.00000  Uiso   1.00
H1747  H     0.68888   0.36554   0.87883   0.00000  Uiso   1.00
H1748  H     0.78193   0.60467   0.99756   0.00000  Uiso   1.00
H1749  H     0.76573   0.38615   0.84409   0.00000  Uiso   1.00
H1750  H     0.73540   0.37605   0.80218   0.00000  Uiso   1.00
H1751  H     0.75737   0.63845   0.78339   0.00000  Uiso   1.00
H1752  H     0.78759   0.64808   0.82594   0.00000  Uiso   1.00
H1753  H     0.86827   0.36115   0.99222   0.00000  Uiso   1.00
H1754  H     0.89897   0.36845   0.53418   0.00000  Uiso   1.00
H1755  H     0.93341   0.34255   0.93335   0.00000  Uiso   1.00
H1756  H     0.96304   0.34871   0.97557   0.00000  Uiso   1.00
H1757  H     0.91163   0.62562   0.51714   0.00000  Uiso   1.00
H1758  H     0.93696   0.60759   0.96023   0.00000  Uiso   1.00
H1759  H     0.82400   0.44192   0.89805   0.00000  Uiso   1.00
H1760  H     0.88251   0.61932   0.97416   0.00000  Uiso   1.00
H1761  H     0.73676   0.47202   0.63389   0.00000  Uiso   1.00
H1762  H     0.77289   0.43617   0.60412   0.00000  Uiso   1.00
H1763  H     0.71895   0.48148   0.56163   0.00000  Uiso   1.00
H1764  H     0.75297   0.44281   0.53296   0.00000  Uiso   1.00
H1765  H     0.70878   0.39046   0.58571   0.00000  Uiso   1.00
H1766  H     0.67796   0.41064   0.55453   0.00000  Uiso   1.00
H1767  H     0.67353   0.42911   0.61261   0.00000  Uiso   1.00
H1768  H     0.78205   0.58173   0.61299   0.00000  Uiso   1.00
H1769  H     0.75636   0.58857   0.57111   0.00000  Uiso   1.00
H1770  H     0.68207   0.52203   0.70850   0.00000  Uiso   1.00
H1771  H     0.83847   0.64066   0.58954   0.00000  Uiso   1.00
H1772  H     0.81461   0.64947   0.54602   0.00000  Uiso   1.00
H1773  H     0.74719   0.66376   0.60411   0.00000  Uiso   1.00
H1774  H     0.79314   0.36481   0.61343   0.00000  Uiso   1.00
H1775  H     0.77148   0.65516   0.64796   0.00000  Uiso   1.00
H1776  H     0.97530   0.48717   0.58773   0.00000  Uiso   1.00
H1777  H     0.93795   0.51510   0.57509   0.00000  Uiso   1.00
H1778  H     0.67083   0.46449   0.50750   0.00000  Uiso   1.00
H1779  H     0.96387   0.48700   0.99175   0.00000  Uiso   1.00
O1780  O     0.83333   0.50000   0.75000   0.00000  Uiso   1.00
O1781  O     0.82118   0.45970   0.65458   0.00000  Uiso   1.00
O1782  O     0.79607   0.53724   0.84968   0.00000  Uiso   1.00
O1783  O     0.87491   0.51092   0.64606   0.00000  Uiso   1.00
O1784  O     0.84118   0.49213   0.84968   0.00000  Uiso   1.00
O1785  O     0.92635   0.44925   0.56824   0.00000  Uiso   1.00
O1786  O     0.91653   0.41122   0.98528   0.00000  Uiso   1.00
O1787  O     0.78923   0.49964   0.58968   0.00000  Uiso   1.00
O1788  O     0.81809   0.56767   0.54928   0.00000  Uiso   1.00
O1789  O     0.84597   0.41352   0.78213   0.00000  Uiso   1.00
O1790  O     0.81298   0.59418   0.77013   0.00000  Uiso   1.00
O1791  O     0.74078   0.46625   0.73413   0.00000  Uiso   1.00
O1792  O     0.93360   0.52605   0.71360   0.00000  Uiso   1.00
O1793  O     0.73738   0.52211   0.78213   0.00000  Uiso   1.00
O1794  O     0.92158   0.48559   0.77013   0.00000  Uiso   1.00
O1795  O     0.80426   0.40277   0.73413   0.00000  Uiso   1.00
O1796  O     0.87012   0.58953   0.71360   0.00000  Uiso   1.00
Zn1797 Zn    0.86005   0.47327   0.78734   0.00000  Uiso   1.00
Zn1798 Zn    0.80046   0.45791   0.71875   0.00000  Uiso   1.00
Zn1799 Zn    0.87723   0.53109   0.70657   0.00000  Uiso   1.00
Zn1800 Zn    0.79560   0.53773   0.78733   0.00000  Uiso   1.00
C1801  C     0.05312   0.82700   0.75941   0.00000  Uiso   1.00
C1802  C     0.16039   0.82041   0.56237   0.00000  Uiso   1.00
C1803  C     0.22467   0.78787   0.55337   0.00000  Uiso   1.00
C1804  C     0.28069   0.84016   0.74025   0.00000  Uiso   1.00
C1805  C     0.13836   0.85678   0.92074   0.00000  Uiso   1.00
C1806  C     0.32619   0.84067   0.73675   0.00000  Uiso   1.00
C1807  C     0.00754   0.82358   0.76683   0.00000  Uiso   1.00
C1808  C     0.17993   0.98958   0.73756   0.00000  Uiso   1.00
C1809  C     0.15010   0.67934   0.76516   0.00000  Uiso   1.00
C1810  C     0.15585   0.72301   0.76044   0.00000  Uiso   1.00
C1811  C     0.17637   0.94467   0.74035   0.00000  Uiso   1.00
C1812  C     0.12361   0.90716   0.98518   0.00000  Uiso   1.00
C1813  C     0.18524   0.81489   0.62934   0.00000  Uiso   1.00
C1814  C     0.14718   0.85001   0.87121   0.00000  Uiso   1.00
C1815  C     0.22154   0.77124   0.51031   0.00000  Uiso   1.00
C1816  C     0.19091   0.80845   0.58104   0.00000  Uiso   1.00
C1817  C     0.12292   0.89400   0.94118   0.00000  Uiso   1.00
C1818  C     0.28814   0.82017   0.56434   0.00000  Uiso   1.00
C1819  C     0.31694   0.82335   0.51627   0.00000  Uiso   1.00
C1820  C     0.01160   0.86525   0.51137   0.00000  Uiso   1.00
C1821  C     0.31282   0.80447   0.80967   0.00000  Uiso   1.00
C1822  C     0.00390   0.79221   0.84147   0.00000  Uiso   1.00
C1823  C     0.13888   0.88306   0.51098   0.00000  Uiso   1.00
C1824  C     0.30643   0.77388   0.88306   0.00000  Uiso   1.00
C1825  C     0.21885   0.67596   0.70339   0.00000  Uiso   1.00
C1826  C     0.25699   0.68804   0.72424   0.00000  Uiso   1.00
C1827  C     0.29438   0.71223   0.69257   0.00000  Uiso   1.00
C1828  C     0.11033   0.99566   0.80047   0.00000  Uiso   1.00
C1829  C     0.08093   0.69483   0.82621   0.00000  Uiso   1.00
C1830  C     0.04275   0.67482   0.86077   0.00000  Uiso   1.00
C1831  C     0.23402   0.70384   0.99803   0.00000  Uiso   1.00
C1832  C     0.26404   0.67357   0.96958   0.00000  Uiso   1.00
C1833  C     0.24766   0.96211   0.98110   0.00000  Uiso   1.00
C1834  C     0.15079   0.84311   0.99222   0.00000  Uiso   1.00
C1835  C     0.09195   0.79757   0.60059   0.00000  Uiso   1.00
C1836  C     0.06562   0.78670   0.56588   0.00000  Uiso   1.00
C1837  C     0.02924   0.75207   0.58072   0.00000  Uiso   1.00
C1838  C     0.12154   0.92559   0.57870   0.00000  Uiso   1.00
C1839  C     0.14107   0.97130   0.57989   0.00000  Uiso   1.00
C1840  C     0.11123   0.99868   0.61349   0.00000  Uiso   1.00
C1841  C     0.15022   0.82986   0.94696   0.00000  Uiso   1.00
C1842  C     0.16806   0.81766   0.51543   0.00000  Uiso   1.00
C1843  C     0.19319   0.78672   0.99096   0.00000  Uiso   1.00
C1844  C     0.18850   0.77164   0.94844   0.00000  Uiso   1.00
C1845  C     0.16379   0.79078   0.92864   0.00000  Uiso   1.00
H1846  H     0.20318   0.74469   0.93077   0.00000  Uiso   1.00
H1847  H     0.32467   0.89087   0.51712   0.00000  Uiso   1.00
H1848  H     0.03283   0.86586   0.97676   0.00000  Uiso   1.00
H1849  H     0.03163   0.87053   0.53573   0.00000  Uiso   1.00
H1850  H     0.28449   0.79668   0.90162   0.00000  Uiso   1.00
H1851  H     0.28733   0.74494   0.87325   0.00000  Uiso   1.00
H1852  H     0.32481   0.76634   0.90588   0.00000  Uiso   1.00
H1853  H     0.02539   0.76879   0.82362   0.00000  Uiso   1.00
H1854  H     0.02348   0.82008   0.85285   0.00000  Uiso   1.00
H1855  H     0.29157   0.82750   0.82930   0.00000  Uiso   1.00
H1856  H     0.29322   0.77587   0.79978   0.00000  Uiso   1.00
H1857  H     0.11341   0.91493   0.92194   0.00000  Uiso   1.00
H1858  H     0.30503   0.69326   0.66033   0.00000  Uiso   1.00
H1859  H     0.28481   0.74168   0.68577   0.00000  Uiso   1.00
H1860  H     0.32157   0.72005   0.70837   0.00000  Uiso   1.00
H1861  H     0.24749   0.70764   0.75626   0.00000  Uiso   1.00
H1862  H     0.26764   0.99278   0.73185   0.00000  Uiso   1.00
H1863  H     0.22800   0.98717   0.67329   0.00000  Uiso   1.00
H1864  H     0.21151   0.70352   0.69017   0.00000  Uiso   1.00
H1865  H     0.02337   0.98395   0.84385   0.00000  Uiso   1.00
H1866  H     0.05383   0.99377   0.88576   0.00000  Uiso   1.00
H1867  H     0.02221   0.69887   0.87883   0.00000  Uiso   1.00
H1868  H     0.11527   0.93800   0.99756   0.00000  Uiso   1.00
H1869  H     0.09906   0.71949   0.84409   0.00000  Uiso   1.00
H1870  H     0.06873   0.70938   0.80218   0.00000  Uiso   1.00
H1871  H     0.09070   0.97179   0.78339   0.00000  Uiso   1.00
H1872  H     0.12092   0.98141   0.82594   0.00000  Uiso   1.00
H1873  H     0.20160   0.69449   0.99222   0.00000  Uiso   1.00
H1874  H     0.23231   0.70179   0.53418   0.00000  Uiso   1.00
H1875  H     0.26675   0.67588   0.93335   0.00000  Uiso   1.00
H1876  H     0.29637   0.68204   0.97557   0.00000  Uiso   1.00
H1877  H     0.24496   0.95895   0.51714   0.00000  Uiso   1.00
H1878  H     0.27029   0.94093   0.96023   0.00000  Uiso   1.00
H1879  H     0.15733   0.77525   0.89805   0.00000  Uiso   1.00
H1880  H     0.21585   0.95266   0.97416   0.00000  Uiso   1.00
H1881  H     0.07009   0.80535   0.63389   0.00000  Uiso   1.00
H1882  H     0.10622   0.76950   0.60412   0.00000  Uiso   1.00
H1883  H     0.05228   0.81482   0.56163   0.00000  Uiso   1.00
H1884  H     0.08631   0.77614   0.53296   0.00000  Uiso   1.00
H1885  H     0.04211   0.72379   0.58571   0.00000  Uiso   1.00
H1886  H     0.01129   0.74397   0.55453   0.00000  Uiso   1.00
H1887  H     0.00686   0.76244   0.61261   0.00000  Uiso   1.00
H1888  H     0.11539   0.91506   0.61299   0.00000  Uiso   1.00
H1889  H     0.08969   0.92191   0.57111   0.00000  Uiso   1.00
H1890  H     0.01540   0.85536   0.70850   0.00000  Uiso   1.00
H1891  H     0.17180   0.97400   0.58954   0.00000  Uiso   1.00
H1892  H     0.14794   0.98280   0.54602   0.00000  Uiso   1.00
H1893  H     0.08052   0.99709   0.60411   0.00000  Uiso   1.00
H1894  H     0.12648   0.69814   0.61343   0.00000  Uiso   1.00
H1895  H     0.10482   0.98850   0.64796   0.00000  Uiso   1.00
H1896  H     0.30864   0.82050   0.58773   0.00000  Uiso   1.00
H1897  H     0.27128   0.84844   0.57509   0.00000  Uiso   1.00
H1898  H     0.00416   0.79782   0.50750   0.00000  Uiso   1.00
H1899  H     0.29720   0.82033   0.99175   0.00000  Uiso   1.00
O1900  O     0.16667   0.83333   0.75000   0.00000  Uiso   1.00
O1901  O     0.15451   0.79304   0.65458   0.00000  Uiso   1.00
O1902  O     0.12940   0.87058   0.84968   0.00000  Uiso   1.00
O1903  O     0.20824   0.84425   0.64606   0.00000  Uiso   1.00
O1904  O     0.17451   0.82546   0.84968   0.00000  Uiso   1.00
O1905  O     0.25968   0.78258   0.56824   0.00000  Uiso   1.00
O1906  O     0.24986   0.74455   0.98528   0.00000  Uiso   1.00
O1907  O     0.12256   0.83297   0.58968   0.00000  Uiso   1.00
O1908  O     0.15142   0.90100   0.54928   0.00000  Uiso   1.00
O1909  O     0.17930   0.74686   0.78213   0.00000  Uiso   1.00
O1910  O     0.14632   0.92751   0.77013   0.00000  Uiso   1.00
O1911  O     0.07412   0.79958   0.73413   0.00000  Uiso   1.00
O1912  O     0.26693   0.85939   0.71360   0.00000  Uiso   1.00
O1913  O     0.07071   0.85544   0.78213   0.00000  Uiso   1.00
O1914  O     0.25491   0.81892   0.77013   0.00000  Uiso   1.00
O1915  O     0.13760   0.73610   0.73413   0.00000  Uiso   1.00
O1916  O     0.20345   0.92286   0.71360   0.00000  Uiso   1.00
Zn1917 Zn    0.19338   0.80661   0.78734   0.00000  Uiso   1.00
Zn1918 Zn    0.13379   0.79124   0.71875   0.00000  Uiso   1.00
Zn1919 Zn    0.21056   0.86442   0.70657   0.00000  Uiso   1.00
Zn1920 Zn    0.12893   0.87106   0.78733   0.00000  Uiso   1.00
C1921  C     0.38645   0.82700   0.75941   0.00000  Uiso   1.00
C1922  C     0.49373   0.82041   0.56237   0.00000  Uiso   1.00
C1923  C     0.55800   0.78787   0.55337   0.00000  Uiso   1.00
C1924  C     0.61402   0.84016   0.74025   0.00000  Uiso   1.00
C1925  C     0.47169   0.85678   0.92074   0.00000  Uiso   1.00
C1926  C     0.65952   0.84067   0.73675   0.00000  Uiso   1.00
C1927  C     0.34087   0.82358   0.76683   0.00000  Uiso   1.00
C1928  C     0.51326   0.98958   0.73756   0.00000  Uiso   1.00
C1929  C     0.48344   0.67934   0.76516   0.00000  Uiso   1.00
C1930  C     0.48918   0.72301   0.76044   0.00000  Uiso   1.00
C1931  C     0.50971   0.94467   0.74035   0.00000  Uiso   1.00
C1932  C     0.45694   0.90716   0.98518   0.00000  Uiso   1.00
C1933  C     0.51857   0.81489   0.62934   0.00000  Uiso   1.00
C1934  C     0.48051   0.85001   0.87121   0.00000  Uiso   1.00
C1935  C     0.55487   0.77124   0.51031   0.00000  Uiso   1.00
C1936  C     0.52424   0.80845   0.58104   0.00000  Uiso   1.00
C1937  C     0.45626   0.89400   0.94118   0.00000  Uiso   1.00
C1938  C     0.62148   0.82017   0.56434   0.00000  Uiso   1.00
C1939  C     0.65028   0.82335   0.51627   0.00000  Uiso   1.00
C1940  C     0.34493   0.86525   0.51137   0.00000  Uiso   1.00
C1941  C     0.64616   0.80447   0.80967   0.00000  Uiso   1.00
C1942  C     0.33724   0.79221   0.84147   0.00000  Uiso   1.00
C1943  C     0.47221   0.88306   0.51098   0.00000  Uiso   1.00
C1944  C     0.63976   0.77388   0.88306   0.00000  Uiso   1.00
C1945  C     0.55219   0.67596   0.70339   0.00000  Uiso   1.00
C1946  C     0.59033   0.68804   0.72424   0.00000  Uiso   1.00
C1947  C     0.62771   0.71223   0.69257   0.00000  Uiso   1.00
C1948  C     0.44366   0.99566   0.80047   0.00000  Uiso   1.00
C1949  C     0.41426   0.69483   0.82621   0.00000  Uiso   1.00
C1950  C     0.37609   0.67482   0.86077   0.00000  Uiso   1.00
C1951  C     0.56736   0.70384   0.99803   0.00000  Uiso   1.00
C1952  C     0.59737   0.67357   0.96958   0.00000  Uiso   1.00
C1953  C     0.58099   0.96211   0.98110   0.00000  Uiso   1.00
C1954  C     0.48412   0.84311   0.99222   0.00000  Uiso   1.00
C1955  C     0.42528   0.79757   0.60059   0.00000  Uiso   1.00
C1956  C     0.39896   0.78670   0.56588   0.00000  Uiso   1.00
C1957  C     0.36257   0.75207   0.58072   0.00000  Uiso   1.00
C1958  C     0.45488   0.92559   0.57870   0.00000  Uiso   1.00
C1959  C     0.47441   0.97130   0.57989   0.00000  Uiso   1.00
C1960  C     0.44457   0.99868   0.61349   0.00000  Uiso   1.00
C1961  C     0.48355   0.82986   0.94696   0.00000  Uiso   1.00
C1962  C     0.50140   0.81766   0.51543   0.00000  Uiso   1.00
C1963  C     0.52652   0.78672   0.99096   0.00000  Uiso   1.00
C1964  C     0.52183   0.77164   0.94844   0.00000  Uiso   1.00
C1965  C     0.49712   0.79078   0.92864   0.00000  Uiso   1.00
H1966  H     0.53651   0.74469   0.93077   0.00000  Uiso   1.00
H1967  H     0.65800   0.89087   0.51712   0.00000  Uiso   1.00
H1968  H     0.36616   0.86586   0.97676   0.00000  Uiso   1.00
H1969  H     0.36497   0.87053   0.53573   0.00000  Uiso   1.00
H1970  H     0.61782   0.79668   0.90162   0.00000  Uiso   1.00
H1971  H     0.62067   0.74494   0.87325   0.00000  Uiso   1.00
H1972  H     0.65814   0.76634   0.90588   0.00000  Uiso   1.00
H1973  H     0.35872   0.76879   0.82362   0.00000  Uiso   1.00
H1974  H     0.35682   0.82008   0.85285   0.00000  Uiso   1.00
H1975  H     0.62490   0.82750   0.82930   0.00000  Uiso   1.00
H1976  H     0.62655   0.77587   0.79978   0.00000  Uiso   1.00
H1977  H     0.44674   0.91493   0.92194   0.00000  Uiso   1.00
H1978  H     0.63836   0.69326   0.66033   0.00000  Uiso   1.00
H1979  H     0.61814   0.74168   0.68577   0.00000  Uiso   1.00
H1980  H     0.65491   0.72005   0.70837   0.00000  Uiso   1.00
H1981  H     0.58083   0.70764   0.75626   0.00000  Uiso   1.00
H1982  H     0.60098   0.99278   0.73185   0.00000  Uiso   1.00
H1983  H     0.56133   0.98717   0.67329   0.00000  Uiso   1.00
H1984  H     0.54485   0.70352   0.69017   0.00000  Uiso   1.00
H1985  H     0.35670   0.98395   0.84385   0.00000  Uiso   1.00
H1986  H     0.38716   0.99377   0.88576   0.00000  Uiso   1.00
H1987  H     0.35555   0.69887   0.87883   0.00000  Uiso   1.00
H1988  H     0.44860   0.93800   0.99756   0.00000  Uiso   1.00
H1989  H     0.43239   0.71949   0.84409   0.00000  Uiso   1.00
H1990  H     0.40207   0.70938   0.80218   0.00000  Uiso   1.00
H1991  H     0.42404   0.97179   0.78339   0.00000  Uiso   1.00
H1992  H     0.45425   0.98141   0.82594   0.00000  Uiso   1.00
H1993  H     0.53493   0.69449   0.99222   0.00000  Uiso   1.00
H1994  H     0.56564   0.70179   0.53418   0.00000  Uiso   1.00
H1995  H     0.60008   0.67588   0.93335   0.00000  Uiso   1.00
H1996  H     0.62970   0.68204   0.97557   0.00000  Uiso   1.00
H1997  H     0.57829   0.95895   0.51714   0.00000  Uiso   1.00
H1998  H     0.60363   0.94093   0.96023   0.00000  Uiso   1.00
H1999  H     0.49066   0.77525   0.89805   0.00000  Uiso   1.00
H2000  H     0.54918   0.95266   0.97416   0.00000  Uiso   1.00
H2001  H     0.40343   0.80535   0.63389   0.00000  Uiso   1.00
H2002  H     0.43956   0.76950   0.60412   0.00000  Uiso   1.00
H2003  H     0.38562   0.81482   0.56163   0.00000  Uiso   1.00
H2004  H     0.41964   0.77614   0.53296   0.00000  Uiso   1.00
H2005  H     0.37545   0.72379   0.58571   0.00000  Uiso   1.00
H2006  H     0.34462   0.74397   0.55453   0.00000  Uiso   1.00
H2007  H     0.34020   0.76244   0.61261   0.00000  Uiso   1.00
H2008  H     0.44872   0.91506   0.61299   0.00000  Uiso   1.00
H2009  H     0.42303   0.92191   0.57111   0.00000  Uiso   1.00
H2010  H     0.34874   0.85536   0.70850   0.00000  Uiso   1.00
H2011  H     0.50514   0.97400   0.58954   0.00000  Uiso   1.00
H2012  H     0.48128   0.98280   0.54602   0.00000  Uiso   1.00
H2013  H     0.41386   0.99709   0.60411   0.00000  Uiso   1.00
H2014  H     0.45981   0.69814   0.61343   0.00000  Uiso   1.00
H2015  H     0.43815   0.98850   0.64796   0.00000  Uiso   1.00
H2016  H     0.64197   0.82050   0.58773   0.00000  Uiso   1.00
H2017  H     0.60462   0.84844   0.57509   0.00000  Uiso   1.00
H2018  H     0.33750   0.79782   0.50750   0.00000  Uiso   1.00
H2019  H     0.63053   0.82033   0.99175   0.00000  Uiso   1.00
O2020  O     0.50000   0.83333   0.75000   0.00000  Uiso   1.00
O2021  O     0.48784   0.79304   0.65458   0.00000  Uiso   1.00
O2022  O     0.46274   0.87058   0.84968   0.00000  Uiso   1.00
O2023  O     0.54157   0.84425   0.64606   0.00000  Uiso   1.00
O2024  O     0.50785   0.82546   0.84968   0.00000  Uiso   1.00
O2025  O     0.59301   0.78258   0.56824   0.00000  Uiso   1.00
O2026  O     0.58319   0.74455   0.98528   0.00000  Uiso   1.00
O2027  O     0.45589   0.83297   0.58968   0.00000  Uiso   1.00
O2028  O     0.48475   0.90100   0.54928   0.00000  Uiso   1.00
O2029  O     0.51264   0.74686   0.78213   0.00000  Uiso   1.00
O2030  O     0.47965   0.92751   0.77013   0.00000  Uiso   1.00
O2031  O     0.40745   0.79958   0.73413   0.00000  Uiso   1.00
O2032  O     0.60026   0.85939   0.71360   0.00000  Uiso   1.00
O2033  O     0.40405   0.85544   0.78213   0.00000  Uiso   1.00
O2034  O     0.58824   0.81892   0.77013   0.00000  Uiso   1.00
O2035  O     0.47093   0.73610   0.73413   0.00000  Uiso   1.00
O2036  O     0.53678   0.92286   0.71360   0.00000  Uiso   1.00
Zn2037 Zn    0.52672   0.80661   0.78734   0.00000  Uiso   1.00
Zn2038 Zn    0.46713   0.79124   0.71875   0.00000  Uiso   1.00
Zn2039 Zn    0.54389   0.86442   0.70657   0.00000  Uiso   1.00
Zn2040 Zn    0.46226   0.87106   0.78733   0.00000  Uiso   1.00
C2041  C     0.71978   0.82700   0.75941   0.00000  Uiso   1.00
C2042  C     0.82706   0.82041   0.56237   0.00000  Uiso   1.00
C2043  C     0.89133   0.78787   0.55337   0.00000  Uiso   1.00
C2044  C     0.94736   0.84016   0.74025   0.00000  Uiso   1.00
C2045  C     0.80503   0.85678   0.92074   0.00000  Uiso   1.00
C2046  C     0.99286   0.84067   0.73675   0.00000  Uiso   1.00
C2047  C     0.67420   0.82358   0.76683   0.00000  Uiso   1.00
C2048  C     0.84659   0.98958   0.73756   0.00000  Uiso   1.00
C2049  C     0.81677   0.67934   0.76516   0.00000  Uiso   1.00
C2050  C     0.82252   0.72301   0.76044   0.00000  Uiso   1.00
C2051  C     0.84304   0.94467   0.74035   0.00000  Uiso   1.00
C2052  C     0.79028   0.90716   0.98518   0.00000  Uiso   1.00
C2053  C     0.85190   0.81489   0.62934   0.00000  Uiso   1.00
C2054  C     0.81384   0.85001   0.87121   0.00000  Uiso   1.00
C2055  C     0.88821   0.77124   0.51031   0.00000  Uiso   1.00
C2056  C     0.85758   0.80845   0.58104   0.00000  Uiso   1.00
C2057  C     0.78959   0.89400   0.94118   0.00000  Uiso   1.00
C2058  C     0.95481   0.82017   0.56434   0.00000  Uiso   1.00
C2059  C     0.98361   0.82335   0.51627   0.00000  Uiso   1.00
C2060  C     0.67827   0.86525   0.51137   0.00000  Uiso   1.00
C2061  C     0.97949   0.80447   0.80967   0.00000  Uiso   1.00
C2062  C     0.67057   0.79221   0.84147   0.00000  Uiso   1.00
C2063  C     0.80554   0.88306   0.51098   0.00000  Uiso   1.00
C2064  C     0.97310   0.77388   0.88306   0.00000  Uiso   1.00
C2065  C     0.88552   0.67596   0.70339   0.00000  Uiso   1.00
C2066  C     0.92366   0.68804   0.72424   0.00000  Uiso   1.00
C2067  C     0.96105   0.71223   0.69257   0.00000  Uiso   1.00
C2068  C     0.77699   0.99566   0.80047   0.00000  Uiso   1.00
C2069  C     0.74759   0.69483   0.82621   0.00000  Uiso   1.00
C2070  C     0.70942   0.67482   0.86077   0.00000  Uiso   1.00
C2071  C     0.90069   0.70384   0.99803   0.00000  Uiso   1.00
C2072  C     0.93071   0.67357   0.96958   0.00000  Uiso   1.00
C2073  C     0.91432   0.96211   0.98110   0.00000  Uiso   1.00
C2074  C     0.81745   0.84311   0.99222   0.00000  Uiso   1.00
C2075  C     0.75862   0.79757   0.60059   0.00000  Uiso   1.00
C2076  C     0.73229   0.78670   0.56588   0.00000  Uiso   1.00
C2077  C     0.69590   0.75207   0.58072   0.00000  Uiso   1.00
C2078  C     0.78821   0.92559   0.57870   0.00000  Uiso   1.00
C2079  C     0.80774   0.97130   0.57989   0.00000  Uiso   1.00
C2080  C     0.77790   0.99868   0.61349   0.00000  Uiso   1.00
C2081  C     0.81688   0.82986   0.94696   0.00000  Uiso   1.00
C2082  C     0.83473   0.81766   0.51543   0.00000  Uiso   1.00
C2083  C     0.85986   0.78672   0.99096   0.00000  Uiso   1.00
C2084  C     0.85516   0.77164   0.94844   0.00000  Uiso   1.00
C2085  C     0.83046   0.79078   0.92864   0.00000  Uiso   1.00
H2086  H     0.86985   0.74469   0.93077   0.00000  Uiso   1.00
H2087  H     0.99134   0.89087   0.51712   0.00000  Uiso   1.00
H2088  H     0.69950   0.86586   0.97676   0.00000  Uiso   1.00
H2089  H     0.69830   0.87053   0.53573   0.00000  Uiso   1.00
H2090  H     0.95115   0.79668   0.90162   0.00000  Uiso   1.00
H2091  H     0.95400   0.74494   0.87325   0.00000  Uiso   1.00
H2092  H     0.99147   0.76634   0.90588   0.00000  Uiso   1.00
H2093  H     0.69205   0.76879   0.82362   0.00000  Uiso   1.00
H2094  H     0.69015   0.82008   0.85285   0.00000  Uiso   1.00
H2095  H     0.95823   0.82750   0.82930   0.00000  Uiso   1.00
H2096  H     0.95988   0.77587   0.79978   0.00000  Uiso   1.00
H2097  H     0.78007   0.91493   0.92194   0.00000  Uiso   1.00
H2098  H     0.97170   0.69326   0.66033   0.00000  Uiso   1.00
H2099  H     0.95147   0.74168   0.68577   0.00000  Uiso   1.00
H2100  H     0.98824   0.72005   0.70837   0.00000  Uiso   1.00
H2101  H     0.91416   0.70764   0.75626   0.00000  Uiso   1.00
H2102  H     0.93431   0.99278   0.73185   0.00000  Uiso   1.00
H2103  H     0.89466   0.98717   0.67329   0.00000  Uiso   1.00
H2104  H     0.87818   0.70352   0.69017   0.00000  Uiso   1.00
H2105  H     0.69003   0.98395   0.84385   0.00000  Uiso   1.00
H2106  H     0.72049   0.99377   0.88576   0.00000  Uiso   1.00
H2107  H     0.68888   0.69887   0.87883   0.00000  Uiso   1.00
H2108  H     0.78193   0.93800   0.99756   0.00000  Uiso   1.00
H2109  H     0.76573   0.71949   0.84409   0.00000  Uiso   1.00
H2110  H     0.73540   0.70938   0.80218   0.00000  Uiso   1.00
H2111  H     0.75737   0.97179   0.78339   0.00000  Uiso   1.00
H2112  H     0.78759   0.98141   0.82594   0.00000  Uiso   1.00
H2113  H     0.86827   0.69449   0.99222   0.00000  Uiso   1.00
H2114  H     0.89897   0.70179   0.53418   0.00000  Uiso   1.00
H2115  H     0.93341   0.67588   0.93335   0.00000  Uiso   1.00
H2116  H     0.96304   0.68204   0.97557   0.00000  Uiso   1.00
H2117  H     0.91163   0.95895   0.51714   0.00000  Uiso   1.00
H2118  H     0.93696   0.94093   0.96023   0.00000  Uiso   1.00
H2119  H     0.82400   0.77525   0.89805   0.00000  Uiso   1.00
H2120  H     0.88251   0.95266   0.97416   0.00000  Uiso   1.00
H2121  H     0.73676   0.80535   0.63389   0.00000  Uiso   1.00
H2122  H     0.77289   0.76950   0.60412   0.00000  Uiso   1.00
H2123  H     0.71895   0.81482   0.56163   0.00000  Uiso   1.00
H2124  H     0.75297   0.77614   0.53296   0.00000  Uiso   1.00
H2125  H     0.70878   0.72379   0.58571   0.00000  Uiso   1.00
H2126  H     0.67796   0.74397   0.55453   0.00000  Uiso   1.00
H2127  H     0.67353   0.76244   0.61261   0.00000  Uiso   1.00
H2128  H     0.78205   0.91506   0.61299   0.00000  Uiso   1.00
H2129  H     0.75636   0.92191   0.57111   0.00000  Uiso   1.00
H2130  H     0.68207   0.85536   0.70850   0.00000  Uiso   1.00
H2131  H     0.83847   0.97400   0.58954   0.00000  Uiso   1.00
H2132  H     0.81461   0.98280   0.54602   0.00000  Uiso   1.00
H2133  H     0.74719   0.99709   0.60411   0.00000  Uiso   1.00
H2134  H     0.79314   0.69814   0.61343   0.00000  Uiso   1.00
H2135  H     0.77148   0.98850   0.64796   0.00000  Uiso   1.00
H2136  H     0.97530   0.82050   0.58773   0.00000  Uiso   1.00
H2137  H     0.93795   0.84844   0.57509   0.00000  Uiso   1.00
H2138  H     0.67083   0.79782   0.50750   0.00000  Uiso   1.00
H2139  H     0.96387   0.82033   0.99175   0.00000  Uiso   1.00
O2140  O     0.83333   0.83333   0.75000   0.00000  Uiso   1.00
O2141  O     0.82118   0.79304   0.65458   0.00000  Uiso   1.00
O2142  O     0.79607   0.87058   0.84968   0.00000  Uiso   1.00
O2143  O     0.87491   0.84425   0.64606   0.00000  Uiso   1.00
O2144  O     0.84118   0.82546   0.84968   0.00000  Uiso   1.00
O2145  O     0.92635   0.78258   0.56824   0.00000  Uiso   1.00
O2146  O     0.91653   0.74455   0.98528   0.00000  Uiso   1.00
O2147  O     0.78923   0.83297   0.58968   0.00000  Uiso   1.00
O2148  O     0.81809   0.90100   0.54928   0.00000  Uiso   1.00
O2149  O     0.84597   0.74686   0.78213   0.00000  Uiso   1.00
O2150  O     0.81298   0.92751   0.77013   0.00000  Uiso   1.00
O2151  O     0.74078   0.79958   0.73413   0.00000  Uiso   1.00
O2152  O     0.93360   0.85939   0.71360   0.00000  Uiso   1.00
O2153  O     0.73738   0.85544   0.78213   0.00000  Uiso   1.00
O2154  O     0.92158   0.81892   0.77013   0.00000  Uiso   1.00
O2155  O     0.80426   0.73610   0.73413   0.00000  Uiso   1.00
O2156  O     0.87012   0.92286   0.71360   0.00000  Uiso   1.00
Zn2157 Zn    0.86005   0.80661   0.78734   0.00000  Uiso   1.00
Zn2158 Zn    0.80046   0.79124   0.71875   0.00000  Uiso   1.00
Zn2159 Zn    0.87723   0.86442   0.70657   0.00000  Uiso   1.00
Zn2160 Zn    0.79560   0.87106   0.78733   0.00000  Uiso   1.00
loop_
_geom_bond_atom_site_label_1
_geom_bond_atom_site_label_2
_geom_bond_distance
_geom_bond_site_symmetry_2
_ccdc_geom_bond_type
C1     O113    1.263   .     A
C1     C7      1.435   .     S
C1     O111    1.270   .     A
C2     O107    1.386   .     S
C2     C16     1.400   .     A
C2     C42     1.401   .     A
C3     O105    1.383   .     S
C3     C16     1.407   .     A
C3     C15     1.404   .     A
C4     O112    1.296   .     A
C4     C6      1.461   .     S
C4     O114    1.266   .     A
C5     C17     1.399   .     A
C5     C14     1.479   .     S
C5     C41     1.419   .     A
C6     C127    1.359   .     S
C6     H210    1.088   .     S
C7     C246    1.359   1_455 S
C7     C261    1.535   1_455 S
C8     C11     1.462   .     S
C8     C369    1.367   .     S
C8     C385    1.531   .     S
C9     C10     1.427   .     S
C9     C728    1.367   1_545 S
C9     C748    1.536   1_545 S
C10    O109    1.274   .     A
C10    O115    1.272   .     A
C11    O110    1.265   .     A
C11    O116    1.277   .     A
C12    H68     1.080   .     S
C12    C17     1.385   .     A
C12    C1103   1.407   .     S
C13    O103    1.277   .     A
C13    O101    1.274   .     A
C13    C16     1.451   .     S
C14    O102    1.288   .     A
C14    O104    1.285   .     A
C15    C1123   1.407   1_554 S
C15    O1186   1.383   1_554 S
C17    H57     1.083   .     S
C18    H96     1.109   .     S
C18    C19     1.539   .     S
C18    H97     1.115   .     S
C18    O105    1.421   .     S
C19    C140    1.526   .     S
C19    H218    1.110   .     S
C19    H1179   1.109   1_554 S
C20    H49     1.109   .     S
C20    C259    1.526   1_455 S
C20    H287    1.111   1_455 S
C20    H1128   1.110   1_554 S
C21    H55     1.112   .     S
C21    H56     1.112   .     S
C21    C127    1.535   .     S
C21    C142    1.541   .     S
C22    H54     1.111   .     S
C22    H53     1.111   .     S
C22    C261    1.541   1_455 S
C22    C264    1.528   1_455 S
C23    O108    1.395   .     S
C23    C1092   1.407   1_554 S
C23    C1114   1.427   1_554 S
C24    H52     1.110   .     S
C24    H51     1.111   .     S
C24    H50     1.111   .     S
C24    C142    1.528   .     S
C25    C26     1.535   .     S
C25    H64     1.111   .     S
C25    C728    1.531   1_545 S
C25    H783    1.112   1_545 S
C26    C27     1.526   .     S
C26    H61     1.111   .     S
C26    H782    1.112   1_545 S
C27    H60     1.111   .     S
C27    H58     1.111   .     S
C27    H59     1.111   .     S
C28    H72     1.112   .     S
C28    H71     1.112   .     S
C28    C369    1.536   .     S
C28    C389    1.541   .     S
C29    H69     1.112   .     S
C29    C30     1.527   .     S
C29    H70     1.111   .     S
C29    C748    1.541   1_545 S
C30    H67     1.109   .     S
C30    H785    1.111   1_545 S
C30    H786    1.111   1_545 S
C31    C32     1.528   .     S
C31    H73     1.115   .     S
C31    O106    1.412   .     S
C31    H1154   1.115   .     S
C32    H75     1.112   .     S
C32    H76     1.112   .     S
C32    C753    1.527   1_545 S
C33    H78     1.110   .     S
C33    H80     1.111   .     S
C33    C392    1.527   .     S
C33    H1157   1.111   .     S
C34    C41     1.422   .     A
C34    C1103   1.427   .     S
C34    C1122   1.421   .     S
C35    H81     1.111   .     S
C35    H82     1.115   .     S
C35    C36     1.530   .     S
C35    O107    1.419   .     S
C36    C37     1.527   .     S
C36    H84     1.110   .     S
C36    H83     1.107   .     S
C37    H85     1.111   .     S
C37    H86     1.110   .     S
C37    H87     1.110   .     S
C38    H89     1.115   .     S
C38    C39     1.532   .     S
C38    H88     1.111   .     S
C38    O108    1.418   .     S
C39    H91     1.112   .     S
C39    C40     1.526   .     S
C39    H92     1.109   .     S
C40    H93     1.111   .     S
C40    H95     1.111   .     S
C40    H454    1.111   .     S
C41    C45     1.416   .     A
C42    C1114   1.421   1_554 S
C42    C1123   1.414   1_554 S
C43    C44     1.391   .     A
C43    C1122   1.414   .     S
C43    C1095   1.407   .     S
C44    H46     1.083   .     S
C44    C45     1.387   .     A
C45    H79     1.078   .     S
H47    C140    1.111   .     S
H48    C1100   1.110   .     S
H62    C386    1.112   .     S
H63    C385    1.112   .     S
H65    C390    1.111   .     S
H66    C390    1.111   .     S
H74    C1111   1.115   1_554 S
H77    C1113   1.111   1_554 S
H90    C246    1.088   1_455 S
H94    C760    1.111   1_545 S
H98    C259    1.110   1_455 S
H99    C1099   1.109   .     S
O100   Zn120   1.930   .     S
O100   Zn119   1.935   .     S
O100   Zn118   1.947   .     S
O100   Zn117   1.965   .     S
O101   Zn118   1.924   .     S
O102   Zn120   1.937   .     S
O103   Zn119   1.930   .     S
O104   Zn117   1.919   .     S
O106   C1095   1.383   .     S
O109   Zn117   1.932   .     S
O110   Zn120   1.936   .     S
O111   Zn118   1.933   .     S
O112   Zn119   1.946   .     S
O113   Zn120   1.942   .     S
O114   Zn117   1.931   .     S
O115   Zn118   1.941   .     S
O116   Zn119   1.933   .     S
C121   O233    1.263   .     A
C121   C127    1.435   .     S
C121   O231    1.270   .     A
C122   O227    1.386   .     S
C122   C136    1.400   .     A
C122   C162    1.401   .     A
C123   O225    1.383   .     S
C123   C136    1.407   .     A
C123   C135    1.404   .     A
C124   O232    1.296   .     A
C124   C126    1.461   .     S
C124   O234    1.266   .     A
C125   C137    1.399   .     A
C125   C134    1.479   .     S
C125   C161    1.419   .     A
C126   C247    1.359   .     S
C126   H330    1.088   .     S
C128   C131    1.462   .     S
C128   C489    1.367   .     S
C128   C505    1.531   .     S
C129   C130    1.427   .     S
C129   C848    1.367   1_545 S
C129   C868    1.536   1_545 S
C130   O229    1.274   .     A
C130   O235    1.272   .     A
C131   O230    1.265   .     A
C131   O236    1.277   .     A
C132   H188    1.080   .     S
C132   C137    1.385   .     A
C132   C1223   1.407   .     S
C133   O223    1.277   .     A
C133   O221    1.274   .     A
C133   C136    1.451   .     S
C134   O222    1.288   .     A
C134   O224    1.285   .     A
C135   C1243   1.407   1_554 S
C135   O1306   1.383   1_554 S
C137   H177    1.083   .     S
C138   H216    1.109   .     S
C138   C139    1.539   .     S
C138   H217    1.115   .     S
C138   O225    1.421   .     S
C139   C260    1.526   .     S
C139   H338    1.110   .     S
C139   H1299   1.109   1_554 S
C140   H169    1.109   .     S
C140   H1248   1.110   1_554 S
C141   H175    1.112   .     S
C141   H176    1.112   .     S
C141   C247    1.535   .     S
C141   C262    1.541   .     S
C142   H174    1.111   .     S
C142   H173    1.111   .     S
C143   O228    1.395   .     S
C143   C1212   1.407   1_554 S
C143   C1234   1.427   1_554 S
C144   H172    1.110   .     S
C144   H171    1.111   .     S
C144   H170    1.111   .     S
C144   C262    1.528   .     S
C145   C146    1.535   .     S
C145   H184    1.111   .     S
C145   C848    1.531   1_545 S
C145   H903    1.112   1_545 S
C146   C147    1.526   .     S
C146   H181    1.111   .     S
C146   H902    1.112   1_545 S
C147   H180    1.111   .     S
C147   H178    1.111   .     S
C147   H179    1.111   .     S
C148   H192    1.112   .     S
C148   H191    1.112   .     S
C148   C489    1.536   .     S
C148   C509    1.541   .     S
C149   H189    1.112   .     S
C149   C150    1.527   .     S
C149   H190    1.111   .     S
C149   C868    1.541   1_545 S
C150   H187    1.109   .     S
C150   H905    1.111   1_545 S
C150   H906    1.111   1_545 S
C151   C152    1.528   .     S
C151   H193    1.115   .     S
C151   O226    1.412   .     S
C151   H1274   1.115   .     S
C152   H195    1.112   .     S
C152   H196    1.112   .     S
C152   C873    1.527   1_545 S
C153   H198    1.110   .     S
C153   H200    1.111   .     S
C153   C512    1.527   .     S
C153   H1277   1.111   .     S
C154   C161    1.422   .     A
C154   C1223   1.427   .     S
C154   C1242   1.421   .     S
C155   H201    1.111   .     S
C155   H202    1.115   .     S
C155   C156    1.530   .     S
C155   O227    1.419   .     S
C156   C157    1.527   .     S
C156   H204    1.110   .     S
C156   H203    1.107   .     S
C157   H205    1.111   .     S
C157   H206    1.110   .     S
C157   H207    1.110   .     S
C158   H209    1.115   .     S
C158   C159    1.532   .     S
C158   H208    1.111   .     S
C158   O228    1.418   .     S
C159   H211    1.112   .     S
C159   C160    1.526   .     S
C159   H212    1.109   .     S
C160   H213    1.111   .     S
C160   H215    1.111   .     S
C160   H574    1.111   .     S
C161   C165    1.416   .     A
C162   C1234   1.421   1_554 S
C162   C1243   1.414   1_554 S
C163   C164    1.391   .     A
C163   C1242   1.414   .     S
C163   C1215   1.407   .     S
C164   H166    1.083   .     S
C164   C165    1.387   .     A
C165   H199    1.078   .     S
H167   C260    1.111   .     S
H168   C1220   1.110   .     S
H182   C506    1.112   .     S
H183   C505    1.112   .     S
H185   C510    1.111   .     S
H186   C510    1.111   .     S
H194   C1231   1.115   1_554 S
H197   C1233   1.111   1_554 S
H214   C880    1.111   1_545 S
H219   C1219   1.109   .     S
O220   Zn240   1.930   .     S
O220   Zn239   1.935   .     S
O220   Zn238   1.947   .     S
O220   Zn237   1.965   .     S
O221   Zn238   1.924   .     S
O222   Zn240   1.937   .     S
O223   Zn239   1.930   .     S
O224   Zn237   1.919   .     S
O226   C1215   1.383   .     S
O229   Zn237   1.932   .     S
O230   Zn240   1.936   .     S
O231   Zn238   1.933   .     S
O232   Zn239   1.946   .     S
O233   Zn240   1.942   .     S
O234   Zn237   1.931   .     S
O235   Zn238   1.941   .     S
O236   Zn239   1.933   .     S
C241   O353    1.263   .     A
C241   C247    1.435   .     S
C241   O351    1.270   .     A
C242   O347    1.386   .     S
C242   C256    1.400   .     A
C242   C282    1.401   .     A
C243   O345    1.383   .     S
C243   C256    1.407   .     A
C243   C255    1.404   .     A
C244   O352    1.296   .     A
C244   C246    1.461   .     S
C244   O354    1.266   .     A
C245   C257    1.399   .     A
C245   C254    1.479   .     S
C245   C281    1.419   .     A
C246   C7      1.359   1_655 S
C246   H90     1.088   1_655 S
C248   C251    1.462   .     S
C248   C609    1.367   .     S
C248   C625    1.531   .     S
C249   C250    1.427   .     S
C249   C968    1.367   1_545 S
C249   C988    1.536   1_545 S
C250   O349    1.274   .     A
C250   O355    1.272   .     A
C251   O350    1.265   .     A
C251   O356    1.277   .     A
C252   H308    1.080   .     S
C252   C257    1.385   .     A
C252   C1343   1.407   .     S
C253   O343    1.277   .     A
C253   O341    1.274   .     A
C253   C256    1.451   .     S
C254   O342    1.288   .     A
C254   O344    1.285   .     A
C255   C1363   1.407   1_554 S
C255   O1426   1.383   1_554 S
C257   H297    1.083   .     S
C258   H336    1.109   .     S
C258   C259    1.539   .     S
C258   H337    1.115   .     S
C258   O345    1.421   .     S
C259   C20     1.526   1_655 S
C259   H98     1.110   1_655 S
C259   H1419   1.109   1_554 S
C260   H289    1.109   .     S
C260   H1368   1.110   1_554 S
C261   H295    1.112   .     S
C261   H296    1.112   .     S
C261   C7      1.535   1_655 S
C261   C22     1.541   1_655 S
C262   H294    1.111   .     S
C262   H293    1.111   .     S
C263   O348    1.395   .     S
C263   C1332   1.407   1_554 S
C263   C1354   1.427   1_554 S
C264   H292    1.110   .     S
C264   H291    1.111   .     S
C264   H290    1.111   .     S
C264   C22     1.528   1_655 S
C265   C266    1.535   .     S
C265   H304    1.111   .     S
C265   C968    1.531   1_545 S
C265   H1023   1.112   1_545 S
C266   C267    1.526   .     S
C266   H301    1.111   .     S
C266   H1022   1.112   1_545 S
C267   H300    1.111   .     S
C267   H298    1.111   .     S
C267   H299    1.111   .     S
C268   H312    1.112   .     S
C268   H311    1.112   .     S
C268   C609    1.536   .     S
C268   C629    1.541   .     S
C269   H309    1.112   .     S
C269   C270    1.527   .     S
C269   H310    1.111   .     S
C269   C988    1.541   1_545 S
C270   H307    1.109   .     S
C270   H1025   1.111   1_545 S
C270   H1026   1.111   1_545 S
C271   C272    1.528   .     S
C271   H313    1.115   .     S
C271   O346    1.412   .     S
C271   H1394   1.115   .     S
C272   H315    1.112   .     S
C272   H316    1.112   .     S
C272   C993    1.527   1_545 S
C273   H318    1.110   .     S
C273   H320    1.111   .     S
C273   C632    1.527   .     S
C273   H1397   1.111   .     S
C274   C281    1.422   .     A
C274   C1343   1.427   .     S
C274   C1362   1.421   .     S
C275   H321    1.111   .     S
C275   H322    1.115   .     S
C275   C276    1.530   .     S
C275   O347    1.419   .     S
C276   C277    1.527   .     S
C276   H324    1.110   .     S
C276   H323    1.107   .     S
C277   H325    1.111   .     S
C277   H326    1.110   .     S
C277   H327    1.110   .     S
C278   H329    1.115   .     S
C278   C279    1.532   .     S
C278   H328    1.111   .     S
C278   O348    1.418   .     S
C279   H331    1.112   .     S
C279   C280    1.526   .     S
C279   H332    1.109   .     S
C280   H333    1.111   .     S
C280   H335    1.111   .     S
C280   H694    1.111   .     S
C281   C285    1.416   .     A
C282   C1354   1.421   1_554 S
C282   C1363   1.414   1_554 S
C283   C284    1.391   .     A
C283   C1362   1.414   .     S
C283   C1335   1.407   .     S
C284   H286    1.083   .     S
C284   C285    1.387   .     A
C285   H319    1.078   .     S
H287   C20     1.111   1_655 S
H288   C1340   1.110   .     S
H302   C626    1.112   .     S
H303   C625    1.112   .     S
H305   C630    1.111   .     S
H306   C630    1.111   .     S
H314   C1351   1.115   1_554 S
H317   C1353   1.111   1_554 S
H334   C1000   1.111   1_545 S
H339   C1339   1.109   .     S
O340   Zn360   1.930   .     S
O340   Zn359   1.935   .     S
O340   Zn358   1.947   .     S
O340   Zn357   1.965   .     S
O341   Zn358   1.924   .     S
O342   Zn360   1.937   .     S
O343   Zn359   1.930   .     S
O344   Zn357   1.919   .     S
O346   C1335   1.383   .     S
O349   Zn357   1.932   .     S
O350   Zn360   1.936   .     S
O351   Zn358   1.933   .     S
O352   Zn359   1.946   .     S
O353   Zn360   1.942   .     S
O354   Zn357   1.931   .     S
O355   Zn358   1.941   .     S
O356   Zn359   1.933   .     S
C361   O473    1.263   .     A
C361   C367    1.435   .     S
C361   O471    1.270   .     A
C362   O467    1.386   .     S
C362   C376    1.400   .     A
C362   C402    1.401   .     A
C363   O465    1.383   .     S
C363   C376    1.407   .     A
C363   C375    1.404   .     A
C364   O472    1.296   .     A
C364   C366    1.461   .     S
C364   O474    1.266   .     A
C365   C377    1.399   .     A
C365   C374    1.479   .     S
C365   C401    1.419   .     A
C366   C487    1.359   .     S
C366   H570    1.088   .     S
C367   C606    1.359   1_455 S
C367   C621    1.535   1_455 S
C368   C371    1.462   .     S
C368   C729    1.367   .     S
C368   C745    1.531   .     S
C369   C370    1.427   .     S
C370   O469    1.274   .     A
C370   O475    1.272   .     A
C371   O470    1.265   .     A
C371   O476    1.277   .     A
C372   H428    1.080   .     S
C372   C377    1.385   .     A
C372   C1463   1.407   .     S
C373   O463    1.277   .     A
C373   O461    1.274   .     A
C373   C376    1.451   .     S
C374   O462    1.288   .     A
C374   O464    1.285   .     A
C375   C1483   1.407   1_554 S
C375   O1546   1.383   1_554 S
C377   H417    1.083   .     S
C378   H456    1.109   .     S
C378   C379    1.539   .     S
C378   H457    1.115   .     S
C378   O465    1.421   .     S
C379   C500    1.526   .     S
C379   H578    1.110   .     S
C379   H1539   1.109   1_554 S
C380   H409    1.109   .     S
C380   C619    1.526   1_455 S
C380   H647    1.111   1_455 S
C380   H1488   1.110   1_554 S
C381   H415    1.112   .     S
C381   H416    1.112   .     S
C381   C487    1.535   .     S
C381   C502    1.541   .     S
C382   H414    1.111   .     S
C382   H413    1.111   .     S
C382   C621    1.541   1_455 S
C382   C624    1.528   1_455 S
C383   O468    1.395   .     S
C383   C1452   1.407   1_554 S
C383   C1474   1.427   1_554 S
C384   H412    1.110   .     S
C384   H411    1.111   .     S
C384   H410    1.111   .     S
C384   C502    1.528   .     S
C385   C386    1.535   .     S
C385   H424    1.111   .     S
C386   C387    1.526   .     S
C386   H421    1.111   .     S
C387   H420    1.111   .     S
C387   H418    1.111   .     S
C387   H419    1.111   .     S
C388   H432    1.112   .     S
C388   H431    1.112   .     S
C388   C729    1.536   .     S
C388   C749    1.541   .     S
C389   H429    1.112   .     S
C389   C390    1.527   .     S
C389   H430    1.111   .     S
C390   H427    1.109   .     S
C391   C392    1.528   .     S
C391   H433    1.115   .     S
C391   O466    1.412   .     S
C391   H1514   1.115   .     S
C392   H435    1.112   .     S
C392   H436    1.112   .     S
C393   H438    1.110   .     S
C393   H440    1.111   .     S
C393   C752    1.527   .     S
C393   H1517   1.111   .     S
C394   C401    1.422   .     A
C394   C1463   1.427   .     S
C394   C1482   1.421   .     S
C395   H441    1.111   .     S
C395   H442    1.115   .     S
C395   C396    1.530   .     S
C395   O467    1.419   .     S
C396   C397    1.527   .     S
C396   H444    1.110   .     S
C396   H443    1.107   .     S
C397   H445    1.111   .     S
C397   H446    1.110   .     S
C397   H447    1.110   .     S
C398   H449    1.115   .     S
C398   C399    1.532   .     S
C398   H448    1.111   .     S
C398   O468    1.418   .     S
C399   H451    1.112   .     S
C399   C400    1.526   .     S
C399   H452    1.109   .     S
C400   H453    1.111   .     S
C400   H455    1.111   .     S
C400   H814    1.111   .     S
C401   C405    1.416   .     A
C402   C1474   1.421   1_554 S
C402   C1483   1.414   1_554 S
C403   C404    1.391   .     A
C403   C1482   1.414   .     S
C403   C1455   1.407   .     S
C404   H406    1.083   .     S
C404   C405    1.387   .     A
C405   H439    1.078   .     S
H407   C500    1.111   .     S
H408   C1460   1.110   .     S
H422   C746    1.112   .     S
H423   C745    1.112   .     S
H425   C750    1.111   .     S
H426   C750    1.111   .     S
H434   C1471   1.115   1_554 S
H437   C1473   1.111   1_554 S
H450   C606    1.088   1_455 S
H458   C619    1.110   1_455 S
H459   C1459   1.109   .     S
O460   Zn480   1.930   .     S
O460   Zn479   1.935   .     S
O460   Zn478   1.947   .     S
O460   Zn477   1.965   .     S
O461   Zn478   1.924   .     S
O462   Zn480   1.937   .     S
O463   Zn479   1.930   .     S
O464   Zn477   1.919   .     S
O466   C1455   1.383   .     S
O469   Zn477   1.932   .     S
O470   Zn480   1.936   .     S
O471   Zn478   1.933   .     S
O472   Zn479   1.946   .     S
O473   Zn480   1.942   .     S
O474   Zn477   1.931   .     S
O475   Zn478   1.941   .     S
O476   Zn479   1.933   .     S
C481   O593    1.263   .     A
C481   C487    1.435   .     S
C481   O591    1.270   .     A
C482   O587    1.386   .     S
C482   C496    1.400   .     A
C482   C522    1.401   .     A
C483   O585    1.383   .     S
C483   C496    1.407   .     A
C483   C495    1.404   .     A
C484   O592    1.296   .     A
C484   C486    1.461   .     S
C484   O594    1.266   .     A
C485   C497    1.399   .     A
C485   C494    1.479   .     S
C485   C521    1.419   .     A
C486   C607    1.359   .     S
C486   H690    1.088   .     S
C488   C491    1.462   .     S
C488   C849    1.367   .     S
C488   C865    1.531   .     S
C489   C490    1.427   .     S
C490   O589    1.274   .     A
C490   O595    1.272   .     A
C491   O590    1.265   .     A
C491   O596    1.277   .     A
C492   H548    1.080   .     S
C492   C497    1.385   .     A
C492   C1583   1.407   .     S
C493   O583    1.277   .     A
C493   O581    1.274   .     A
C493   C496    1.451   .     S
C494   O582    1.288   .     A
C494   O584    1.285   .     A
C495   C1603   1.407   1_554 S
C495   O1666   1.383   1_554 S
C497   H537    1.083   .     S
C498   H576    1.109   .     S
C498   C499    1.539   .     S
C498   H577    1.115   .     S
C498   O585    1.421   .     S
C499   C620    1.526   .     S
C499   H698    1.110   .     S
C499   H1659   1.109   1_554 S
C500   H529    1.109   .     S
C500   H1608   1.110   1_554 S
C501   H535    1.112   .     S
C501   H536    1.112   .     S
C501   C607    1.535   .     S
C501   C622    1.541   .     S
C502   H534    1.111   .     S
C502   H533    1.111   .     S
C503   O588    1.395   .     S
C503   C1572   1.407   1_554 S
C503   C1594   1.427   1_554 S
C504   H532    1.110   .     S
C504   H531    1.111   .     S
C504   H530    1.111   .     S
C504   C622    1.528   .     S
C505   C506    1.535   .     S
C505   H544    1.111   .     S
C506   C507    1.526   .     S
C506   H541    1.111   .     S
C507   H540    1.111   .     S
C507   H538    1.111   .     S
C507   H539    1.111   .     S
C508   H552    1.112   .     S
C508   H551    1.112   .     S
C508   C849    1.536   .     S
C508   C869    1.541   .     S
C509   H549    1.112   .     S
C509   C510    1.527   .     S
C509   H550    1.111   .     S
C510   H547    1.109   .     S
C511   C512    1.528   .     S
C511   H553    1.115   .     S
C511   O586    1.412   .     S
C511   H1634   1.115   .     S
C512   H555    1.112   .     S
C512   H556    1.112   .     S
C513   H558    1.110   .     S
C513   H560    1.111   .     S
C513   C872    1.527   .     S
C513   H1637   1.111   .     S
C514   C521    1.422   .     A
C514   C1583   1.427   .     S
C514   C1602   1.421   .     S
C515   H561    1.111   .     S
C515   H562    1.115   .     S
C515   C516    1.530   .     S
C515   O587    1.419   .     S
C516   C517    1.527   .     S
C516   H564    1.110   .     S
C516   H563    1.107   .     S
C517   H565    1.111   .     S
C517   H566    1.110   .     S
C517   H567    1.110   .     S
C518   H569    1.115   .     S
C518   C519    1.532   .     S
C518   H568    1.111   .     S
C518   O588    1.418   .     S
C519   H571    1.112   .     S
C519   C520    1.526   .     S
C519   H572    1.109   .     S
C520   H573    1.111   .     S
C520   H575    1.111   .     S
C520   H934    1.111   .     S
C521   C525    1.416   .     A
C522   C1594   1.421   1_554 S
C522   C1603   1.414   1_554 S
C523   C524    1.391   .     A
C523   C1602   1.414   .     S
C523   C1575   1.407   .     S
C524   H526    1.083   .     S
C524   C525    1.387   .     A
C525   H559    1.078   .     S
H527   C620    1.111   .     S
H528   C1580   1.110   .     S
H542   C866    1.112   .     S
H543   C865    1.112   .     S
H545   C870    1.111   .     S
H546   C870    1.111   .     S
H554   C1591   1.115   1_554 S
H557   C1593   1.111   1_554 S
H579   C1579   1.109   .     S
O580   Zn600   1.930   .     S
O580   Zn599   1.935   .     S
O580   Zn598   1.947   .     S
O580   Zn597   1.965   .     S
O581   Zn598   1.924   .     S
O582   Zn600   1.937   .     S
O583   Zn599   1.930   .     S
O584   Zn597   1.919   .     S
O586   C1575   1.383   .     S
O589   Zn597   1.932   .     S
O590   Zn600   1.936   .     S
O591   Zn598   1.933   .     S
O592   Zn599   1.946   .     S
O593   Zn600   1.942   .     S
O594   Zn597   1.931   .     S
O595   Zn598   1.941   .     S
O596   Zn599   1.933   .     S
C601   O713    1.263   .     A
C601   C607    1.435   .     S
C601   O711    1.270   .     A
C602   O707    1.386   .     S
C602   C616    1.400   .     A
C602   C642    1.401   .     A
C603   O705    1.383   .     S
C603   C616    1.407   .     A
C603   C615    1.404   .     A
C604   O712    1.296   .     A
C604   C606    1.461   .     S
C604   O714    1.266   .     A
C605   C617    1.399   .     A
C605   C614    1.479   .     S
C605   C641    1.419   .     A
C606   C367    1.359   1_655 S
C606   H450    1.088   1_655 S
C608   C611    1.462   .     S
C608   C969    1.367   .     S
C608   C985    1.531   .     S
C609   C610    1.427   .     S
C610   O709    1.274   .     A
C610   O715    1.272   .     A
C611   O710    1.265   .     A
C611   O716    1.277   .     A
C612   H668    1.080   .     S
C612   C617    1.385   .     A
C612   C1703   1.407   .     S
C613   O703    1.277   .     A
C613   O701    1.274   .     A
C613   C616    1.451   .     S
C614   O702    1.288   .     A
C614   O704    1.285   .     A
C615   C1723   1.407   1_554 S
C615   O1786   1.383   1_554 S
C617   H657    1.083   .     S
C618   H696    1.109   .     S
C618   C619    1.539   .     S
C618   H697    1.115   .     S
C618   O705    1.421   .     S
C619   C380    1.526   1_655 S
C619   H458    1.110   1_655 S
C619   H1779   1.109   1_554 S
C620   H649    1.109   .     S
C620   H1728   1.110   1_554 S
C621   H655    1.112   .     S
C621   H656    1.112   .     S
C621   C367    1.535   1_655 S
C621   C382    1.541   1_655 S
C622   H654    1.111   .     S
C622   H653    1.111   .     S
C623   O708    1.395   .     S
C623   C1692   1.407   1_554 S
C623   C1714   1.427   1_554 S
C624   H652    1.110   .     S
C624   H651    1.111   .     S
C624   H650    1.111   .     S
C624   C382    1.528   1_655 S
C625   C626    1.535   .     S
C625   H664    1.111   .     S
C626   C627    1.526   .     S
C626   H661    1.111   .     S
C627   H660    1.111   .     S
C627   H658    1.111   .     S
C627   H659    1.111   .     S
C628   H672    1.112   .     S
C628   H671    1.112   .     S
C628   C969    1.536   .     S
C628   C989    1.541   .     S
C629   H669    1.112   .     S
C629   C630    1.527   .     S
C629   H670    1.111   .     S
C630   H667    1.109   .     S
C631   C632    1.528   .     S
C631   H673    1.115   .     S
C631   O706    1.412   .     S
C631   H1754   1.115   .     S
C632   H675    1.112   .     S
C632   H676    1.112   .     S
C633   H678    1.110   .     S
C633   H680    1.111   .     S
C633   C992    1.527   .     S
C633   H1757   1.111   .     S
C634   C641    1.422   .     A
C634   C1703   1.427   .     S
C634   C1722   1.421   .     S
C635   H681    1.111   .     S
C635   H682    1.115   .     S
C635   C636    1.530   .     S
C635   O707    1.419   .     S
C636   C637    1.527   .     S
C636   H684    1.110   .     S
C636   H683    1.107   .     S
C637   H685    1.111   .     S
C637   H686    1.110   .     S
C637   H687    1.110   .     S
C638   H689    1.115   .     S
C638   C639    1.532   .     S
C638   H688    1.111   .     S
C638   O708    1.418   .     S
C639   H691    1.112   .     S
C639   C640    1.526   .     S
C639   H692    1.109   .     S
C640   H693    1.111   .     S
C640   H695    1.111   .     S
C640   H1054   1.111   .     S
C641   C645    1.416   .     A
C642   C1714   1.421   1_554 S
C642   C1723   1.414   1_554 S
C643   C644    1.391   .     A
C643   C1722   1.414   .     S
C643   C1695   1.407   .     S
C644   H646    1.083   .     S
C644   C645    1.387   .     A
C645   H679    1.078   .     S
H647   C380    1.111   1_655 S
H648   C1700   1.110   .     S
H662   C986    1.112   .     S
H663   C985    1.112   .     S
H665   C990    1.111   .     S
H666   C990    1.111   .     S
H674   C1711   1.115   1_554 S
H677   C1713   1.111   1_554 S
H699   C1699   1.109   .     S
O700   Zn720   1.930   .     S
O700   Zn719   1.935   .     S
O700   Zn718   1.947   .     S
O700   Zn717   1.965   .     S
O701   Zn718   1.924   .     S
O702   Zn720   1.937   .     S
O703   Zn719   1.930   .     S
O704   Zn717   1.919   .     S
O706   C1695   1.383   .     S
O709   Zn717   1.932   .     S
O710   Zn720   1.936   .     S
O711   Zn718   1.933   .     S
O712   Zn719   1.946   .     S
O713   Zn720   1.942   .     S
O714   Zn717   1.931   .     S
O715   Zn718   1.941   .     S
O716   Zn719   1.933   .     S
C721   O833    1.263   .     A
C721   C727    1.435   .     S
C721   O831    1.270   .     A
C722   O827    1.386   .     S
C722   C736    1.400   .     A
C722   C762    1.401   .     A
C723   O825    1.383   .     S
C723   C736    1.407   .     A
C723   C735    1.404   .     A
C724   O832    1.296   .     A
C724   C726    1.461   .     S
C724   O834    1.266   .     A
C725   C737    1.399   .     A
C725   C734    1.479   .     S
C725   C761    1.419   .     A
C726   C847    1.359   .     S
C726   H930    1.088   .     S
C727   C966    1.359   1_455 S
C727   C981    1.535   1_455 S
C728   C731    1.462   .     S
C728   C9      1.367   1_565 S
C728   C25     1.531   1_565 S
C729   C730    1.427   .     S
C730   O829    1.274   .     A
C730   O835    1.272   .     A
C731   O830    1.265   .     A
C731   O836    1.277   .     A
C732   H788    1.080   .     S
C732   C737    1.385   .     A
C732   C1823   1.407   .     S
C733   O823    1.277   .     A
C733   O821    1.274   .     A
C733   C736    1.451   .     S
C734   O822    1.288   .     A
C734   O824    1.285   .     A
C735   C1843   1.407   1_554 S
C735   O1906   1.383   1_554 S
C737   H777    1.083   .     S
C738   H816    1.109   .     S
C738   C739    1.539   .     S
C738   H817    1.115   .     S
C738   O825    1.421   .     S
C739   C860    1.526   .     S
C739   H938    1.110   .     S
C739   H1899   1.109   1_554 S
C740   H769    1.109   .     S
C740   C979    1.526   1_455 S
C740   H1007   1.111   1_455 S
C740   H1848   1.110   1_554 S
C741   H775    1.112   .     S
C741   H776    1.112   .     S
C741   C847    1.535   .     S
C741   C862    1.541   .     S
C742   H774    1.111   .     S
C742   H773    1.111   .     S
C742   C981    1.541   1_455 S
C742   C984    1.528   1_455 S
C743   O828    1.395   .     S
C743   C1812   1.407   1_554 S
C743   C1834   1.427   1_554 S
C744   H772    1.110   .     S
C744   H771    1.111   .     S
C744   H770    1.111   .     S
C744   C862    1.528   .     S
C745   C746    1.535   .     S
C745   H784    1.111   .     S
C746   C747    1.526   .     S
C746   H781    1.111   .     S
C747   H780    1.111   .     S
C747   H778    1.111   .     S
C747   H779    1.111   .     S
C748   H792    1.112   .     S
C748   H791    1.112   .     S
C748   C9      1.536   1_565 S
C748   C29     1.541   1_565 S
C749   H789    1.112   .     S
C749   C750    1.527   .     S
C749   H790    1.111   .     S
C750   H787    1.109   .     S
C751   C752    1.528   .     S
C751   H793    1.115   .     S
C751   O826    1.412   .     S
C751   H1874   1.115   .     S
C752   H795    1.112   .     S
C752   H796    1.112   .     S
C753   H798    1.110   .     S
C753   H800    1.111   .     S
C753   C32     1.527   1_565 S
C753   H1877   1.111   .     S
C754   C761    1.422   .     A
C754   C1823   1.427   .     S
C754   C1842   1.421   .     S
C755   H801    1.111   .     S
C755   H802    1.115   .     S
C755   C756    1.530   .     S
C755   O827    1.419   .     S
C756   C757    1.527   .     S
C756   H804    1.110   .     S
C756   H803    1.107   .     S
C757   H805    1.111   .     S
C757   H806    1.110   .     S
C757   H807    1.110   .     S
C758   H809    1.115   .     S
C758   C759    1.532   .     S
C758   H808    1.111   .     S
C758   O828    1.418   .     S
C759   H811    1.112   .     S
C759   C760    1.526   .     S
C759   H812    1.109   .     S
C760   H813    1.111   .     S
C760   H815    1.111   .     S
C760   H94     1.111   1_565 S
C761   C765    1.416   .     A
C762   C1834   1.421   1_554 S
C762   C1843   1.414   1_554 S
C763   C764    1.391   .     A
C763   C1842   1.414   .     S
C763   C1815   1.407   .     S
C764   H766    1.083   .     S
C764   C765    1.387   .     A
C765   H799    1.078   .     S
H767   C860    1.111   .     S
H768   C1820   1.110   .     S
H782   C26     1.112   1_565 S
H783   C25     1.112   1_565 S
H785   C30     1.111   1_565 S
H786   C30     1.111   1_565 S
H794   C1831   1.115   1_554 S
H797   C1833   1.111   1_554 S
H810   C966    1.088   1_455 S
H818   C979    1.110   1_455 S
H819   C1819   1.109   .     S
O820   Zn840   1.930   .     S
O820   Zn839   1.935   .     S
O820   Zn838   1.947   .     S
O820   Zn837   1.965   .     S
O821   Zn838   1.924   .     S
O822   Zn840   1.937   .     S
O823   Zn839   1.930   .     S
O824   Zn837   1.919   .     S
O826   C1815   1.383   .     S
O829   Zn837   1.932   .     S
O830   Zn840   1.936   .     S
O831   Zn838   1.933   .     S
O832   Zn839   1.946   .     S
O833   Zn840   1.942   .     S
O834   Zn837   1.931   .     S
O835   Zn838   1.941   .     S
O836   Zn839   1.933   .     S
C841   O953    1.263   .     A
C841   C847    1.435   .     S
C841   O951    1.270   .     A
C842   O947    1.386   .     S
C842   C856    1.400   .     A
C842   C882    1.401   .     A
C843   O945    1.383   .     S
C843   C856    1.407   .     A
C843   C855    1.404   .     A
C844   O952    1.296   .     A
C844   C846    1.461   .     S
C844   O954    1.266   .     A
C845   C857    1.399   .     A
C845   C854    1.479   .     S
C845   C881    1.419   .     A
C846   C967    1.359   .     S
C846   H1050   1.088   .     S
C848   C851    1.462   .     S
C848   C129    1.367   1_565 S
C848   C145    1.531   1_565 S
C849   C850    1.427   .     S
C850   O949    1.274   .     A
C850   O955    1.272   .     A
C851   O950    1.265   .     A
C851   O956    1.277   .     A
C852   H908    1.080   .     S
C852   C857    1.385   .     A
C852   C1943   1.407   .     S
C853   O943    1.277   .     A
C853   O941    1.274   .     A
C853   C856    1.451   .     S
C854   O942    1.288   .     A
C854   O944    1.285   .     A
C855   C1963   1.407   1_554 S
C855   O2026   1.383   1_554 S
C857   H897    1.083   .     S
C858   H936    1.109   .     S
C858   C859    1.539   .     S
C858   H937    1.115   .     S
C858   O945    1.421   .     S
C859   C980    1.526   .     S
C859   H1058   1.110   .     S
C859   H2019   1.109   1_554 S
C860   H889    1.109   .     S
C860   H1968   1.110   1_554 S
C861   H895    1.112   .     S
C861   H896    1.112   .     S
C861   C967    1.535   .     S
C861   C982    1.541   .     S
C862   H894    1.111   .     S
C862   H893    1.111   .     S
C863   O948    1.395   .     S
C863   C1932   1.407   1_554 S
C863   C1954   1.427   1_554 S
C864   H892    1.110   .     S
C864   H891    1.111   .     S
C864   H890    1.111   .     S
C864   C982    1.528   .     S
C865   C866    1.535   .     S
C865   H904    1.111   .     S
C866   C867    1.526   .     S
C866   H901    1.111   .     S
C867   H900    1.111   .     S
C867   H898    1.111   .     S
C867   H899    1.111   .     S
C868   H912    1.112   .     S
C868   H911    1.112   .     S
C868   C129    1.536   1_565 S
C868   C149    1.541   1_565 S
C869   H909    1.112   .     S
C869   C870    1.527   .     S
C869   H910    1.111   .     S
C870   H907    1.109   .     S
C871   C872    1.528   .     S
C871   H913    1.115   .     S
C871   O946    1.412   .     S
C871   H1994   1.115   .     S
C872   H915    1.112   .     S
C872   H916    1.112   .     S
C873   H918    1.110   .     S
C873   H920    1.111   .     S
C873   C152    1.527   1_565 S
C873   H1997   1.111   .     S
C874   C881    1.422   .     A
C874   C1943   1.427   .     S
C874   C1962   1.421   .     S
C875   H921    1.111   .     S
C875   H922    1.115   .     S
C875   C876    1.530   .     S
C875   O947    1.419   .     S
C876   C877    1.527   .     S
C876   H924    1.110   .     S
C876   H923    1.107   .     S
C877   H925    1.111   .     S
C877   H926    1.110   .     S
C877   H927    1.110   .     S
C878   H929    1.115   .     S
C878   C879    1.532   .     S
C878   H928    1.111   .     S
C878   O948    1.418   .     S
C879   H931    1.112   .     S
C879   C880    1.526   .     S
C879   H932    1.109   .     S
C880   H933    1.111   .     S
C880   H935    1.111   .     S
C880   H214    1.111   1_565 S
C881   C885    1.416   .     A
C882   C1954   1.421   1_554 S
C882   C1963   1.414   1_554 S
C883   C884    1.391   .     A
C883   C1962   1.414   .     S
C883   C1935   1.407   .     S
C884   H886    1.083   .     S
C884   C885    1.387   .     A
C885   H919    1.078   .     S
H887   C980    1.111   .     S
H888   C1940   1.110   .     S
H902   C146    1.112   1_565 S
H903   C145    1.112   1_565 S
H905   C150    1.111   1_565 S
H906   C150    1.111   1_565 S
H914   C1951   1.115   1_554 S
H917   C1953   1.111   1_554 S
H939   C1939   1.109   .     S
O940   Zn960   1.930   .     S
O940   Zn959   1.935   .     S
O940   Zn958   1.947   .     S
O940   Zn957   1.965   .     S
O941   Zn958   1.924   .     S
O942   Zn960   1.937   .     S
O943   Zn959   1.930   .     S
O944   Zn957   1.919   .     S
O946   C1935   1.383   .     S
O949   Zn957   1.932   .     S
O950   Zn960   1.936   .     S
O951   Zn958   1.933   .     S
O952   Zn959   1.946   .     S
O953   Zn960   1.942   .     S
O954   Zn957   1.931   .     S
O955   Zn958   1.941   .     S
O956   Zn959   1.933   .     S
C961   O1073   1.263   .     A
C961   C967    1.435   .     S
C961   O1071   1.270   .     A
C962   O1067   1.386   .     S
C962   C976    1.400   .     A
C962   C1002   1.401   .     A
C963   O1065   1.383   .     S
C963   C976    1.407   .     A
C963   C975    1.404   .     A
C964   O1072   1.296   .     A
C964   C966    1.461   .     S
C964   O1074   1.266   .     A
C965   C977    1.399   .     A
C965   C974    1.479   .     S
C965   C1001   1.419   .     A
C966   C727    1.359   1_655 S
C966   H810    1.088   1_655 S
C968   C971    1.462   .     S
C968   C249    1.367   1_565 S
C968   C265    1.531   1_565 S
C969   C970    1.427   .     S
C970   O1069   1.274   .     A
C970   O1075   1.272   .     A
C971   O1070   1.265   .     A
C971   O1076   1.277   .     A
C972   H1028   1.080   .     S
C972   C977    1.385   .     A
C972   C2063   1.407   .     S
C973   O1063   1.277   .     A
C973   O1061   1.274   .     A
C973   C976    1.451   .     S
C974   O1062   1.288   .     A
C974   O1064   1.285   .     A
C975   C2083   1.407   1_554 S
C975   O2146   1.383   1_554 S
C977   H1017   1.083   .     S
C978   H1056   1.109   .     S
C978   C979    1.539   .     S
C978   H1057   1.115   .     S
C978   O1065   1.421   .     S
C979   C740    1.526   1_655 S
C979   H818    1.110   1_655 S
C979   H2139   1.109   1_554 S
C980   H1009   1.109   .     S
C980   H2088   1.110   1_554 S
C981   H1015   1.112   .     S
C981   H1016   1.112   .     S
C981   C727    1.535   1_655 S
C981   C742    1.541   1_655 S
C982   H1014   1.111   .     S
C982   H1013   1.111   .     S
C983   O1068   1.395   .     S
C983   C2052   1.407   1_554 S
C983   C2074   1.427   1_554 S
C984   H1012   1.110   .     S
C984   H1011   1.111   .     S
C984   H1010   1.111   .     S
C984   C742    1.528   1_655 S
C985   C986    1.535   .     S
C985   H1024   1.111   .     S
C986   C987    1.526   .     S
C986   H1021   1.111   .     S
C987   H1020   1.111   .     S
C987   H1018   1.111   .     S
C987   H1019   1.111   .     S
C988   H1032   1.112   .     S
C988   H1031   1.112   .     S
C988   C249    1.536   1_565 S
C988   C269    1.541   1_565 S
C989   H1029   1.112   .     S
C989   C990    1.527   .     S
C989   H1030   1.111   .     S
C990   H1027   1.109   .     S
C991   C992    1.528   .     S
C991   H1033   1.115   .     S
C991   O1066   1.412   .     S
C991   H2114   1.115   .     S
C992   H1035   1.112   .     S
C992   H1036   1.112   .     S
C993   H1038   1.110   .     S
C993   H1040   1.111   .     S
C993   C272    1.527   1_565 S
C993   H2117   1.111   .     S
C994   C1001   1.422   .     A
C994   C2063   1.427   .     S
C994   C2082   1.421   .     S
C995   H1041   1.111   .     S
C995   H1042   1.115   .     S
C995   C996    1.530   .     S
C995   O1067   1.419   .     S
C996   C997    1.527   .     S
C996   H1044   1.110   .     S
C996   H1043   1.107   .     S
C997   H1045   1.111   .     S
C997   H1046   1.110   .     S
C997   H1047   1.110   .     S
C998   H1049   1.115   .     S
C998   C999    1.532   .     S
C998   H1048   1.111   .     S
C998   O1068   1.418   .     S
C999   H1051   1.112   .     S
C999   C1000   1.526   .     S
C999   H1052   1.109   .     S
C1000  H1053   1.111   .     S
C1000  H1055   1.111   .     S
C1000  H334    1.111   1_565 S
C1001  C1005   1.416   .     A
C1002  C2074   1.421   1_554 S
C1002  C2083   1.414   1_554 S
C1003  C1004   1.391   .     A
C1003  C2082   1.414   .     S
C1003  C2055   1.407   .     S
C1004  H1006   1.083   .     S
C1004  C1005   1.387   .     A
C1005  H1039   1.078   .     S
H1007  C740    1.111   1_655 S
H1008  C2060   1.110   .     S
H1022  C266    1.112   1_565 S
H1023  C265    1.112   1_565 S
H1025  C270    1.111   1_565 S
H1026  C270    1.111   1_565 S
H1034  C2071   1.115   1_554 S
H1037  C2073   1.111   1_554 S
H1059  C2059   1.109   .     S
O1060  Zn1080  1.930   .     S
O1060  Zn1079  1.935   .     S
O1060  Zn1078  1.947   .     S
O1060  Zn1077  1.965   .     S
O1061  Zn1078  1.924   .     S
O1062  Zn1080  1.937   .     S
O1063  Zn1079  1.930   .     S
O1064  Zn1077  1.919   .     S
O1066  C2055   1.383   .     S
O1069  Zn1077  1.932   .     S
O1070  Zn1080  1.936   .     S
O1071  Zn1078  1.933   .     S
O1072  Zn1079  1.946   .     S
O1073  Zn1080  1.942   .     S
O1074  Zn1077  1.931   .     S
O1075  Zn1078  1.941   .     S
O1076  Zn1079  1.933   .     S
C1081  O1193   1.263   .     A
C1081  C1087   1.435   .     S
C1081  O1191   1.270   .     A
C1082  O1187   1.386   .     S
C1082  C1096   1.400   .     A
C1082  C1122   1.401   .     A
C1083  O1185   1.383   .     S
C1083  C1096   1.407   .     A
C1083  C1095   1.404   .     A
C1084  O1192   1.296   .     A
C1084  C1086   1.461   .     S
C1084  O1194   1.266   .     A
C1085  C1097   1.399   .     A
C1085  C1094   1.479   .     S
C1085  C1121   1.419   .     A
C1086  C1207   1.359   .     S
C1086  H1290   1.088   .     S
C1087  C1326   1.359   1_455 S
C1087  C1341   1.535   1_455 S
C1088  C1091   1.462   .     S
C1088  C1449   1.367   .     S
C1088  C1465   1.531   .     S
C1089  C1090   1.427   .     S
C1089  C1808   1.367   1_545 S
C1089  C1828   1.536   1_545 S
C1090  O1189   1.274   .     A
C1090  O1195   1.272   .     A
C1091  O1190   1.265   .     A
C1091  O1196   1.277   .     A
C1092  H1148   1.080   .     S
C1092  C1097   1.385   .     A
C1092  C23     1.407   1_556 S
C1093  O1183   1.277   .     A
C1093  O1181   1.274   .     A
C1093  C1096   1.451   .     S
C1094  O1182   1.288   .     A
C1094  O1184   1.285   .     A
C1097  H1137   1.083   .     S
C1098  H1176   1.109   .     S
C1098  C1099   1.539   .     S
C1098  H1177   1.115   .     S
C1098  O1185   1.421   .     S
C1099  C1220   1.526   .     S
C1099  H1298   1.110   .     S
C1100  H1129   1.109   .     S
C1100  C1339   1.526   1_455 S
C1100  H1367   1.111   1_455 S
C1101  H1135   1.112   .     S
C1101  H1136   1.112   .     S
C1101  C1207   1.535   .     S
C1101  C1222   1.541   .     S
C1102  H1134   1.111   .     S
C1102  H1133   1.111   .     S
C1102  C1341   1.541   1_455 S
C1102  C1344   1.528   1_455 S
C1103  O1188   1.395   .     S
C1104  H1132   1.110   .     S
C1104  H1131   1.111   .     S
C1104  H1130   1.111   .     S
C1104  C1222   1.528   .     S
C1105  C1106   1.535   .     S
C1105  H1144   1.111   .     S
C1105  C1808   1.531   1_545 S
C1105  H1863   1.112   1_545 S
C1106  C1107   1.526   .     S
C1106  H1141   1.111   .     S
C1106  H1862   1.112   1_545 S
C1107  H1140   1.111   .     S
C1107  H1138   1.111   .     S
C1107  H1139   1.111   .     S
C1108  H1152   1.112   .     S
C1108  H1151   1.112   .     S
C1108  C1449   1.536   .     S
C1108  C1469   1.541   .     S
C1109  H1149   1.112   .     S
C1109  C1110   1.527   .     S
C1109  H1150   1.111   .     S
C1109  C1828   1.541   1_545 S
C1110  H1147   1.109   .     S
C1110  H1865   1.111   1_545 S
C1110  H1866   1.111   1_545 S
C1111  C1112   1.528   .     S
C1111  H1153   1.115   .     S
C1111  O1186   1.412   .     S
C1111  H74     1.115   1_556 S
C1112  H1155   1.112   .     S
C1112  H1156   1.112   .     S
C1112  C1833   1.527   1_545 S
C1113  H1158   1.110   .     S
C1113  H1160   1.111   .     S
C1113  C1472   1.527   .     S
C1113  H77     1.111   1_556 S
C1114  C1121   1.422   .     A
C1114  C23     1.427   1_556 S
C1114  C42     1.421   1_556 S
C1115  H1161   1.111   .     S
C1115  H1162   1.115   .     S
C1115  C1116   1.530   .     S
C1115  O1187   1.419   .     S
C1116  C1117   1.527   .     S
C1116  H1164   1.110   .     S
C1116  H1163   1.107   .     S
C1117  H1165   1.111   .     S
C1117  H1166   1.110   .     S
C1117  H1167   1.110   .     S
C1118  H1169   1.115   .     S
C1118  C1119   1.532   .     S
C1118  H1168   1.111   .     S
C1118  O1188   1.418   .     S
C1119  H1171   1.112   .     S
C1119  C1120   1.526   .     S
C1119  H1172   1.109   .     S
C1120  H1173   1.111   .     S
C1120  H1175   1.111   .     S
C1120  H1534   1.111   .     S
C1121  C1125   1.416   .     A
C1123  C1124   1.391   .     A
C1123  C42     1.414   1_556 S
C1123  C15     1.407   1_556 S
C1124  H1126   1.083   .     S
C1124  C1125   1.387   .     A
C1125  H1159   1.078   .     S
H1127  C1220   1.111   .     S
H1128  C20     1.110   1_556 S
H1142  C1466   1.112   .     S
H1143  C1465   1.112   .     S
H1145  C1470   1.111   .     S
H1146  C1470   1.111   .     S
H1170  C1326   1.088   1_455 S
H1174  C1840   1.111   1_545 S
H1178  C1339   1.110   1_455 S
H1179  C19     1.109   1_556 S
O1180  Zn1200  1.930   .     S
O1180  Zn1199  1.935   .     S
O1180  Zn1198  1.947   .     S
O1180  Zn1197  1.965   .     S
O1181  Zn1198  1.924   .     S
O1182  Zn1200  1.937   .     S
O1183  Zn1199  1.930   .     S
O1184  Zn1197  1.919   .     S
O1186  C15     1.383   1_556 S
O1189  Zn1197  1.932   .     S
O1190  Zn1200  1.936   .     S
O1191  Zn1198  1.933   .     S
O1192  Zn1199  1.946   .     S
O1193  Zn1200  1.942   .     S
O1194  Zn1197  1.931   .     S
O1195  Zn1198  1.941   .     S
O1196  Zn1199  1.933   .     S
C1201  O1313   1.263   .     A
C1201  C1207   1.435   .     S
C1201  O1311   1.270   .     A
C1202  O1307   1.386   .     S
C1202  C1216   1.400   .     A
C1202  C1242   1.401   .     A
C1203  O1305   1.383   .     S
C1203  C1216   1.407   .     A
C1203  C1215   1.404   .     A
C1204  O1312   1.296   .     A
C1204  C1206   1.461   .     S
C1204  O1314   1.266   .     A
C1205  C1217   1.399   .     A
C1205  C1214   1.479   .     S
C1205  C1241   1.419   .     A
C1206  C1327   1.359   .     S
C1206  H1410   1.088   .     S
C1208  C1211   1.462   .     S
C1208  C1569   1.367   .     S
C1208  C1585   1.531   .     S
C1209  C1210   1.427   .     S
C1209  C1928   1.367   1_545 S
C1209  C1948   1.536   1_545 S
C1210  O1309   1.274   .     A
C1210  O1315   1.272   .     A
C1211  O1310   1.265   .     A
C1211  O1316   1.277   .     A
C1212  H1268   1.080   .     S
C1212  C1217   1.385   .     A
C1212  C143    1.407   1_556 S
C1213  O1303   1.277   .     A
C1213  O1301   1.274   .     A
C1213  C1216   1.451   .     S
C1214  O1302   1.288   .     A
C1214  O1304   1.285   .     A
C1217  H1257   1.083   .     S
C1218  H1296   1.109   .     S
C1218  C1219   1.539   .     S
C1218  H1297   1.115   .     S
C1218  O1305   1.421   .     S
C1219  C1340   1.526   .     S
C1219  H1418   1.110   .     S
C1220  H1249   1.109   .     S
C1221  H1255   1.112   .     S
C1221  H1256   1.112   .     S
C1221  C1327   1.535   .     S
C1221  C1342   1.541   .     S
C1222  H1254   1.111   .     S
C1222  H1253   1.111   .     S
C1223  O1308   1.395   .     S
C1224  H1252   1.110   .     S
C1224  H1251   1.111   .     S
C1224  H1250   1.111   .     S
C1224  C1342   1.528   .     S
C1225  C1226   1.535   .     S
C1225  H1264   1.111   .     S
C1225  C1928   1.531   1_545 S
C1225  H1983   1.112   1_545 S
C1226  C1227   1.526   .     S
C1226  H1261   1.111   .     S
C1226  H1982   1.112   1_545 S
C1227  H1260   1.111   .     S
C1227  H1258   1.111   .     S
C1227  H1259   1.111   .     S
C1228  H1272   1.112   .     S
C1228  H1271   1.112   .     S
C1228  C1569   1.536   .     S
C1228  C1589   1.541   .     S
C1229  H1269   1.112   .     S
C1229  C1230   1.527   .     S
C1229  H1270   1.111   .     S
C1229  C1948   1.541   1_545 S
C1230  H1267   1.109   .     S
C1230  H1985   1.111   1_545 S
C1230  H1986   1.111   1_545 S
C1231  C1232   1.528   .     S
C1231  H1273   1.115   .     S
C1231  O1306   1.412   .     S
C1231  H194    1.115   1_556 S
C1232  H1275   1.112   .     S
C1232  H1276   1.112   .     S
C1232  C1953   1.527   1_545 S
C1233  H1278   1.110   .     S
C1233  H1280   1.111   .     S
C1233  C1592   1.527   .     S
C1233  H197    1.111   1_556 S
C1234  C1241   1.422   .     A
C1234  C143    1.427   1_556 S
C1234  C162    1.421   1_556 S
C1235  H1281   1.111   .     S
C1235  H1282   1.115   .     S
C1235  C1236   1.530   .     S
C1235  O1307   1.419   .     S
C1236  C1237   1.527   .     S
C1236  H1284   1.110   .     S
C1236  H1283   1.107   .     S
C1237  H1285   1.111   .     S
C1237  H1286   1.110   .     S
C1237  H1287   1.110   .     S
C1238  H1289   1.115   .     S
C1238  C1239   1.532   .     S
C1238  H1288   1.111   .     S
C1238  O1308   1.418   .     S
C1239  H1291   1.112   .     S
C1239  C1240   1.526   .     S
C1239  H1292   1.109   .     S
C1240  H1293   1.111   .     S
C1240  H1295   1.111   .     S
C1240  H1654   1.111   .     S
C1241  C1245   1.416   .     A
C1243  C1244   1.391   .     A
C1243  C162    1.414   1_556 S
C1243  C135    1.407   1_556 S
C1244  H1246   1.083   .     S
C1244  C1245   1.387   .     A
C1245  H1279   1.078   .     S
H1247  C1340   1.111   .     S
H1248  C140    1.110   1_556 S
H1262  C1586   1.112   .     S
H1263  C1585   1.112   .     S
H1265  C1590   1.111   .     S
H1266  C1590   1.111   .     S
H1294  C1960   1.111   1_545 S
H1299  C139    1.109   1_556 S
O1300  Zn1320  1.930   .     S
O1300  Zn1319  1.935   .     S
O1300  Zn1318  1.947   .     S
O1300  Zn1317  1.965   .     S
O1301  Zn1318  1.924   .     S
O1302  Zn1320  1.937   .     S
O1303  Zn1319  1.930   .     S
O1304  Zn1317  1.919   .     S
O1306  C135    1.383   1_556 S
O1309  Zn1317  1.932   .     S
O1310  Zn1320  1.936   .     S
O1311  Zn1318  1.933   .     S
O1312  Zn1319  1.946   .     S
O1313  Zn1320  1.942   .     S
O1314  Zn1317  1.931   .     S
O1315  Zn1318  1.941   .     S
O1316  Zn1319  1.933   .     S
C1321  O1433   1.263   .     A
C1321  C1327   1.435   .     S
C1321  O1431   1.270   .     A
C1322  O1427   1.386   .     S
C1322  C1336   1.400   .     A
C1322  C1362   1.401   .     A
C1323  O1425   1.383   .     S
C1323  C1336   1.407   .     A
C1323  C1335   1.404   .     A
C1324  O1432   1.296   .     A
C1324  C1326   1.461   .     S
C1324  O1434   1.266   .     A
C1325  C1337   1.399   .     A
C1325  C1334   1.479   .     S
C1325  C1361   1.419   .     A
C1326  C1087   1.359   1_655 S
C1326  H1170   1.088   1_655 S
C1328  C1331   1.462   .     S
C1328  C1689   1.367   .     S
C1328  C1705   1.531   .     S
C1329  C1330   1.427   .     S
C1329  C2048   1.367   1_545 S
C1329  C2068   1.536   1_545 S
C1330  O1429   1.274   .     A
C1330  O1435   1.272   .     A
C1331  O1430   1.265   .     A
C1331  O1436   1.277   .     A
C1332  H1388   1.080   .     S
C1332  C1337   1.385   .     A
C1332  C263    1.407   1_556 S
C1333  O1423   1.277   .     A
C1333  O1421   1.274   .     A
C1333  C1336   1.451   .     S
C1334  O1422   1.288   .     A
C1334  O1424   1.285   .     A
C1337  H1377   1.083   .     S
C1338  H1416   1.109   .     S
C1338  C1339   1.539   .     S
C1338  H1417   1.115   .     S
C1338  O1425   1.421   .     S
C1339  C1100   1.526   1_655 S
C1339  H1178   1.110   1_655 S
C1340  H1369   1.109   .     S
C1341  H1375   1.112   .     S
C1341  H1376   1.112   .     S
C1341  C1087   1.535   1_655 S
C1341  C1102   1.541   1_655 S
C1342  H1374   1.111   .     S
C1342  H1373   1.111   .     S
C1343  O1428   1.395   .     S
C1344  H1372   1.110   .     S
C1344  H1371   1.111   .     S
C1344  H1370   1.111   .     S
C1344  C1102   1.528   1_655 S
C1345  C1346   1.535   .     S
C1345  H1384   1.111   .     S
C1345  C2048   1.531   1_545 S
C1345  H2103   1.112   1_545 S
C1346  C1347   1.526   .     S
C1346  H1381   1.111   .     S
C1346  H2102   1.112   1_545 S
C1347  H1380   1.111   .     S
C1347  H1378   1.111   .     S
C1347  H1379   1.111   .     S
C1348  H1392   1.112   .     S
C1348  H1391   1.112   .     S
C1348  C1689   1.536   .     S
C1348  C1709   1.541   .     S
C1349  H1389   1.112   .     S
C1349  C1350   1.527   .     S
C1349  H1390   1.111   .     S
C1349  C2068   1.541   1_545 S
C1350  H1387   1.109   .     S
C1350  H2105   1.111   1_545 S
C1350  H2106   1.111   1_545 S
C1351  C1352   1.528   .     S
C1351  H1393   1.115   .     S
C1351  O1426   1.412   .     S
C1351  H314    1.115   1_556 S
C1352  H1395   1.112   .     S
C1352  H1396   1.112   .     S
C1352  C2073   1.527   1_545 S
C1353  H1398   1.110   .     S
C1353  H1400   1.111   .     S
C1353  C1712   1.527   .     S
C1353  H317    1.111   1_556 S
C1354  C1361   1.422   .     A
C1354  C263    1.427   1_556 S
C1354  C282    1.421   1_556 S
C1355  H1401   1.111   .     S
C1355  H1402   1.115   .     S
C1355  C1356   1.530   .     S
C1355  O1427   1.419   .     S
C1356  C1357   1.527   .     S
C1356  H1404   1.110   .     S
C1356  H1403   1.107   .     S
C1357  H1405   1.111   .     S
C1357  H1406   1.110   .     S
C1357  H1407   1.110   .     S
C1358  H1409   1.115   .     S
C1358  C1359   1.532   .     S
C1358  H1408   1.111   .     S
C1358  O1428   1.418   .     S
C1359  H1411   1.112   .     S
C1359  C1360   1.526   .     S
C1359  H1412   1.109   .     S
C1360  H1413   1.111   .     S
C1360  H1415   1.111   .     S
C1360  H1774   1.111   .     S
C1361  C1365   1.416   .     A
C1363  C1364   1.391   .     A
C1363  C282    1.414   1_556 S
C1363  C255    1.407   1_556 S
C1364  H1366   1.083   .     S
C1364  C1365   1.387   .     A
C1365  H1399   1.078   .     S
H1367  C1100   1.111   1_655 S
H1368  C260    1.110   1_556 S
H1382  C1706   1.112   .     S
H1383  C1705   1.112   .     S
H1385  C1710   1.111   .     S
H1386  C1710   1.111   .     S
H1414  C2080   1.111   1_545 S
H1419  C259    1.109   1_556 S
O1420  Zn1440  1.930   .     S
O1420  Zn1439  1.935   .     S
O1420  Zn1438  1.947   .     S
O1420  Zn1437  1.965   .     S
O1421  Zn1438  1.924   .     S
O1422  Zn1440  1.937   .     S
O1423  Zn1439  1.930   .     S
O1424  Zn1437  1.919   .     S
O1426  C255    1.383   1_556 S
O1429  Zn1437  1.932   .     S
O1430  Zn1440  1.936   .     S
O1431  Zn1438  1.933   .     S
O1432  Zn1439  1.946   .     S
O1433  Zn1440  1.942   .     S
O1434  Zn1437  1.931   .     S
O1435  Zn1438  1.941   .     S
O1436  Zn1439  1.933   .     S
C1441  O1553   1.263   .     A
C1441  C1447   1.435   .     S
C1441  O1551   1.270   .     A
C1442  O1547   1.386   .     S
C1442  C1456   1.400   .     A
C1442  C1482   1.401   .     A
C1443  O1545   1.383   .     S
C1443  C1456   1.407   .     A
C1443  C1455   1.404   .     A
C1444  O1552   1.296   .     A
C1444  C1446   1.461   .     S
C1444  O1554   1.266   .     A
C1445  C1457   1.399   .     A
C1445  C1454   1.479   .     S
C1445  C1481   1.419   .     A
C1446  C1567   1.359   .     S
C1446  H1650   1.088   .     S
C1447  C1686   1.359   1_455 S
C1447  C1701   1.535   1_455 S
C1448  C1451   1.462   .     S
C1448  C1809   1.367   .     S
C1448  C1825   1.531   .     S
C1449  C1450   1.427   .     S
C1450  O1549   1.274   .     A
C1450  O1555   1.272   .     A
C1451  O1550   1.265   .     A
C1451  O1556   1.277   .     A
C1452  H1508   1.080   .     S
C1452  C1457   1.385   .     A
C1452  C383    1.407   1_556 S
C1453  O1543   1.277   .     A
C1453  O1541   1.274   .     A
C1453  C1456   1.451   .     S
C1454  O1542   1.288   .     A
C1454  O1544   1.285   .     A
C1457  H1497   1.083   .     S
C1458  H1536   1.109   .     S
C1458  C1459   1.539   .     S
C1458  H1537   1.115   .     S
C1458  O1545   1.421   .     S
C1459  C1580   1.526   .     S
C1459  H1658   1.110   .     S
C1460  H1489   1.109   .     S
C1460  C1699   1.526   1_455 S
C1460  H1727   1.111   1_455 S
C1461  H1495   1.112   .     S
C1461  H1496   1.112   .     S
C1461  C1567   1.535   .     S
C1461  C1582   1.541   .     S
C1462  H1494   1.111   .     S
C1462  H1493   1.111   .     S
C1462  C1701   1.541   1_455 S
C1462  C1704   1.528   1_455 S
C1463  O1548   1.395   .     S
C1464  H1492   1.110   .     S
C1464  H1491   1.111   .     S
C1464  H1490   1.111   .     S
C1464  C1582   1.528   .     S
C1465  C1466   1.535   .     S
C1465  H1504   1.111   .     S
C1466  C1467   1.526   .     S
C1466  H1501   1.111   .     S
C1467  H1500   1.111   .     S
C1467  H1498   1.111   .     S
C1467  H1499   1.111   .     S
C1468  H1512   1.112   .     S
C1468  H1511   1.112   .     S
C1468  C1809   1.536   .     S
C1468  C1829   1.541   .     S
C1469  H1509   1.112   .     S
C1469  C1470   1.527   .     S
C1469  H1510   1.111   .     S
C1470  H1507   1.109   .     S
C1471  C1472   1.528   .     S
C1471  H1513   1.115   .     S
C1471  O1546   1.412   .     S
C1471  H434    1.115   1_556 S
C1472  H1515   1.112   .     S
C1472  H1516   1.112   .     S
C1473  H1518   1.110   .     S
C1473  H1520   1.111   .     S
C1473  C1832   1.527   .     S
C1473  H437    1.111   1_556 S
C1474  C1481   1.422   .     A
C1474  C383    1.427   1_556 S
C1474  C402    1.421   1_556 S
C1475  H1521   1.111   .     S
C1475  H1522   1.115   .     S
C1475  C1476   1.530   .     S
C1475  O1547   1.419   .     S
C1476  C1477   1.527   .     S
C1476  H1524   1.110   .     S
C1476  H1523   1.107   .     S
C1477  H1525   1.111   .     S
C1477  H1526   1.110   .     S
C1477  H1527   1.110   .     S
C1478  H1529   1.115   .     S
C1478  C1479   1.532   .     S
C1478  H1528   1.111   .     S
C1478  O1548   1.418   .     S
C1479  H1531   1.112   .     S
C1479  C1480   1.526   .     S
C1479  H1532   1.109   .     S
C1480  H1533   1.111   .     S
C1480  H1535   1.111   .     S
C1480  H1894   1.111   .     S
C1481  C1485   1.416   .     A
C1483  C1484   1.391   .     A
C1483  C402    1.414   1_556 S
C1483  C375    1.407   1_556 S
C1484  H1486   1.083   .     S
C1484  C1485   1.387   .     A
C1485  H1519   1.078   .     S
H1487  C1580   1.111   .     S
H1488  C380    1.110   1_556 S
H1502  C1826   1.112   .     S
H1503  C1825   1.112   .     S
H1505  C1830   1.111   .     S
H1506  C1830   1.111   .     S
H1530  C1686   1.088   1_455 S
H1538  C1699   1.110   1_455 S
H1539  C379    1.109   1_556 S
O1540  Zn1560  1.930   .     S
O1540  Zn1559  1.935   .     S
O1540  Zn1558  1.947   .     S
O1540  Zn1557  1.965   .     S
O1541  Zn1558  1.924   .     S
O1542  Zn1560  1.937   .     S
O1543  Zn1559  1.930   .     S
O1544  Zn1557  1.919   .     S
O1546  C375    1.383   1_556 S
O1549  Zn1557  1.932   .     S
O1550  Zn1560  1.936   .     S
O1551  Zn1558  1.933   .     S
O1552  Zn1559  1.946   .     S
O1553  Zn1560  1.942   .     S
O1554  Zn1557  1.931   .     S
O1555  Zn1558  1.941   .     S
O1556  Zn1559  1.933   .     S
C1561  O1673   1.263   .     A
C1561  C1567   1.435   .     S
C1561  O1671   1.270   .     A
C1562  O1667   1.386   .     S
C1562  C1576   1.400   .     A
C1562  C1602   1.401   .     A
C1563  O1665   1.383   .     S
C1563  C1576   1.407   .     A
C1563  C1575   1.404   .     A
C1564  O1672   1.296   .     A
C1564  C1566   1.461   .     S
C1564  O1674   1.266   .     A
C1565  C1577   1.399   .     A
C1565  C1574   1.479   .     S
C1565  C1601   1.419   .     A
C1566  C1687   1.359   .     S
C1566  H1770   1.088   .     S
C1568  C1571   1.462   .     S
C1568  C1929   1.367   .     S
C1568  C1945   1.531   .     S
C1569  C1570   1.427   .     S
C1570  O1669   1.274   .     A
C1570  O1675   1.272   .     A
C1571  O1670   1.265   .     A
C1571  O1676   1.277   .     A
C1572  H1628   1.080   .     S
C1572  C1577   1.385   .     A
C1572  C503    1.407   1_556 S
C1573  O1663   1.277   .     A
C1573  O1661   1.274   .     A
C1573  C1576   1.451   .     S
C1574  O1662   1.288   .     A
C1574  O1664   1.285   .     A
C1577  H1617   1.083   .     S
C1578  H1656   1.109   .     S
C1578  C1579   1.539   .     S
C1578  H1657   1.115   .     S
C1578  O1665   1.421   .     S
C1579  C1700   1.526   .     S
C1579  H1778   1.110   .     S
C1580  H1609   1.109   .     S
C1581  H1615   1.112   .     S
C1581  H1616   1.112   .     S
C1581  C1687   1.535   .     S
C1581  C1702   1.541   .     S
C1582  H1614   1.111   .     S
C1582  H1613   1.111   .     S
C1583  O1668   1.395   .     S
C1584  H1612   1.110   .     S
C1584  H1611   1.111   .     S
C1584  H1610   1.111   .     S
C1584  C1702   1.528   .     S
C1585  C1586   1.535   .     S
C1585  H1624   1.111   .     S
C1586  C1587   1.526   .     S
C1586  H1621   1.111   .     S
C1587  H1620   1.111   .     S
C1587  H1618   1.111   .     S
C1587  H1619   1.111   .     S
C1588  H1632   1.112   .     S
C1588  H1631   1.112   .     S
C1588  C1929   1.536   .     S
C1588  C1949   1.541   .     S
C1589  H1629   1.112   .     S
C1589  C1590   1.527   .     S
C1589  H1630   1.111   .     S
C1590  H1627   1.109   .     S
C1591  C1592   1.528   .     S
C1591  H1633   1.115   .     S
C1591  O1666   1.412   .     S
C1591  H554    1.115   1_556 S
C1592  H1635   1.112   .     S
C1592  H1636   1.112   .     S
C1593  H1638   1.110   .     S
C1593  H1640   1.111   .     S
C1593  C1952   1.527   .     S
C1593  H557    1.111   1_556 S
C1594  C1601   1.422   .     A
C1594  C503    1.427   1_556 S
C1594  C522    1.421   1_556 S
C1595  H1641   1.111   .     S
C1595  H1642   1.115   .     S
C1595  C1596   1.530   .     S
C1595  O1667   1.419   .     S
C1596  C1597   1.527   .     S
C1596  H1644   1.110   .     S
C1596  H1643   1.107   .     S
C1597  H1645   1.111   .     S
C1597  H1646   1.110   .     S
C1597  H1647   1.110   .     S
C1598  H1649   1.115   .     S
C1598  C1599   1.532   .     S
C1598  H1648   1.111   .     S
C1598  O1668   1.418   .     S
C1599  H1651   1.112   .     S
C1599  C1600   1.526   .     S
C1599  H1652   1.109   .     S
C1600  H1653   1.111   .     S
C1600  H1655   1.111   .     S
C1600  H2014   1.111   .     S
C1601  C1605   1.416   .     A
C1603  C1604   1.391   .     A
C1603  C522    1.414   1_556 S
C1603  C495    1.407   1_556 S
C1604  H1606   1.083   .     S
C1604  C1605   1.387   .     A
C1605  H1639   1.078   .     S
H1607  C1700   1.111   .     S
H1608  C500    1.110   1_556 S
H1622  C1946   1.112   .     S
H1623  C1945   1.112   .     S
H1625  C1950   1.111   .     S
H1626  C1950   1.111   .     S
H1659  C499    1.109   1_556 S
O1660  Zn1680  1.930   .     S
O1660  Zn1679  1.935   .     S
O1660  Zn1678  1.947   .     S
O1660  Zn1677  1.965   .     S
O1661  Zn1678  1.924   .     S
O1662  Zn1680  1.937   .     S
O1663  Zn1679  1.930   .     S
O1664  Zn1677  1.919   .     S
O1666  C495    1.383   1_556 S
O1669  Zn1677  1.932   .     S
O1670  Zn1680  1.936   .     S
O1671  Zn1678  1.933   .     S
O1672  Zn1679  1.946   .     S
O1673  Zn1680  1.942   .     S
O1674  Zn1677  1.931   .     S
O1675  Zn1678  1.941   .     S
O1676  Zn1679  1.933   .     S
C1681  O1793   1.263   .     A
C1681  C1687   1.435   .     S
C1681  O1791   1.270   .     A
C1682  O1787   1.386   .     S
C1682  C1696   1.400   .     A
C1682  C1722   1.401   .     A
C1683  O1785   1.383   .     S
C1683  C1696   1.407   .     A
C1683  C1695   1.404   .     A
C1684  O1792   1.296   .     A
C1684  C1686   1.461   .     S
C1684  O1794   1.266   .     A
C1685  C1697   1.399   .     A
C1685  C1694   1.479   .     S
C1685  C1721   1.419   .     A
C1686  C1447   1.359   1_655 S
C1686  H1530   1.088   1_655 S
C1688  C1691   1.462   .     S
C1688  C2049   1.367   .     S
C1688  C2065   1.531   .     S
C1689  C1690   1.427   .     S
C1690  O1789   1.274   .     A
C1690  O1795   1.272   .     A
C1691  O1790   1.265   .     A
C1691  O1796   1.277   .     A
C1692  H1748   1.080   .     S
C1692  C1697   1.385   .     A
C1692  C623    1.407   1_556 S
C1693  O1783   1.277   .     A
C1693  O1781   1.274   .     A
C1693  C1696   1.451   .     S
C1694  O1782   1.288   .     A
C1694  O1784   1.285   .     A
C1697  H1737   1.083   .     S
C1698  H1776   1.109   .     S
C1698  C1699   1.539   .     S
C1698  H1777   1.115   .     S
C1698  O1785   1.421   .     S
C1699  C1460   1.526   1_655 S
C1699  H1538   1.110   1_655 S
C1700  H1729   1.109   .     S
C1701  H1735   1.112   .     S
C1701  H1736   1.112   .     S
C1701  C1447   1.535   1_655 S
C1701  C1462   1.541   1_655 S
C1702  H1734   1.111   .     S
C1702  H1733   1.111   .     S
C1703  O1788   1.395   .     S
C1704  H1732   1.110   .     S
C1704  H1731   1.111   .     S
C1704  H1730   1.111   .     S
C1704  C1462   1.528   1_655 S
C1705  C1706   1.535   .     S
C1705  H1744   1.111   .     S
C1706  C1707   1.526   .     S
C1706  H1741   1.111   .     S
C1707  H1740   1.111   .     S
C1707  H1738   1.111   .     S
C1707  H1739   1.111   .     S
C1708  H1752   1.112   .     S
C1708  H1751   1.112   .     S
C1708  C2049   1.536   .     S
C1708  C2069   1.541   .     S
C1709  H1749   1.112   .     S
C1709  C1710   1.527   .     S
C1709  H1750   1.111   .     S
C1710  H1747   1.109   .     S
C1711  C1712   1.528   .     S
C1711  H1753   1.115   .     S
C1711  O1786   1.412   .     S
C1711  H674    1.115   1_556 S
C1712  H1755   1.112   .     S
C1712  H1756   1.112   .     S
C1713  H1758   1.110   .     S
C1713  H1760   1.111   .     S
C1713  C2072   1.527   .     S
C1713  H677    1.111   1_556 S
C1714  C1721   1.422   .     A
C1714  C623    1.427   1_556 S
C1714  C642    1.421   1_556 S
C1715  H1761   1.111   .     S
C1715  H1762   1.115   .     S
C1715  C1716   1.530   .     S
C1715  O1787   1.419   .     S
C1716  C1717   1.527   .     S
C1716  H1764   1.110   .     S
C1716  H1763   1.107   .     S
C1717  H1765   1.111   .     S
C1717  H1766   1.110   .     S
C1717  H1767   1.110   .     S
C1718  H1769   1.115   .     S
C1718  C1719   1.532   .     S
C1718  H1768   1.111   .     S
C1718  O1788   1.418   .     S
C1719  H1771   1.112   .     S
C1719  C1720   1.526   .     S
C1719  H1772   1.109   .     S
C1720  H1773   1.111   .     S
C1720  H1775   1.111   .     S
C1720  H2134   1.111   .     S
C1721  C1725   1.416   .     A
C1723  C1724   1.391   .     A
C1723  C642    1.414   1_556 S
C1723  C615    1.407   1_556 S
C1724  H1726   1.083   .     S
C1724  C1725   1.387   .     A
C1725  H1759   1.078   .     S
H1727  C1460   1.111   1_655 S
H1728  C620    1.110   1_556 S
H1742  C2066   1.112   .     S
H1743  C2065   1.112   .     S
H1745  C2070   1.111   .     S
H1746  C2070   1.111   .     S
H1779  C619    1.109   1_556 S
O1780  Zn1800  1.930   .     S
O1780  Zn1799  1.935   .     S
O1780  Zn1798  1.947   .     S
O1780  Zn1797  1.965   .     S
O1781  Zn1798  1.924   .     S
O1782  Zn1800  1.937   .     S
O1783  Zn1799  1.930   .     S
O1784  Zn1797  1.919   .     S
O1786  C615    1.383   1_556 S
O1789  Zn1797  1.932   .     S
O1790  Zn1800  1.936   .     S
O1791  Zn1798  1.933   .     S
O1792  Zn1799  1.946   .     S
O1793  Zn1800  1.942   .     S
O1794  Zn1797  1.931   .     S
O1795  Zn1798  1.941   .     S
O1796  Zn1799  1.933   .     S
C1801  O1913   1.263   .     A
C1801  C1807   1.435   .     S
C1801  O1911   1.270   .     A
C1802  O1907   1.386   .     S
C1802  C1816   1.400   .     A
C1802  C1842   1.401   .     A
C1803  O1905   1.383   .     S
C1803  C1816   1.407   .     A
C1803  C1815   1.404   .     A
C1804  O1912   1.296   .     A
C1804  C1806   1.461   .     S
C1804  O1914   1.266   .     A
C1805  C1817   1.399   .     A
C1805  C1814   1.479   .     S
C1805  C1841   1.419   .     A
C1806  C1927   1.359   .     S
C1806  H2010   1.088   .     S
C1807  C2046   1.359   1_455 S
C1807  C2061   1.535   1_455 S
C1808  C1811   1.462   .     S
C1808  C1089   1.367   1_565 S
C1808  C1105   1.531   1_565 S
C1809  C1810   1.427   .     S
C1810  O1909   1.274   .     A
C1810  O1915   1.272   .     A
C1811  O1910   1.265   .     A
C1811  O1916   1.277   .     A
C1812  H1868   1.080   .     S
C1812  C1817   1.385   .     A
C1812  C743    1.407   1_556 S
C1813  O1903   1.277   .     A
C1813  O1901   1.274   .     A
C1813  C1816   1.451   .     S
C1814  O1902   1.288   .     A
C1814  O1904   1.285   .     A
C1817  H1857   1.083   .     S
C1818  H1896   1.109   .     S
C1818  C1819   1.539   .     S
C1818  H1897   1.115   .     S
C1818  O1905   1.421   .     S
C1819  C1940   1.526   .     S
C1819  H2018   1.110   .     S
C1820  H1849   1.109   .     S
C1820  C2059   1.526   1_455 S
C1820  H2087   1.111   1_455 S
C1821  H1855   1.112   .     S
C1821  H1856   1.112   .     S
C1821  C1927   1.535   .     S
C1821  C1942   1.541   .     S
C1822  H1854   1.111   .     S
C1822  H1853   1.111   .     S
C1822  C2061   1.541   1_455 S
C1822  C2064   1.528   1_455 S
C1823  O1908   1.395   .     S
C1824  H1852   1.110   .     S
C1824  H1851   1.111   .     S
C1824  H1850   1.111   .     S
C1824  C1942   1.528   .     S
C1825  C1826   1.535   .     S
C1825  H1864   1.111   .     S
C1826  C1827   1.526   .     S
C1826  H1861   1.111   .     S
C1827  H1860   1.111   .     S
C1827  H1858   1.111   .     S
C1827  H1859   1.111   .     S
C1828  H1872   1.112   .     S
C1828  H1871   1.112   .     S
C1828  C1089   1.536   1_565 S
C1828  C1109   1.541   1_565 S
C1829  H1869   1.112   .     S
C1829  C1830   1.527   .     S
C1829  H1870   1.111   .     S
C1830  H1867   1.109   .     S
C1831  C1832   1.528   .     S
C1831  H1873   1.115   .     S
C1831  O1906   1.412   .     S
C1831  H794    1.115   1_556 S
C1832  H1875   1.112   .     S
C1832  H1876   1.112   .     S
C1833  H1878   1.110   .     S
C1833  H1880   1.111   .     S
C1833  C1112   1.527   1_565 S
C1833  H797    1.111   1_556 S
C1834  C1841   1.422   .     A
C1834  C743    1.427   1_556 S
C1834  C762    1.421   1_556 S
C1835  H1881   1.111   .     S
C1835  H1882   1.115   .     S
C1835  C1836   1.530   .     S
C1835  O1907   1.419   .     S
C1836  C1837   1.527   .     S
C1836  H1884   1.110   .     S
C1836  H1883   1.107   .     S
C1837  H1885   1.111   .     S
C1837  H1886   1.110   .     S
C1837  H1887   1.110   .     S
C1838  H1889   1.115   .     S
C1838  C1839   1.532   .     S
C1838  H1888   1.111   .     S
C1838  O1908   1.418   .     S
C1839  H1891   1.112   .     S
C1839  C1840   1.526   .     S
C1839  H1892   1.109   .     S
C1840  H1893   1.111   .     S
C1840  H1895   1.111   .     S
C1840  H1174   1.111   1_565 S
C1841  C1845   1.416   .     A
C1843  C1844   1.391   .     A
C1843  C762    1.414   1_556 S
C1843  C735    1.407   1_556 S
C1844  H1846   1.083   .     S
C1844  C1845   1.387   .     A
C1845  H1879   1.078   .     S
H1847  C1940   1.111   .     S
H1848  C740    1.110   1_556 S
H1862  C1106   1.112   1_565 S
H1863  C1105   1.112   1_565 S
H1865  C1110   1.111   1_565 S
H1866  C1110   1.111   1_565 S
H1890  C2046   1.088   1_455 S
H1898  C2059   1.110   1_455 S
H1899  C739    1.109   1_556 S
O1900  Zn1920  1.930   .     S
O1900  Zn1919  1.935   .     S
O1900  Zn1918  1.947   .     S
O1900  Zn1917  1.965   .     S
O1901  Zn1918  1.924   .     S
O1902  Zn1920  1.937   .     S
O1903  Zn1919  1.930   .     S
O1904  Zn1917  1.919   .     S
O1906  C735    1.383   1_556 S
O1909  Zn1917  1.932   .     S
O1910  Zn1920  1.936   .     S
O1911  Zn1918  1.933   .     S
O1912  Zn1919  1.946   .     S
O1913  Zn1920  1.942   .     S
O1914  Zn1917  1.931   .     S
O1915  Zn1918  1.941   .     S
O1916  Zn1919  1.933   .     S
C1921  O2033   1.263   .     A
C1921  C1927   1.435   .     S
C1921  O2031   1.270   .     A
C1922  O2027   1.386   .     S
C1922  C1936   1.400   .     A
C1922  C1962   1.401   .     A
C1923  O2025   1.383   .     S
C1923  C1936   1.407   .     A
C1923  C1935   1.404   .     A
C1924  O2032   1.296   .     A
C1924  C1926   1.461   .     S
C1924  O2034   1.266   .     A
C1925  C1937   1.399   .     A
C1925  C1934   1.479   .     S
C1925  C1961   1.419   .     A
C1926  C2047   1.359   .     S
C1926  H2130   1.088   .     S
C1928  C1931   1.462   .     S
C1928  C1209   1.367   1_565 S
C1928  C1225   1.531   1_565 S
C1929  C1930   1.427   .     S
C1930  O2029   1.274   .     A
C1930  O2035   1.272   .     A
C1931  O2030   1.265   .     A
C1931  O2036   1.277   .     A
C1932  H1988   1.080   .     S
C1932  C1937   1.385   .     A
C1932  C863    1.407   1_556 S
C1933  O2023   1.277   .     A
C1933  O2021   1.274   .     A
C1933  C1936   1.451   .     S
C1934  O2022   1.288   .     A
C1934  O2024   1.285   .     A
C1937  H1977   1.083   .     S
C1938  H2016   1.109   .     S
C1938  C1939   1.539   .     S
C1938  H2017   1.115   .     S
C1938  O2025   1.421   .     S
C1939  C2060   1.526   .     S
C1939  H2138   1.110   .     S
C1940  H1969   1.109   .     S
C1941  H1975   1.112   .     S
C1941  H1976   1.112   .     S
C1941  C2047   1.535   .     S
C1941  C2062   1.541   .     S
C1942  H1974   1.111   .     S
C1942  H1973   1.111   .     S
C1943  O2028   1.395   .     S
C1944  H1972   1.110   .     S
C1944  H1971   1.111   .     S
C1944  H1970   1.111   .     S
C1944  C2062   1.528   .     S
C1945  C1946   1.535   .     S
C1945  H1984   1.111   .     S
C1946  C1947   1.526   .     S
C1946  H1981   1.111   .     S
C1947  H1980   1.111   .     S
C1947  H1978   1.111   .     S
C1947  H1979   1.111   .     S
C1948  H1992   1.112   .     S
C1948  H1991   1.112   .     S
C1948  C1209   1.536   1_565 S
C1948  C1229   1.541   1_565 S
C1949  H1989   1.112   .     S
C1949  C1950   1.527   .     S
C1949  H1990   1.111   .     S
C1950  H1987   1.109   .     S
C1951  C1952   1.528   .     S
C1951  H1993   1.115   .     S
C1951  O2026   1.412   .     S
C1951  H914    1.115   1_556 S
C1952  H1995   1.112   .     S
C1952  H1996   1.112   .     S
C1953  H1998   1.110   .     S
C1953  H2000   1.111   .     S
C1953  C1232   1.527   1_565 S
C1953  H917    1.111   1_556 S
C1954  C1961   1.422   .     A
C1954  C863    1.427   1_556 S
C1954  C882    1.421   1_556 S
C1955  H2001   1.111   .     S
C1955  H2002   1.115   .     S
C1955  C1956   1.530   .     S
C1955  O2027   1.419   .     S
C1956  C1957   1.527   .     S
C1956  H2004   1.110   .     S
C1956  H2003   1.107   .     S
C1957  H2005   1.111   .     S
C1957  H2006   1.110   .     S
C1957  H2007   1.110   .     S
C1958  H2009   1.115   .     S
C1958  C1959   1.532   .     S
C1958  H2008   1.111   .     S
C1958  O2028   1.418   .     S
C1959  H2011   1.112   .     S
C1959  C1960   1.526   .     S
C1959  H2012   1.109   .     S
C1960  H2013   1.111   .     S
C1960  H2015   1.111   .     S
C1960  H1294   1.111   1_565 S
C1961  C1965   1.416   .     A
C1963  C1964   1.391   .     A
C1963  C882    1.414   1_556 S
C1963  C855    1.407   1_556 S
C1964  H1966   1.083   .     S
C1964  C1965   1.387   .     A
C1965  H1999   1.078   .     S
H1967  C2060   1.111   .     S
H1968  C860    1.110   1_556 S
H1982  C1226   1.112   1_565 S
H1983  C1225   1.112   1_565 S
H1985  C1230   1.111   1_565 S
H1986  C1230   1.111   1_565 S
H2019  C859    1.109   1_556 S
O2020  Zn2040  1.930   .     S
O2020  Zn2039  1.935   .     S
O2020  Zn2038  1.947   .     S
O2020  Zn2037  1.965   .     S
O2021  Zn2038  1.924   .     S
O2022  Zn2040  1.937   .     S
O2023  Zn2039  1.930   .     S
O2024  Zn2037  1.919   .     S
O2026  C855    1.383   1_556 S
O2029  Zn2037  1.932   .     S
O2030  Zn2040  1.936   .     S
O2031  Zn2038  1.933   .     S
O2032  Zn2039  1.946   .     S
O2033  Zn2040  1.942   .     S
O2034  Zn2037  1.931   .     S
O2035  Zn2038  1.941   .     S
O2036  Zn2039  1.933   .     S
C2041  O2153   1.263   .     A
C2041  C2047   1.435   .     S
C2041  O2151   1.270   .     A
C2042  O2147   1.386   .     S
C2042  C2056   1.400   .     A
C2042  C2082   1.401   .     A
C2043  O2145   1.383   .     S
C2043  C2056   1.407   .     A
C2043  C2055   1.404   .     A
C2044  O2152   1.296   .     A
C2044  C2046   1.461   .     S
C2044  O2154   1.266   .     A
C2045  C2057   1.399   .     A
C2045  C2054   1.479   .     S
C2045  C2081   1.419   .     A
C2046  C1807   1.359   1_655 S
C2046  H1890   1.088   1_655 S
C2048  C2051   1.462   .     S
C2048  C1329   1.367   1_565 S
C2048  C1345   1.531   1_565 S
C2049  C2050   1.427   .     S
C2050  O2149   1.274   .     A
C2050  O2155   1.272   .     A
C2051  O2150   1.265   .     A
C2051  O2156   1.277   .     A
C2052  H2108   1.080   .     S
C2052  C2057   1.385   .     A
C2052  C983    1.407   1_556 S
C2053  O2143   1.277   .     A
C2053  O2141   1.274   .     A
C2053  C2056   1.451   .     S
C2054  O2142   1.288   .     A
C2054  O2144   1.285   .     A
C2057  H2097   1.083   .     S
C2058  H2136   1.109   .     S
C2058  C2059   1.539   .     S
C2058  H2137   1.115   .     S
C2058  O2145   1.421   .     S
C2059  C1820   1.526   1_655 S
C2059  H1898   1.110   1_655 S
C2060  H2089   1.109   .     S
C2061  H2095   1.112   .     S
C2061  H2096   1.112   .     S
C2061  C1807   1.535   1_655 S
C2061  C1822   1.541   1_655 S
C2062  H2094   1.111   .     S
C2062  H2093   1.111   .     S
C2063  O2148   1.395   .     S
C2064  H2092   1.110   .     S
C2064  H2091   1.111   .     S
C2064  H2090   1.111   .     S
C2064  C1822   1.528   1_655 S
C2065  C2066   1.535   .     S
C2065  H2104   1.111   .     S
C2066  C2067   1.526   .     S
C2066  H2101   1.111   .     S
C2067  H2100   1.111   .     S
C2067  H2098   1.111   .     S
C2067  H2099   1.111   .     S
C2068  H2112   1.112   .     S
C2068  H2111   1.112   .     S
C2068  C1329   1.536   1_565 S
C2068  C1349   1.541   1_565 S
C2069  H2109   1.112   .     S
C2069  C2070   1.527   .     S
C2069  H2110   1.111   .     S
C2070  H2107   1.109   .     S
C2071  C2072   1.528   .     S
C2071  H2113   1.115   .     S
C2071  O2146   1.412   .     S
C2071  H1034   1.115   1_556 S
C2072  H2115   1.112   .     S
C2072  H2116   1.112   .     S
C2073  H2118   1.110   .     S
C2073  H2120   1.111   .     S
C2073  C1352   1.527   1_565 S
C2073  H1037   1.111   1_556 S
C2074  C2081   1.422   .     A
C2074  C983    1.427   1_556 S
C2074  C1002   1.421   1_556 S
C2075  H2121   1.111   .     S
C2075  H2122   1.115   .     S
C2075  C2076   1.530   .     S
C2075  O2147   1.419   .     S
C2076  C2077   1.527   .     S
C2076  H2124   1.110   .     S
C2076  H2123   1.107   .     S
C2077  H2125   1.111   .     S
C2077  H2126   1.110   .     S
C2077  H2127   1.110   .     S
C2078  H2129   1.115   .     S
C2078  C2079   1.532   .     S
C2078  H2128   1.111   .     S
C2078  O2148   1.418   .     S
C2079  H2131   1.112   .     S
C2079  C2080   1.526   .     S
C2079  H2132   1.109   .     S
C2080  H2133   1.111   .     S
C2080  H2135   1.111   .     S
C2080  H1414   1.111   1_565 S
C2081  C2085   1.416   .     A
C2083  C2084   1.391   .     A
C2083  C1002   1.414   1_556 S
C2083  C975    1.407   1_556 S
C2084  H2086   1.083   .     S
C2084  C2085   1.387   .     A
C2085  H2119   1.078   .     S
H2087  C1820   1.111   1_655 S
H2088  C980    1.110   1_556 S
H2102  C1346   1.112   1_565 S
H2103  C1345   1.112   1_565 S
H2105  C1350   1.111   1_565 S
H2106  C1350   1.111   1_565 S
H2139  C979    1.109   1_556 S
O2140  Zn2160  1.930   .     S
O2140  Zn2159  1.935   .     S
O2140  Zn2158  1.947   .     S
O2140  Zn2157  1.965   .     S
O2141  Zn2158  1.924   .     S
O2142  Zn2160  1.937   .     S
O2143  Zn2159  1.930   .     S
O2144  Zn2157  1.919   .     S
O2146  C975    1.383   1_556 S
O2149  Zn2157  1.932   .     S
O2150  Zn2160  1.936   .     S
O2151  Zn2158  1.933   .     S
O2152  Zn2159  1.946   .     S
O2153  Zn2160  1.942   .     S
O2154  Zn2157  1.931   .     S
O2155  Zn2158  1.941   .     S
O2156  Zn2159  1.933   .     S
