data_str_m3_o1_o1_pcu_sym.13
_audit_creation_date              2020-01-03
_audit_creation_method            'Materials Studio'
_symmetry_space_group_name_H-M    'P1'
_symmetry_Int_Tables_number       1
_symmetry_cell_setting            triclinic
loop_
_symmetry_equiv_pos_as_xyz
  x,y,z
_cell_length_a                    30.4117
_cell_length_b                    30.3556
_cell_length_c                    29.4356
_cell_angle_alpha                 90.0811
_cell_angle_beta                  89.9917
_cell_angle_gamma                 89.3392
loop_
_atom_site_label
_atom_site_type_symbol
_atom_site_fract_x
_atom_site_fract_y
_atom_site_fract_z
_atom_site_U_iso_or_equiv
_atom_site_adp_type
_atom_site_occupancy
C1     C     0.05983   0.18986   0.16657   0.00000  Uiso   1.00
C2     C     0.00563   0.21161   0.30927   0.00000  Uiso   1.00
C3     C     0.00563   0.21164   0.02395   0.00000  Uiso   1.00
C4     C     0.49418   0.28835   0.30938   0.00000  Uiso   1.00
C5     C     0.24144   0.03786   0.02406   0.00000  Uiso   1.00
C6     C     0.25854   0.46214   0.30926   0.00000  Uiso   1.00
C7     C     0.25893   0.46222   0.02394   0.00000  Uiso   1.00
C8     C     0.24181   0.03794   0.30938   0.00000  Uiso   1.00
C9     C     0.39927   0.13279   0.12614   0.00000  Uiso   1.00
C10    C     0.11897   0.34957   0.20712   0.00000  Uiso   1.00
C11    C     0.11083   0.35773   0.12447   0.00000  Uiso   1.00
C12    C     0.43985   0.30978   0.16656   0.00000  Uiso   1.00
C13    C     0.38577   0.14609   0.20726   0.00000  Uiso   1.00
C14    C     0.08866   0.12111   0.19691   0.00000  Uiso   1.00
C15    C     0.37204   0.33959   0.13515   0.00000  Uiso   1.00
C16    C     0.41158   0.37922   0.19514   0.00000  Uiso   1.00
C17    C     0.12726   0.15925   0.13524   0.00000  Uiso   1.00
C18    C     0.13768   0.39413   0.12550   0.00000  Uiso   1.00
C19    C     0.35744   0.11111   0.20806   0.00000  Uiso   1.00
C20    C     0.36505   0.10328   0.12534   0.00000  Uiso   1.00
C21    C     0.15276   0.37971   0.20621   0.00000  Uiso   1.00
C22    C     0.37783   0.41011   0.19747   0.00000  Uiso   1.00
C23    C     0.44018   0.18978   0.16663   0.00000  Uiso   1.00
C24    C     0.16138   0.12893   0.13823   0.00000  Uiso   1.00
C25    C     0.12188   0.08953   0.19826   0.00000  Uiso   1.00
C26    C     0.33885   0.37116   0.13644   0.00000  Uiso   1.00
C27    C     0.09798   0.33846   0.16606   0.00000  Uiso   1.00
C28    C     0.40789   0.15597   0.16659   0.00000  Uiso   1.00
C29    C     0.40703   0.34310   0.16597   0.00000  Uiso   1.00
C30    C     0.09236   0.15619   0.16619   0.00000  Uiso   1.00
C31    C     0.34484   0.09158   0.16667   0.00000  Uiso   1.00
C32    C     0.15924   0.40451   0.16639   0.00000  Uiso   1.00
C33    C     0.15697   0.09303   0.16753   0.00000  Uiso   1.00
C34    C     0.06163   0.30850   0.16659   0.00000  Uiso   1.00
C35    C     0.34269   0.40655   0.16686   0.00000  Uiso   1.00
C36    C     0.45448   0.10933   0.07936   0.00000  Uiso   1.00
C37    C     0.08373   0.35680   0.27509   0.00000  Uiso   1.00
C38    C     0.11928   0.30785   0.06765   0.00000  Uiso   1.00
C39    C     0.36215   0.20247   0.25202   0.00000  Uiso   1.00
C40    C     0.01976   0.09452   0.20663   0.00000  Uiso   1.00
C41    C     0.37877   0.31555   0.06192   0.00000  Uiso   1.00
C42    C     0.47932   0.40953   0.19599   0.00000  Uiso   1.00
C43    C     0.12168   0.17999   0.06118   0.00000  Uiso   1.00
C44    C     0.16115   0.40851   0.05244   0.00000  Uiso   1.00
C45    C     0.30992   0.43996   0.16669   0.00000  Uiso   1.00
C46    C     0.36978   0.06847   0.27002   0.00000  Uiso   1.00
C47    C     0.32812   0.11098   0.05853   0.00000  Uiso   1.00
C48    C     0.20846   0.35718   0.25290   0.00000  Uiso   1.00
C49    C     0.37354   0.43350   0.27100   0.00000  Uiso   1.00
C50    C     0.22829   0.16090   0.13867   0.00000  Uiso   1.00
C51    C     0.12818   0.06605   0.27167   0.00000  Uiso   1.00
C52    C     0.27006   0.34415   0.12691   0.00000  Uiso   1.00
C53    C     0.18986   0.05979   0.16684   0.00000  Uiso   1.00
C54    C     0.19006   0.43982   0.16666   0.00000  Uiso   1.00
C55    C     0.31065   0.05948   0.16667   0.00000  Uiso   1.00
C56    C     0.49445   0.28839   0.02407   0.00000  Uiso   1.00
H57    H     0.49024   0.31907   0.04236   0.00000  Uiso   1.00
H58    H     0.46649   0.11173   0.04388   0.00000  Uiso   1.00
H59    H     0.44248   0.07511   0.08414   0.00000  Uiso   1.00
H60    H     0.07551   0.33934   0.30693   0.00000  Uiso   1.00
H61    H     0.05226   0.36588   0.25820   0.00000  Uiso   1.00
H62    H     0.10173   0.38704   0.28474   0.00000  Uiso   1.00
H63    H     0.10454   0.29527   0.03580   0.00000  Uiso   1.00
H64    H     0.11963   0.28033   0.09251   0.00000  Uiso   1.00
H65    H     0.15374   0.31724   0.06022   0.00000  Uiso   1.00
H66    H     0.36370   0.22606   0.22313   0.00000  Uiso   1.00
H67    H     0.36927   0.22113   0.28356   0.00000  Uiso   1.00
H68    H     0.01007   0.18095   0.29098   0.00000  Uiso   1.00
H69    H     0.32840   0.18903   0.25520   0.00000  Uiso   1.00
H70    H     0.03097   0.06073   0.19704   0.00000  Uiso   1.00
H71    H     0.00627   0.11213   0.17663   0.00000  Uiso   1.00
H72    H     0.49259   0.09121   0.23151   0.00000  Uiso   1.00
H73    H     0.40872   0.33628   0.05992   0.00000  Uiso   1.00
H74    H     0.35053   0.33293   0.04578   0.00000  Uiso   1.00
H75    H     0.38546   0.28525   0.04184   0.00000  Uiso   1.00
H76    H     0.49161   0.39073   0.16600   0.00000  Uiso   1.00
H77    H     0.00793   0.41693   0.21788   0.00000  Uiso   1.00
H78    H     0.46492   0.44172   0.18508   0.00000  Uiso   1.00
H79    H     0.01025   0.18106   0.04217   0.00000  Uiso   1.00
H80    H     0.11764   0.20915   0.03886   0.00000  Uiso   1.00
H81    H     0.09069   0.16087   0.05912   0.00000  Uiso   1.00
H82    H     0.14960   0.16004   0.04765   0.00000  Uiso   1.00
H83    H     0.19126   0.38974   0.06261   0.00000  Uiso   1.00
H84    H     0.17185   0.43737   0.03247   0.00000  Uiso   1.00
H85    H     0.14036   0.38876   0.02939   0.00000  Uiso   1.00
H86    H     0.39937   0.08585   0.28264   0.00000  Uiso   1.00
H87    H     0.37970   0.04121   0.24662   0.00000  Uiso   1.00
H88    H     0.35341   0.05309   0.29956   0.00000  Uiso   1.00
H89    H     0.29657   0.11821   0.07611   0.00000  Uiso   1.00
H90    H     0.48945   0.31897   0.29119   0.00000  Uiso   1.00
H91    H     0.32003   0.09427   0.02620   0.00000  Uiso   1.00
H92    H     0.34501   0.14214   0.04981   0.00000  Uiso   1.00
H93    H     0.22037   0.35994   0.28840   0.00000  Uiso   1.00
H94    H     0.23671   0.36380   0.23019   0.00000  Uiso   1.00
H95    H     0.19691   0.32280   0.24814   0.00000  Uiso   1.00
H96    H     0.34378   0.41267   0.27421   0.00000  Uiso   1.00
H97    H     0.36779   0.46348   0.29185   0.00000  Uiso   1.00
H98    H     0.40260   0.41595   0.28534   0.00000  Uiso   1.00
H99    H     0.25644   0.17018   0.11695   0.00000  Uiso   1.00
H100   H     0.24146   0.14211   0.16820   0.00000  Uiso   1.00
H101   H     0.23457   0.06810   0.04232   0.00000  Uiso   1.00
H102   H     0.21250   0.19222   0.15036   0.00000  Uiso   1.00
H103   H     0.15721   0.08804   0.27385   0.00000  Uiso   1.00
H104   H     0.13608   0.03602   0.29164   0.00000  Uiso   1.00
H105   H     0.09921   0.08220   0.28781   0.00000  Uiso   1.00
H106   H     0.24447   0.33755   0.10102   0.00000  Uiso   1.00
H107   H     0.25431   0.36352   0.15453   0.00000  Uiso   1.00
H108   H     0.28199   0.31169   0.13988   0.00000  Uiso   1.00
H109   H     0.26512   0.43188   0.29099   0.00000  Uiso   1.00
H110   H     0.26585   0.43198   0.04210   0.00000  Uiso   1.00
H111   H     0.23559   0.06830   0.29120   0.00000  Uiso   1.00
H112   H     0.48275   0.11563   0.10218   0.00000  Uiso   1.00
N113   N    -0.00000   0.25000   0.28573   0.00000  Uiso   1.00
N114   N    -0.00000   0.25000   0.04760   0.00000  Uiso   1.00
N115   N     0.25000   0.00000   0.28573   0.00000  Uiso   1.00
N116   N     0.25000   0.00000   0.04760   0.00000  Uiso   1.00
O117   O     0.04580   0.20419   0.20487   0.00000  Uiso   1.00
O118   O     0.20419   0.04581   0.12846   0.00000  Uiso   1.00
O119   O     0.20419   0.04581   0.20487   0.00000  Uiso   1.00
O120   O     0.29580   0.45419   0.12846   0.00000  Uiso   1.00
O121   O     0.20419   0.45419   0.12846   0.00000  Uiso   1.00
O122   O     0.29580   0.04581   0.20487   0.00000  Uiso   1.00
O123   O     0.29580   0.04581   0.12846   0.00000  Uiso   1.00
O124   O     0.20419   0.45419   0.20487   0.00000  Uiso   1.00
O125   O     0.42128   0.14155   0.08597   0.00000  Uiso   1.00
O126   O     0.10936   0.32832   0.24753   0.00000  Uiso   1.00
O127   O     0.09395   0.34430   0.08311   0.00000  Uiso   1.00
O128   O     0.45419   0.29581   0.12846   0.00000  Uiso   1.00
O129   O     0.39379   0.16841   0.24744   0.00000  Uiso   1.00
O130   O     0.05374   0.11875   0.22701   0.00000  Uiso   1.00
O131   O     0.36861   0.30317   0.10693   0.00000  Uiso   1.00
O132   O     0.44906   0.38449   0.22119   0.00000  Uiso   1.00
O133   O     0.13025   0.19468   0.10583   0.00000  Uiso   1.00
O134   O     0.13634   0.42408   0.08981   0.00000  Uiso   1.00
O135   O     0.33998   0.09832   0.24938   0.00000  Uiso   1.00
O136   O     0.35501   0.08255   0.08471   0.00000  Uiso   1.00
O137   O     0.17490   0.38896   0.24620   0.00000  Uiso   1.00
O138   O     0.38133   0.44652   0.22568   0.00000  Uiso   1.00
O139   O     0.45419   0.29581   0.20487   0.00000  Uiso   1.00
O140   O     0.19925   0.13482   0.11296   0.00000  Uiso   1.00
O141   O     0.11858   0.05327   0.22661   0.00000  Uiso   1.00
O142   O     0.30389   0.36847   0.10644   0.00000  Uiso   1.00
O143   O     0.04580   0.20419   0.12846   0.00000  Uiso   1.00
O144   O     0.45419   0.20419   0.12846   0.00000  Uiso   1.00
O145   O     0.04580   0.29581   0.20487   0.00000  Uiso   1.00
O146   O     0.04580   0.29581   0.12846   0.00000  Uiso   1.00
O147   O     0.45419   0.20419   0.20487   0.00000  Uiso   1.00
O148   O     0.29580   0.45419   0.20487   0.00000  Uiso   1.00
Zn149  Zn   -0.00000   0.25000   0.21771   0.00000  Uiso   1.00
Zn150  Zn   -0.00000   0.25000   0.11563   0.00000  Uiso   1.00
Zn151  Zn    0.25000   0.00000   0.21771   0.00000  Uiso   1.00
Zn152  Zn    0.25000   0.00000   0.11563   0.00000  Uiso   1.00
C153   C     0.55983   0.18986   0.16657   0.00000  Uiso   1.00
C154   C     0.50563   0.21161   0.30927   0.00000  Uiso   1.00
C155   C     0.50563   0.21164   0.02395   0.00000  Uiso   1.00
C156   C     0.99418   0.28835   0.30938   0.00000  Uiso   1.00
C157   C     0.74144   0.03786   0.02406   0.00000  Uiso   1.00
C158   C     0.75854   0.46214   0.30926   0.00000  Uiso   1.00
C159   C     0.75893   0.46222   0.02394   0.00000  Uiso   1.00
C160   C     0.74181   0.03794   0.30938   0.00000  Uiso   1.00
C161   C     0.89927   0.13279   0.12614   0.00000  Uiso   1.00
C162   C     0.61897   0.34957   0.20712   0.00000  Uiso   1.00
C163   C     0.61083   0.35773   0.12447   0.00000  Uiso   1.00
C164   C     0.93985   0.30978   0.16656   0.00000  Uiso   1.00
C165   C     0.88577   0.14609   0.20726   0.00000  Uiso   1.00
C166   C     0.58866   0.12111   0.19691   0.00000  Uiso   1.00
C167   C     0.87204   0.33959   0.13515   0.00000  Uiso   1.00
C168   C     0.91158   0.37922   0.19514   0.00000  Uiso   1.00
C169   C     0.62726   0.15925   0.13524   0.00000  Uiso   1.00
C170   C     0.63768   0.39413   0.12550   0.00000  Uiso   1.00
C171   C     0.85744   0.11111   0.20806   0.00000  Uiso   1.00
C172   C     0.86505   0.10328   0.12534   0.00000  Uiso   1.00
C173   C     0.65276   0.37971   0.20621   0.00000  Uiso   1.00
C174   C     0.87783   0.41011   0.19747   0.00000  Uiso   1.00
C175   C     0.94018   0.18978   0.16663   0.00000  Uiso   1.00
C176   C     0.66138   0.12893   0.13823   0.00000  Uiso   1.00
C177   C     0.62188   0.08953   0.19826   0.00000  Uiso   1.00
C178   C     0.83885   0.37116   0.13644   0.00000  Uiso   1.00
C179   C     0.59798   0.33846   0.16606   0.00000  Uiso   1.00
C180   C     0.90789   0.15597   0.16659   0.00000  Uiso   1.00
C181   C     0.90703   0.34310   0.16597   0.00000  Uiso   1.00
C182   C     0.59236   0.15619   0.16619   0.00000  Uiso   1.00
C183   C     0.84484   0.09158   0.16667   0.00000  Uiso   1.00
C184   C     0.65924   0.40451   0.16639   0.00000  Uiso   1.00
C185   C     0.65697   0.09303   0.16753   0.00000  Uiso   1.00
C186   C     0.56163   0.30850   0.16659   0.00000  Uiso   1.00
C187   C     0.84269   0.40655   0.16686   0.00000  Uiso   1.00
C188   C     0.95448   0.10933   0.07936   0.00000  Uiso   1.00
C189   C     0.58373   0.35680   0.27509   0.00000  Uiso   1.00
C190   C     0.61928   0.30785   0.06765   0.00000  Uiso   1.00
C191   C     0.86215   0.20247   0.25202   0.00000  Uiso   1.00
C192   C     0.51976   0.09452   0.20663   0.00000  Uiso   1.00
C193   C     0.87877   0.31555   0.06192   0.00000  Uiso   1.00
C194   C     0.97932   0.40953   0.19599   0.00000  Uiso   1.00
C195   C     0.62168   0.17999   0.06118   0.00000  Uiso   1.00
C196   C     0.66115   0.40851   0.05244   0.00000  Uiso   1.00
C197   C     0.80992   0.43996   0.16669   0.00000  Uiso   1.00
C198   C     0.86978   0.06847   0.27002   0.00000  Uiso   1.00
C199   C     0.82812   0.11098   0.05853   0.00000  Uiso   1.00
C200   C     0.70846   0.35718   0.25290   0.00000  Uiso   1.00
C201   C     0.87354   0.43350   0.27100   0.00000  Uiso   1.00
C202   C     0.72829   0.16090   0.13867   0.00000  Uiso   1.00
C203   C     0.62818   0.06605   0.27167   0.00000  Uiso   1.00
C204   C     0.77006   0.34415   0.12691   0.00000  Uiso   1.00
C205   C     0.68986   0.05979   0.16684   0.00000  Uiso   1.00
C206   C     0.69006   0.43982   0.16666   0.00000  Uiso   1.00
C207   C     0.81065   0.05948   0.16667   0.00000  Uiso   1.00
C208   C     0.99445   0.28839   0.02407   0.00000  Uiso   1.00
H209   H     0.99024   0.31907   0.04236   0.00000  Uiso   1.00
H210   H     0.96649   0.11173   0.04388   0.00000  Uiso   1.00
H211   H     0.94248   0.07511   0.08414   0.00000  Uiso   1.00
H212   H     0.57551   0.33934   0.30693   0.00000  Uiso   1.00
H213   H     0.55226   0.36588   0.25820   0.00000  Uiso   1.00
H214   H     0.60173   0.38704   0.28474   0.00000  Uiso   1.00
H215   H     0.60454   0.29527   0.03580   0.00000  Uiso   1.00
H216   H     0.61963   0.28033   0.09251   0.00000  Uiso   1.00
H217   H     0.65374   0.31724   0.06022   0.00000  Uiso   1.00
H218   H     0.86370   0.22606   0.22313   0.00000  Uiso   1.00
H219   H     0.86927   0.22113   0.28356   0.00000  Uiso   1.00
H220   H     0.51007   0.18095   0.29098   0.00000  Uiso   1.00
H221   H     0.82840   0.18903   0.25520   0.00000  Uiso   1.00
H222   H     0.53097   0.06073   0.19704   0.00000  Uiso   1.00
H223   H     0.50627   0.11213   0.17663   0.00000  Uiso   1.00
H224   H     0.99259   0.09121   0.23151   0.00000  Uiso   1.00
H225   H     0.90872   0.33628   0.05992   0.00000  Uiso   1.00
H226   H     0.85053   0.33293   0.04578   0.00000  Uiso   1.00
H227   H     0.88546   0.28525   0.04184   0.00000  Uiso   1.00
H228   H     0.99161   0.39073   0.16600   0.00000  Uiso   1.00
H229   H     0.50793   0.41693   0.21788   0.00000  Uiso   1.00
H230   H     0.96492   0.44172   0.18508   0.00000  Uiso   1.00
H231   H     0.51025   0.18106   0.04217   0.00000  Uiso   1.00
H232   H     0.61764   0.20915   0.03886   0.00000  Uiso   1.00
H233   H     0.59069   0.16087   0.05912   0.00000  Uiso   1.00
H234   H     0.64960   0.16004   0.04765   0.00000  Uiso   1.00
H235   H     0.69126   0.38974   0.06261   0.00000  Uiso   1.00
H236   H     0.67185   0.43737   0.03247   0.00000  Uiso   1.00
H237   H     0.64036   0.38876   0.02939   0.00000  Uiso   1.00
H238   H     0.89937   0.08585   0.28264   0.00000  Uiso   1.00
H239   H     0.87970   0.04121   0.24662   0.00000  Uiso   1.00
H240   H     0.85341   0.05309   0.29956   0.00000  Uiso   1.00
H241   H     0.79657   0.11821   0.07611   0.00000  Uiso   1.00
H242   H     0.98945   0.31897   0.29119   0.00000  Uiso   1.00
H243   H     0.82003   0.09427   0.02620   0.00000  Uiso   1.00
H244   H     0.84501   0.14214   0.04981   0.00000  Uiso   1.00
H245   H     0.72037   0.35994   0.28840   0.00000  Uiso   1.00
H246   H     0.73671   0.36380   0.23019   0.00000  Uiso   1.00
H247   H     0.69691   0.32280   0.24814   0.00000  Uiso   1.00
H248   H     0.84378   0.41267   0.27421   0.00000  Uiso   1.00
H249   H     0.86779   0.46348   0.29185   0.00000  Uiso   1.00
H250   H     0.90260   0.41595   0.28534   0.00000  Uiso   1.00
H251   H     0.75644   0.17018   0.11695   0.00000  Uiso   1.00
H252   H     0.74146   0.14211   0.16820   0.00000  Uiso   1.00
H253   H     0.73457   0.06810   0.04232   0.00000  Uiso   1.00
H254   H     0.71250   0.19222   0.15036   0.00000  Uiso   1.00
H255   H     0.65721   0.08804   0.27385   0.00000  Uiso   1.00
H256   H     0.63608   0.03602   0.29164   0.00000  Uiso   1.00
H257   H     0.59921   0.08220   0.28781   0.00000  Uiso   1.00
H258   H     0.74447   0.33755   0.10102   0.00000  Uiso   1.00
H259   H     0.75431   0.36352   0.15453   0.00000  Uiso   1.00
H260   H     0.78199   0.31169   0.13988   0.00000  Uiso   1.00
H261   H     0.76512   0.43188   0.29099   0.00000  Uiso   1.00
H262   H     0.76585   0.43198   0.04210   0.00000  Uiso   1.00
H263   H     0.73559   0.06830   0.29120   0.00000  Uiso   1.00
H264   H     0.98275   0.11563   0.10218   0.00000  Uiso   1.00
N265   N     0.50000   0.25000   0.28573   0.00000  Uiso   1.00
N266   N     0.50000   0.25000   0.04760   0.00000  Uiso   1.00
N267   N     0.75000   0.00000   0.28573   0.00000  Uiso   1.00
N268   N     0.75000   0.00000   0.04760   0.00000  Uiso   1.00
O269   O     0.54580   0.20419   0.20487   0.00000  Uiso   1.00
O270   O     0.70419   0.04581   0.12846   0.00000  Uiso   1.00
O271   O     0.70419   0.04581   0.20487   0.00000  Uiso   1.00
O272   O     0.79580   0.45419   0.12846   0.00000  Uiso   1.00
O273   O     0.70419   0.45419   0.12846   0.00000  Uiso   1.00
O274   O     0.79580   0.04581   0.20487   0.00000  Uiso   1.00
O275   O     0.79580   0.04581   0.12846   0.00000  Uiso   1.00
O276   O     0.70419   0.45419   0.20487   0.00000  Uiso   1.00
O277   O     0.92128   0.14155   0.08597   0.00000  Uiso   1.00
O278   O     0.60936   0.32832   0.24753   0.00000  Uiso   1.00
O279   O     0.59395   0.34430   0.08311   0.00000  Uiso   1.00
O280   O     0.95419   0.29581   0.12846   0.00000  Uiso   1.00
O281   O     0.89379   0.16841   0.24744   0.00000  Uiso   1.00
O282   O     0.55374   0.11875   0.22701   0.00000  Uiso   1.00
O283   O     0.86861   0.30317   0.10693   0.00000  Uiso   1.00
O284   O     0.94906   0.38449   0.22119   0.00000  Uiso   1.00
O285   O     0.63025   0.19468   0.10583   0.00000  Uiso   1.00
O286   O     0.63634   0.42408   0.08981   0.00000  Uiso   1.00
O287   O     0.83998   0.09832   0.24938   0.00000  Uiso   1.00
O288   O     0.85501   0.08255   0.08471   0.00000  Uiso   1.00
O289   O     0.67490   0.38896   0.24620   0.00000  Uiso   1.00
O290   O     0.88133   0.44652   0.22568   0.00000  Uiso   1.00
O291   O     0.95419   0.29581   0.20487   0.00000  Uiso   1.00
O292   O     0.69925   0.13482   0.11296   0.00000  Uiso   1.00
O293   O     0.61858   0.05327   0.22661   0.00000  Uiso   1.00
O294   O     0.80389   0.36847   0.10644   0.00000  Uiso   1.00
O295   O     0.54580   0.20419   0.12846   0.00000  Uiso   1.00
O296   O     0.95419   0.20419   0.12846   0.00000  Uiso   1.00
O297   O     0.54580   0.29581   0.20487   0.00000  Uiso   1.00
O298   O     0.54580   0.29581   0.12846   0.00000  Uiso   1.00
O299   O     0.95419   0.20419   0.20487   0.00000  Uiso   1.00
O300   O     0.79580   0.45419   0.20487   0.00000  Uiso   1.00
Zn301  Zn    0.50000   0.25000   0.21771   0.00000  Uiso   1.00
Zn302  Zn    0.50000   0.25000   0.11563   0.00000  Uiso   1.00
Zn303  Zn    0.75000   0.00000   0.21771   0.00000  Uiso   1.00
Zn304  Zn    0.75000   0.00000   0.11563   0.00000  Uiso   1.00
C305   C     0.05983   0.68986   0.16657   0.00000  Uiso   1.00
C306   C     0.00563   0.71161   0.30927   0.00000  Uiso   1.00
C307   C     0.00563   0.71164   0.02395   0.00000  Uiso   1.00
C308   C     0.49418   0.78835   0.30938   0.00000  Uiso   1.00
C309   C     0.24144   0.53786   0.02406   0.00000  Uiso   1.00
C310   C     0.25854   0.96214   0.30926   0.00000  Uiso   1.00
C311   C     0.25893   0.96222   0.02394   0.00000  Uiso   1.00
C312   C     0.24181   0.53794   0.30938   0.00000  Uiso   1.00
C313   C     0.39927   0.63279   0.12614   0.00000  Uiso   1.00
C314   C     0.11897   0.84957   0.20712   0.00000  Uiso   1.00
C315   C     0.11083   0.85773   0.12447   0.00000  Uiso   1.00
C316   C     0.43985   0.80978   0.16656   0.00000  Uiso   1.00
C317   C     0.38577   0.64609   0.20726   0.00000  Uiso   1.00
C318   C     0.08866   0.62111   0.19691   0.00000  Uiso   1.00
C319   C     0.37204   0.83959   0.13515   0.00000  Uiso   1.00
C320   C     0.41158   0.87922   0.19514   0.00000  Uiso   1.00
C321   C     0.12726   0.65925   0.13524   0.00000  Uiso   1.00
C322   C     0.13768   0.89413   0.12550   0.00000  Uiso   1.00
C323   C     0.35744   0.61111   0.20806   0.00000  Uiso   1.00
C324   C     0.36505   0.60328   0.12534   0.00000  Uiso   1.00
C325   C     0.15276   0.87971   0.20621   0.00000  Uiso   1.00
C326   C     0.37783   0.91011   0.19747   0.00000  Uiso   1.00
C327   C     0.44018   0.68978   0.16663   0.00000  Uiso   1.00
C328   C     0.16138   0.62893   0.13823   0.00000  Uiso   1.00
C329   C     0.12188   0.58953   0.19826   0.00000  Uiso   1.00
C330   C     0.33885   0.87116   0.13644   0.00000  Uiso   1.00
C331   C     0.09798   0.83846   0.16606   0.00000  Uiso   1.00
C332   C     0.40789   0.65597   0.16659   0.00000  Uiso   1.00
C333   C     0.40703   0.84310   0.16597   0.00000  Uiso   1.00
C334   C     0.09236   0.65619   0.16619   0.00000  Uiso   1.00
C335   C     0.34484   0.59158   0.16667   0.00000  Uiso   1.00
C336   C     0.15924   0.90451   0.16639   0.00000  Uiso   1.00
C337   C     0.15697   0.59303   0.16753   0.00000  Uiso   1.00
C338   C     0.06163   0.80850   0.16659   0.00000  Uiso   1.00
C339   C     0.34269   0.90655   0.16686   0.00000  Uiso   1.00
C340   C     0.45448   0.60933   0.07936   0.00000  Uiso   1.00
C341   C     0.08373   0.85680   0.27509   0.00000  Uiso   1.00
C342   C     0.11928   0.80785   0.06765   0.00000  Uiso   1.00
C343   C     0.36215   0.70247   0.25202   0.00000  Uiso   1.00
C344   C     0.01976   0.59452   0.20663   0.00000  Uiso   1.00
C345   C     0.37877   0.81555   0.06192   0.00000  Uiso   1.00
C346   C     0.47932   0.90953   0.19599   0.00000  Uiso   1.00
C347   C     0.12168   0.67999   0.06118   0.00000  Uiso   1.00
C348   C     0.16115   0.90851   0.05244   0.00000  Uiso   1.00
C349   C     0.30992   0.93996   0.16669   0.00000  Uiso   1.00
C350   C     0.36978   0.56847   0.27002   0.00000  Uiso   1.00
C351   C     0.32812   0.61098   0.05853   0.00000  Uiso   1.00
C352   C     0.20846   0.85718   0.25290   0.00000  Uiso   1.00
C353   C     0.37354   0.93350   0.27100   0.00000  Uiso   1.00
C354   C     0.22829   0.66090   0.13867   0.00000  Uiso   1.00
C355   C     0.12818   0.56605   0.27167   0.00000  Uiso   1.00
C356   C     0.27006   0.84415   0.12691   0.00000  Uiso   1.00
C357   C     0.18986   0.55979   0.16684   0.00000  Uiso   1.00
C358   C     0.19006   0.93982   0.16666   0.00000  Uiso   1.00
C359   C     0.31065   0.55948   0.16667   0.00000  Uiso   1.00
C360   C     0.49445   0.78839   0.02407   0.00000  Uiso   1.00
H361   H     0.49024   0.81907   0.04236   0.00000  Uiso   1.00
H362   H     0.46649   0.61173   0.04388   0.00000  Uiso   1.00
H363   H     0.44248   0.57511   0.08414   0.00000  Uiso   1.00
H364   H     0.07551   0.83934   0.30693   0.00000  Uiso   1.00
H365   H     0.05226   0.86588   0.25820   0.00000  Uiso   1.00
H366   H     0.10173   0.88704   0.28474   0.00000  Uiso   1.00
H367   H     0.10454   0.79527   0.03580   0.00000  Uiso   1.00
H368   H     0.11963   0.78033   0.09251   0.00000  Uiso   1.00
H369   H     0.15374   0.81724   0.06022   0.00000  Uiso   1.00
H370   H     0.36370   0.72606   0.22313   0.00000  Uiso   1.00
H371   H     0.36927   0.72113   0.28356   0.00000  Uiso   1.00
H372   H     0.01007   0.68095   0.29098   0.00000  Uiso   1.00
H373   H     0.32840   0.68903   0.25520   0.00000  Uiso   1.00
H374   H     0.03097   0.56073   0.19704   0.00000  Uiso   1.00
H375   H     0.00627   0.61213   0.17663   0.00000  Uiso   1.00
H376   H     0.49259   0.59121   0.23151   0.00000  Uiso   1.00
H377   H     0.40872   0.83628   0.05992   0.00000  Uiso   1.00
H378   H     0.35053   0.83293   0.04578   0.00000  Uiso   1.00
H379   H     0.38546   0.78525   0.04184   0.00000  Uiso   1.00
H380   H     0.49161   0.89073   0.16600   0.00000  Uiso   1.00
H381   H     0.00793   0.91693   0.21788   0.00000  Uiso   1.00
H382   H     0.46492   0.94172   0.18508   0.00000  Uiso   1.00
H383   H     0.01025   0.68106   0.04217   0.00000  Uiso   1.00
H384   H     0.11764   0.70915   0.03886   0.00000  Uiso   1.00
H385   H     0.09069   0.66087   0.05912   0.00000  Uiso   1.00
H386   H     0.14960   0.66004   0.04765   0.00000  Uiso   1.00
H387   H     0.19126   0.88974   0.06261   0.00000  Uiso   1.00
H388   H     0.17185   0.93737   0.03247   0.00000  Uiso   1.00
H389   H     0.14036   0.88876   0.02939   0.00000  Uiso   1.00
H390   H     0.39937   0.58585   0.28264   0.00000  Uiso   1.00
H391   H     0.37970   0.54121   0.24662   0.00000  Uiso   1.00
H392   H     0.35341   0.55309   0.29956   0.00000  Uiso   1.00
H393   H     0.29657   0.61821   0.07611   0.00000  Uiso   1.00
H394   H     0.48945   0.81897   0.29119   0.00000  Uiso   1.00
H395   H     0.32003   0.59427   0.02620   0.00000  Uiso   1.00
H396   H     0.34501   0.64214   0.04981   0.00000  Uiso   1.00
H397   H     0.22037   0.85994   0.28840   0.00000  Uiso   1.00
H398   H     0.23671   0.86380   0.23019   0.00000  Uiso   1.00
H399   H     0.19691   0.82280   0.24814   0.00000  Uiso   1.00
H400   H     0.34378   0.91267   0.27421   0.00000  Uiso   1.00
H401   H     0.36779   0.96348   0.29185   0.00000  Uiso   1.00
H402   H     0.40260   0.91595   0.28534   0.00000  Uiso   1.00
H403   H     0.25644   0.67018   0.11695   0.00000  Uiso   1.00
H404   H     0.24146   0.64211   0.16820   0.00000  Uiso   1.00
H405   H     0.23457   0.56810   0.04232   0.00000  Uiso   1.00
H406   H     0.21250   0.69222   0.15036   0.00000  Uiso   1.00
H407   H     0.15721   0.58804   0.27385   0.00000  Uiso   1.00
H408   H     0.13608   0.53602   0.29164   0.00000  Uiso   1.00
H409   H     0.09921   0.58220   0.28781   0.00000  Uiso   1.00
H410   H     0.24447   0.83755   0.10102   0.00000  Uiso   1.00
H411   H     0.25431   0.86352   0.15453   0.00000  Uiso   1.00
H412   H     0.28199   0.81169   0.13988   0.00000  Uiso   1.00
H413   H     0.26512   0.93188   0.29099   0.00000  Uiso   1.00
H414   H     0.26585   0.93198   0.04210   0.00000  Uiso   1.00
H415   H     0.23559   0.56830   0.29120   0.00000  Uiso   1.00
H416   H     0.48275   0.61563   0.10218   0.00000  Uiso   1.00
N417   N    -0.00000   0.75000   0.28573   0.00000  Uiso   1.00
N418   N    -0.00000   0.75000   0.04760   0.00000  Uiso   1.00
N419   N     0.25000   0.50000   0.28573   0.00000  Uiso   1.00
N420   N     0.25000   0.50000   0.04760   0.00000  Uiso   1.00
O421   O     0.04580   0.70419   0.20487   0.00000  Uiso   1.00
O422   O     0.20419   0.54581   0.12846   0.00000  Uiso   1.00
O423   O     0.20419   0.54581   0.20487   0.00000  Uiso   1.00
O424   O     0.29580   0.95419   0.12846   0.00000  Uiso   1.00
O425   O     0.20419   0.95419   0.12846   0.00000  Uiso   1.00
O426   O     0.29580   0.54581   0.20487   0.00000  Uiso   1.00
O427   O     0.29580   0.54581   0.12846   0.00000  Uiso   1.00
O428   O     0.20419   0.95419   0.20487   0.00000  Uiso   1.00
O429   O     0.42128   0.64155   0.08597   0.00000  Uiso   1.00
O430   O     0.10936   0.82832   0.24753   0.00000  Uiso   1.00
O431   O     0.09395   0.84430   0.08311   0.00000  Uiso   1.00
O432   O     0.45419   0.79581   0.12846   0.00000  Uiso   1.00
O433   O     0.39379   0.66841   0.24744   0.00000  Uiso   1.00
O434   O     0.05374   0.61875   0.22701   0.00000  Uiso   1.00
O435   O     0.36861   0.80317   0.10693   0.00000  Uiso   1.00
O436   O     0.44906   0.88449   0.22119   0.00000  Uiso   1.00
O437   O     0.13025   0.69468   0.10583   0.00000  Uiso   1.00
O438   O     0.13634   0.92408   0.08981   0.00000  Uiso   1.00
O439   O     0.33998   0.59832   0.24938   0.00000  Uiso   1.00
O440   O     0.35501   0.58255   0.08471   0.00000  Uiso   1.00
O441   O     0.17490   0.88896   0.24620   0.00000  Uiso   1.00
O442   O     0.38133   0.94652   0.22568   0.00000  Uiso   1.00
O443   O     0.45419   0.79581   0.20487   0.00000  Uiso   1.00
O444   O     0.19925   0.63482   0.11296   0.00000  Uiso   1.00
O445   O     0.11858   0.55327   0.22661   0.00000  Uiso   1.00
O446   O     0.30389   0.86847   0.10644   0.00000  Uiso   1.00
O447   O     0.04580   0.70419   0.12846   0.00000  Uiso   1.00
O448   O     0.45419   0.70419   0.12846   0.00000  Uiso   1.00
O449   O     0.04580   0.79581   0.20487   0.00000  Uiso   1.00
O450   O     0.04580   0.79581   0.12846   0.00000  Uiso   1.00
O451   O     0.45419   0.70419   0.20487   0.00000  Uiso   1.00
O452   O     0.29580   0.95419   0.20487   0.00000  Uiso   1.00
Zn453  Zn   -0.00000   0.75000   0.21771   0.00000  Uiso   1.00
Zn454  Zn   -0.00000   0.75000   0.11563   0.00000  Uiso   1.00
Zn455  Zn    0.25000   0.50000   0.21771   0.00000  Uiso   1.00
Zn456  Zn    0.25000   0.50000   0.11563   0.00000  Uiso   1.00
C457   C     0.55983   0.68986   0.16657   0.00000  Uiso   1.00
C458   C     0.50563   0.71161   0.30927   0.00000  Uiso   1.00
C459   C     0.50563   0.71164   0.02395   0.00000  Uiso   1.00
C460   C     0.99418   0.78835   0.30938   0.00000  Uiso   1.00
C461   C     0.74144   0.53786   0.02406   0.00000  Uiso   1.00
C462   C     0.75854   0.96214   0.30926   0.00000  Uiso   1.00
C463   C     0.75893   0.96222   0.02394   0.00000  Uiso   1.00
C464   C     0.74181   0.53794   0.30938   0.00000  Uiso   1.00
C465   C     0.89927   0.63279   0.12614   0.00000  Uiso   1.00
C466   C     0.61897   0.84957   0.20712   0.00000  Uiso   1.00
C467   C     0.61083   0.85773   0.12447   0.00000  Uiso   1.00
C468   C     0.93985   0.80978   0.16656   0.00000  Uiso   1.00
C469   C     0.88577   0.64609   0.20726   0.00000  Uiso   1.00
C470   C     0.58866   0.62111   0.19691   0.00000  Uiso   1.00
C471   C     0.87204   0.83959   0.13515   0.00000  Uiso   1.00
C472   C     0.91158   0.87922   0.19514   0.00000  Uiso   1.00
C473   C     0.62726   0.65925   0.13524   0.00000  Uiso   1.00
C474   C     0.63768   0.89413   0.12550   0.00000  Uiso   1.00
C475   C     0.85744   0.61111   0.20806   0.00000  Uiso   1.00
C476   C     0.86505   0.60328   0.12534   0.00000  Uiso   1.00
C477   C     0.65276   0.87971   0.20621   0.00000  Uiso   1.00
C478   C     0.87783   0.91011   0.19747   0.00000  Uiso   1.00
C479   C     0.94018   0.68978   0.16663   0.00000  Uiso   1.00
C480   C     0.66138   0.62893   0.13823   0.00000  Uiso   1.00
C481   C     0.62188   0.58953   0.19826   0.00000  Uiso   1.00
C482   C     0.83885   0.87116   0.13644   0.00000  Uiso   1.00
C483   C     0.59798   0.83846   0.16606   0.00000  Uiso   1.00
C484   C     0.90789   0.65597   0.16659   0.00000  Uiso   1.00
C485   C     0.90703   0.84310   0.16597   0.00000  Uiso   1.00
C486   C     0.59236   0.65619   0.16619   0.00000  Uiso   1.00
C487   C     0.84484   0.59158   0.16667   0.00000  Uiso   1.00
C488   C     0.65924   0.90451   0.16639   0.00000  Uiso   1.00
C489   C     0.65697   0.59303   0.16753   0.00000  Uiso   1.00
C490   C     0.56163   0.80850   0.16659   0.00000  Uiso   1.00
C491   C     0.84269   0.90655   0.16686   0.00000  Uiso   1.00
C492   C     0.95448   0.60933   0.07936   0.00000  Uiso   1.00
C493   C     0.58373   0.85680   0.27509   0.00000  Uiso   1.00
C494   C     0.61928   0.80785   0.06765   0.00000  Uiso   1.00
C495   C     0.86215   0.70247   0.25202   0.00000  Uiso   1.00
C496   C     0.51976   0.59452   0.20663   0.00000  Uiso   1.00
C497   C     0.87877   0.81555   0.06192   0.00000  Uiso   1.00
C498   C     0.97932   0.90953   0.19599   0.00000  Uiso   1.00
C499   C     0.62168   0.67999   0.06118   0.00000  Uiso   1.00
C500   C     0.66115   0.90851   0.05244   0.00000  Uiso   1.00
C501   C     0.80992   0.93996   0.16669   0.00000  Uiso   1.00
C502   C     0.86978   0.56847   0.27002   0.00000  Uiso   1.00
C503   C     0.82812   0.61098   0.05853   0.00000  Uiso   1.00
C504   C     0.70846   0.85718   0.25290   0.00000  Uiso   1.00
C505   C     0.87354   0.93350   0.27100   0.00000  Uiso   1.00
C506   C     0.72829   0.66090   0.13867   0.00000  Uiso   1.00
C507   C     0.62818   0.56605   0.27167   0.00000  Uiso   1.00
C508   C     0.77006   0.84415   0.12691   0.00000  Uiso   1.00
C509   C     0.68986   0.55979   0.16684   0.00000  Uiso   1.00
C510   C     0.69006   0.93982   0.16666   0.00000  Uiso   1.00
C511   C     0.81065   0.55948   0.16667   0.00000  Uiso   1.00
C512   C     0.99445   0.78839   0.02407   0.00000  Uiso   1.00
H513   H     0.99024   0.81907   0.04236   0.00000  Uiso   1.00
H514   H     0.96649   0.61173   0.04388   0.00000  Uiso   1.00
H515   H     0.94248   0.57511   0.08414   0.00000  Uiso   1.00
H516   H     0.57551   0.83934   0.30693   0.00000  Uiso   1.00
H517   H     0.55226   0.86588   0.25820   0.00000  Uiso   1.00
H518   H     0.60173   0.88704   0.28474   0.00000  Uiso   1.00
H519   H     0.60454   0.79527   0.03580   0.00000  Uiso   1.00
H520   H     0.61963   0.78033   0.09251   0.00000  Uiso   1.00
H521   H     0.65374   0.81724   0.06022   0.00000  Uiso   1.00
H522   H     0.86370   0.72606   0.22313   0.00000  Uiso   1.00
H523   H     0.86927   0.72113   0.28356   0.00000  Uiso   1.00
H524   H     0.51007   0.68095   0.29098   0.00000  Uiso   1.00
H525   H     0.82840   0.68903   0.25520   0.00000  Uiso   1.00
H526   H     0.53097   0.56073   0.19704   0.00000  Uiso   1.00
H527   H     0.50627   0.61213   0.17663   0.00000  Uiso   1.00
H528   H     0.99259   0.59121   0.23151   0.00000  Uiso   1.00
H529   H     0.90872   0.83628   0.05992   0.00000  Uiso   1.00
H530   H     0.85053   0.83293   0.04578   0.00000  Uiso   1.00
H531   H     0.88546   0.78525   0.04184   0.00000  Uiso   1.00
H532   H     0.99161   0.89073   0.16600   0.00000  Uiso   1.00
H533   H     0.50793   0.91693   0.21788   0.00000  Uiso   1.00
H534   H     0.96492   0.94172   0.18508   0.00000  Uiso   1.00
H535   H     0.51025   0.68106   0.04217   0.00000  Uiso   1.00
H536   H     0.61764   0.70915   0.03886   0.00000  Uiso   1.00
H537   H     0.59069   0.66087   0.05912   0.00000  Uiso   1.00
H538   H     0.64960   0.66004   0.04765   0.00000  Uiso   1.00
H539   H     0.69126   0.88974   0.06261   0.00000  Uiso   1.00
H540   H     0.67185   0.93737   0.03247   0.00000  Uiso   1.00
H541   H     0.64036   0.88876   0.02939   0.00000  Uiso   1.00
H542   H     0.89937   0.58585   0.28264   0.00000  Uiso   1.00
H543   H     0.87970   0.54121   0.24662   0.00000  Uiso   1.00
H544   H     0.85341   0.55309   0.29956   0.00000  Uiso   1.00
H545   H     0.79657   0.61821   0.07611   0.00000  Uiso   1.00
H546   H     0.98945   0.81897   0.29119   0.00000  Uiso   1.00
H547   H     0.82003   0.59427   0.02620   0.00000  Uiso   1.00
H548   H     0.84501   0.64214   0.04981   0.00000  Uiso   1.00
H549   H     0.72037   0.85994   0.28840   0.00000  Uiso   1.00
H550   H     0.73671   0.86380   0.23019   0.00000  Uiso   1.00
H551   H     0.69691   0.82280   0.24814   0.00000  Uiso   1.00
H552   H     0.84378   0.91267   0.27421   0.00000  Uiso   1.00
H553   H     0.86779   0.96348   0.29185   0.00000  Uiso   1.00
H554   H     0.90260   0.91595   0.28534   0.00000  Uiso   1.00
H555   H     0.75644   0.67018   0.11695   0.00000  Uiso   1.00
H556   H     0.74146   0.64211   0.16820   0.00000  Uiso   1.00
H557   H     0.73457   0.56810   0.04232   0.00000  Uiso   1.00
H558   H     0.71250   0.69222   0.15036   0.00000  Uiso   1.00
H559   H     0.65721   0.58804   0.27385   0.00000  Uiso   1.00
H560   H     0.63608   0.53602   0.29164   0.00000  Uiso   1.00
H561   H     0.59921   0.58220   0.28781   0.00000  Uiso   1.00
H562   H     0.74447   0.83755   0.10102   0.00000  Uiso   1.00
H563   H     0.75431   0.86352   0.15453   0.00000  Uiso   1.00
H564   H     0.78199   0.81169   0.13988   0.00000  Uiso   1.00
H565   H     0.76512   0.93188   0.29099   0.00000  Uiso   1.00
H566   H     0.76585   0.93198   0.04210   0.00000  Uiso   1.00
H567   H     0.73559   0.56830   0.29120   0.00000  Uiso   1.00
H568   H     0.98275   0.61563   0.10218   0.00000  Uiso   1.00
N569   N     0.50000   0.75000   0.28573   0.00000  Uiso   1.00
N570   N     0.50000   0.75000   0.04760   0.00000  Uiso   1.00
N571   N     0.75000   0.50000   0.28573   0.00000  Uiso   1.00
N572   N     0.75000   0.50000   0.04760   0.00000  Uiso   1.00
O573   O     0.54580   0.70419   0.20487   0.00000  Uiso   1.00
O574   O     0.70419   0.54581   0.12846   0.00000  Uiso   1.00
O575   O     0.70419   0.54581   0.20487   0.00000  Uiso   1.00
O576   O     0.79580   0.95419   0.12846   0.00000  Uiso   1.00
O577   O     0.70419   0.95419   0.12846   0.00000  Uiso   1.00
O578   O     0.79580   0.54581   0.20487   0.00000  Uiso   1.00
O579   O     0.79580   0.54581   0.12846   0.00000  Uiso   1.00
O580   O     0.70419   0.95419   0.20487   0.00000  Uiso   1.00
O581   O     0.92128   0.64155   0.08597   0.00000  Uiso   1.00
O582   O     0.60936   0.82832   0.24753   0.00000  Uiso   1.00
O583   O     0.59395   0.84430   0.08311   0.00000  Uiso   1.00
O584   O     0.95419   0.79581   0.12846   0.00000  Uiso   1.00
O585   O     0.89379   0.66841   0.24744   0.00000  Uiso   1.00
O586   O     0.55374   0.61875   0.22701   0.00000  Uiso   1.00
O587   O     0.86861   0.80317   0.10693   0.00000  Uiso   1.00
O588   O     0.94906   0.88449   0.22119   0.00000  Uiso   1.00
O589   O     0.63025   0.69468   0.10583   0.00000  Uiso   1.00
O590   O     0.63634   0.92408   0.08981   0.00000  Uiso   1.00
O591   O     0.83998   0.59832   0.24938   0.00000  Uiso   1.00
O592   O     0.85501   0.58255   0.08471   0.00000  Uiso   1.00
O593   O     0.67490   0.88896   0.24620   0.00000  Uiso   1.00
O594   O     0.88133   0.94652   0.22568   0.00000  Uiso   1.00
O595   O     0.95419   0.79581   0.20487   0.00000  Uiso   1.00
O596   O     0.69925   0.63482   0.11296   0.00000  Uiso   1.00
O597   O     0.61858   0.55327   0.22661   0.00000  Uiso   1.00
O598   O     0.80389   0.86847   0.10644   0.00000  Uiso   1.00
O599   O     0.54580   0.70419   0.12846   0.00000  Uiso   1.00
O600   O     0.95419   0.70419   0.12846   0.00000  Uiso   1.00
O601   O     0.54580   0.79581   0.20487   0.00000  Uiso   1.00
O602   O     0.54580   0.79581   0.12846   0.00000  Uiso   1.00
O603   O     0.95419   0.70419   0.20487   0.00000  Uiso   1.00
O604   O     0.79580   0.95419   0.20487   0.00000  Uiso   1.00
Zn605  Zn    0.50000   0.75000   0.21771   0.00000  Uiso   1.00
Zn606  Zn    0.50000   0.75000   0.11563   0.00000  Uiso   1.00
Zn607  Zn    0.75000   0.50000   0.21771   0.00000  Uiso   1.00
Zn608  Zn    0.75000   0.50000   0.11563   0.00000  Uiso   1.00
C609   C     0.05983   0.18986   0.49991   0.00000  Uiso   1.00
C610   C     0.00563   0.21161   0.64260   0.00000  Uiso   1.00
C611   C     0.00563   0.21164   0.35729   0.00000  Uiso   1.00
C612   C     0.49418   0.28835   0.64272   0.00000  Uiso   1.00
C613   C     0.24144   0.03786   0.35739   0.00000  Uiso   1.00
C614   C     0.25854   0.46214   0.64260   0.00000  Uiso   1.00
C615   C     0.25893   0.46222   0.35727   0.00000  Uiso   1.00
C616   C     0.24181   0.03794   0.64271   0.00000  Uiso   1.00
C617   C     0.39927   0.13279   0.45947   0.00000  Uiso   1.00
C618   C     0.11897   0.34957   0.54045   0.00000  Uiso   1.00
C619   C     0.11083   0.35773   0.45780   0.00000  Uiso   1.00
C620   C     0.43985   0.30978   0.49989   0.00000  Uiso   1.00
C621   C     0.38577   0.14609   0.54060   0.00000  Uiso   1.00
C622   C     0.08866   0.12111   0.53025   0.00000  Uiso   1.00
C623   C     0.37204   0.33959   0.46849   0.00000  Uiso   1.00
C624   C     0.41158   0.37922   0.52848   0.00000  Uiso   1.00
C625   C     0.12726   0.15925   0.46857   0.00000  Uiso   1.00
C626   C     0.13768   0.39413   0.45883   0.00000  Uiso   1.00
C627   C     0.35744   0.11111   0.54139   0.00000  Uiso   1.00
C628   C     0.36505   0.10328   0.45868   0.00000  Uiso   1.00
C629   C     0.15276   0.37971   0.53954   0.00000  Uiso   1.00
C630   C     0.37783   0.41011   0.53081   0.00000  Uiso   1.00
C631   C     0.44018   0.18978   0.49996   0.00000  Uiso   1.00
C632   C     0.16138   0.12893   0.47157   0.00000  Uiso   1.00
C633   C     0.12188   0.08953   0.53159   0.00000  Uiso   1.00
C634   C     0.33885   0.37116   0.46977   0.00000  Uiso   1.00
C635   C     0.09798   0.33846   0.49940   0.00000  Uiso   1.00
C636   C     0.40789   0.15597   0.49993   0.00000  Uiso   1.00
C637   C     0.40703   0.34310   0.49931   0.00000  Uiso   1.00
C638   C     0.09236   0.15619   0.49953   0.00000  Uiso   1.00
C639   C     0.34484   0.09158   0.50000   0.00000  Uiso   1.00
C640   C     0.15924   0.40451   0.49972   0.00000  Uiso   1.00
C641   C     0.15697   0.09303   0.50086   0.00000  Uiso   1.00
C642   C     0.06163   0.30850   0.49993   0.00000  Uiso   1.00
C643   C     0.34269   0.40655   0.50019   0.00000  Uiso   1.00
C644   C     0.45448   0.10933   0.41270   0.00000  Uiso   1.00
C645   C     0.08373   0.35680   0.60842   0.00000  Uiso   1.00
C646   C     0.11928   0.30785   0.40098   0.00000  Uiso   1.00
C647   C     0.36215   0.20247   0.58535   0.00000  Uiso   1.00
C648   C     0.01976   0.09452   0.53997   0.00000  Uiso   1.00
C649   C     0.37877   0.31555   0.39525   0.00000  Uiso   1.00
C650   C     0.47932   0.40953   0.52932   0.00000  Uiso   1.00
C651   C     0.12168   0.17999   0.39452   0.00000  Uiso   1.00
C652   C     0.16115   0.40851   0.38578   0.00000  Uiso   1.00
C653   C     0.30992   0.43996   0.50002   0.00000  Uiso   1.00
C654   C     0.36978   0.06847   0.60336   0.00000  Uiso   1.00
C655   C     0.32812   0.11098   0.39187   0.00000  Uiso   1.00
C656   C     0.20846   0.35718   0.58624   0.00000  Uiso   1.00
C657   C     0.37354   0.43350   0.60433   0.00000  Uiso   1.00
C658   C     0.22829   0.16090   0.47200   0.00000  Uiso   1.00
C659   C     0.12818   0.06605   0.60501   0.00000  Uiso   1.00
C660   C     0.27006   0.34415   0.46024   0.00000  Uiso   1.00
C661   C     0.18986   0.05979   0.50017   0.00000  Uiso   1.00
C662   C     0.19006   0.43982   0.49999   0.00000  Uiso   1.00
C663   C     0.31065   0.05948   0.50000   0.00000  Uiso   1.00
C664   C     0.49445   0.28839   0.35741   0.00000  Uiso   1.00
H665   H     0.49024   0.31907   0.37570   0.00000  Uiso   1.00
H666   H     0.46649   0.11173   0.37722   0.00000  Uiso   1.00
H667   H     0.44248   0.07511   0.41747   0.00000  Uiso   1.00
H668   H     0.07551   0.33934   0.64027   0.00000  Uiso   1.00
H669   H     0.05226   0.36588   0.59154   0.00000  Uiso   1.00
H670   H     0.10173   0.38704   0.61807   0.00000  Uiso   1.00
H671   H     0.10454   0.29527   0.36913   0.00000  Uiso   1.00
H672   H     0.11963   0.28033   0.42584   0.00000  Uiso   1.00
H673   H     0.15374   0.31724   0.39355   0.00000  Uiso   1.00
H674   H     0.36370   0.22606   0.55646   0.00000  Uiso   1.00
H675   H     0.36927   0.22113   0.61689   0.00000  Uiso   1.00
H676   H     0.01007   0.18095   0.62432   0.00000  Uiso   1.00
H677   H     0.32840   0.18903   0.58853   0.00000  Uiso   1.00
H678   H     0.03097   0.06073   0.53037   0.00000  Uiso   1.00
H679   H     0.00627   0.11213   0.50996   0.00000  Uiso   1.00
H680   H     0.49259   0.09121   0.56485   0.00000  Uiso   1.00
H681   H     0.40872   0.33628   0.39325   0.00000  Uiso   1.00
H682   H     0.35053   0.33293   0.37911   0.00000  Uiso   1.00
H683   H     0.38546   0.28525   0.37517   0.00000  Uiso   1.00
H684   H     0.49161   0.39073   0.49933   0.00000  Uiso   1.00
H685   H     0.00793   0.41693   0.55122   0.00000  Uiso   1.00
H686   H     0.46492   0.44172   0.51841   0.00000  Uiso   1.00
H687   H     0.01025   0.18106   0.37550   0.00000  Uiso   1.00
H688   H     0.11764   0.20915   0.37219   0.00000  Uiso   1.00
H689   H     0.09069   0.16087   0.39245   0.00000  Uiso   1.00
H690   H     0.14960   0.16004   0.38099   0.00000  Uiso   1.00
H691   H     0.19126   0.38974   0.39594   0.00000  Uiso   1.00
H692   H     0.17185   0.43737   0.36580   0.00000  Uiso   1.00
H693   H     0.14036   0.38876   0.36272   0.00000  Uiso   1.00
H694   H     0.39937   0.08585   0.61597   0.00000  Uiso   1.00
H695   H     0.37970   0.04121   0.57995   0.00000  Uiso   1.00
H696   H     0.35341   0.05309   0.63290   0.00000  Uiso   1.00
H697   H     0.29657   0.11821   0.40944   0.00000  Uiso   1.00
H698   H     0.48945   0.31897   0.62452   0.00000  Uiso   1.00
H699   H     0.32003   0.09427   0.35953   0.00000  Uiso   1.00
H700   H     0.34501   0.14214   0.38314   0.00000  Uiso   1.00
H701   H     0.22037   0.35994   0.62173   0.00000  Uiso   1.00
H702   H     0.23671   0.36380   0.56353   0.00000  Uiso   1.00
H703   H     0.19691   0.32280   0.58147   0.00000  Uiso   1.00
H704   H     0.34378   0.41267   0.60754   0.00000  Uiso   1.00
H705   H     0.36779   0.46348   0.62518   0.00000  Uiso   1.00
H706   H     0.40260   0.41595   0.61867   0.00000  Uiso   1.00
H707   H     0.25644   0.17018   0.45029   0.00000  Uiso   1.00
H708   H     0.24146   0.14211   0.50154   0.00000  Uiso   1.00
H709   H     0.23457   0.06810   0.37566   0.00000  Uiso   1.00
H710   H     0.21250   0.19222   0.48370   0.00000  Uiso   1.00
H711   H     0.15721   0.08804   0.60718   0.00000  Uiso   1.00
H712   H     0.13608   0.03602   0.62498   0.00000  Uiso   1.00
H713   H     0.09921   0.08220   0.62114   0.00000  Uiso   1.00
H714   H     0.24447   0.33755   0.43436   0.00000  Uiso   1.00
H715   H     0.25431   0.36352   0.48787   0.00000  Uiso   1.00
H716   H     0.28199   0.31169   0.47321   0.00000  Uiso   1.00
H717   H     0.26512   0.43188   0.62432   0.00000  Uiso   1.00
H718   H     0.26585   0.43198   0.37543   0.00000  Uiso   1.00
H719   H     0.23559   0.06830   0.62453   0.00000  Uiso   1.00
H720   H     0.48275   0.11563   0.43551   0.00000  Uiso   1.00
N721   N    -0.00000   0.25000   0.61907   0.00000  Uiso   1.00
N722   N    -0.00000   0.25000   0.38093   0.00000  Uiso   1.00
N723   N     0.25000   0.00000   0.61907   0.00000  Uiso   1.00
N724   N     0.25000   0.00000   0.38093   0.00000  Uiso   1.00
O725   O     0.04580   0.20419   0.53821   0.00000  Uiso   1.00
O726   O     0.20419   0.04581   0.46179   0.00000  Uiso   1.00
O727   O     0.20419   0.04581   0.53821   0.00000  Uiso   1.00
O728   O     0.29580   0.45419   0.46179   0.00000  Uiso   1.00
O729   O     0.20419   0.45419   0.46179   0.00000  Uiso   1.00
O730   O     0.29580   0.04581   0.53821   0.00000  Uiso   1.00
O731   O     0.29580   0.04581   0.46179   0.00000  Uiso   1.00
O732   O     0.20419   0.45419   0.53821   0.00000  Uiso   1.00
O733   O     0.42128   0.14155   0.41930   0.00000  Uiso   1.00
O734   O     0.10936   0.32832   0.58086   0.00000  Uiso   1.00
O735   O     0.09395   0.34430   0.41644   0.00000  Uiso   1.00
O736   O     0.45419   0.29581   0.46179   0.00000  Uiso   1.00
O737   O     0.39379   0.16841   0.58078   0.00000  Uiso   1.00
O738   O     0.05374   0.11875   0.56034   0.00000  Uiso   1.00
O739   O     0.36861   0.30317   0.44026   0.00000  Uiso   1.00
O740   O     0.44906   0.38449   0.55452   0.00000  Uiso   1.00
O741   O     0.13025   0.19468   0.43916   0.00000  Uiso   1.00
O742   O     0.13634   0.42408   0.42315   0.00000  Uiso   1.00
O743   O     0.33998   0.09832   0.58271   0.00000  Uiso   1.00
O744   O     0.35501   0.08255   0.41804   0.00000  Uiso   1.00
O745   O     0.17490   0.38896   0.57954   0.00000  Uiso   1.00
O746   O     0.38133   0.44652   0.55902   0.00000  Uiso   1.00
O747   O     0.45419   0.29581   0.53821   0.00000  Uiso   1.00
O748   O     0.19925   0.13482   0.44629   0.00000  Uiso   1.00
O749   O     0.11858   0.05327   0.55995   0.00000  Uiso   1.00
O750   O     0.30389   0.36847   0.43978   0.00000  Uiso   1.00
O751   O     0.04580   0.20419   0.46179   0.00000  Uiso   1.00
O752   O     0.45419   0.20419   0.46179   0.00000  Uiso   1.00
O753   O     0.04580   0.29581   0.53821   0.00000  Uiso   1.00
O754   O     0.04580   0.29581   0.46179   0.00000  Uiso   1.00
O755   O     0.45419   0.20419   0.53821   0.00000  Uiso   1.00
O756   O     0.29580   0.45419   0.53821   0.00000  Uiso   1.00
Zn757  Zn   -0.00000   0.25000   0.55104   0.00000  Uiso   1.00
Zn758  Zn   -0.00000   0.25000   0.44896   0.00000  Uiso   1.00
Zn759  Zn    0.25000   0.00000   0.55104   0.00000  Uiso   1.00
Zn760  Zn    0.25000   0.00000   0.44896   0.00000  Uiso   1.00
C761   C     0.55983   0.18986   0.49991   0.00000  Uiso   1.00
C762   C     0.50563   0.21161   0.64260   0.00000  Uiso   1.00
C763   C     0.50563   0.21164   0.35729   0.00000  Uiso   1.00
C764   C     0.99418   0.28835   0.64272   0.00000  Uiso   1.00
C765   C     0.74144   0.03786   0.35739   0.00000  Uiso   1.00
C766   C     0.75854   0.46214   0.64260   0.00000  Uiso   1.00
C767   C     0.75893   0.46222   0.35727   0.00000  Uiso   1.00
C768   C     0.74181   0.03794   0.64271   0.00000  Uiso   1.00
C769   C     0.89927   0.13279   0.45947   0.00000  Uiso   1.00
C770   C     0.61897   0.34957   0.54045   0.00000  Uiso   1.00
C771   C     0.61083   0.35773   0.45780   0.00000  Uiso   1.00
C772   C     0.93985   0.30978   0.49989   0.00000  Uiso   1.00
C773   C     0.88577   0.14609   0.54060   0.00000  Uiso   1.00
C774   C     0.58866   0.12111   0.53025   0.00000  Uiso   1.00
C775   C     0.87204   0.33959   0.46849   0.00000  Uiso   1.00
C776   C     0.91158   0.37922   0.52848   0.00000  Uiso   1.00
C777   C     0.62726   0.15925   0.46857   0.00000  Uiso   1.00
C778   C     0.63768   0.39413   0.45883   0.00000  Uiso   1.00
C779   C     0.85744   0.11111   0.54139   0.00000  Uiso   1.00
C780   C     0.86505   0.10328   0.45868   0.00000  Uiso   1.00
C781   C     0.65276   0.37971   0.53954   0.00000  Uiso   1.00
C782   C     0.87783   0.41011   0.53081   0.00000  Uiso   1.00
C783   C     0.94018   0.18978   0.49996   0.00000  Uiso   1.00
C784   C     0.66138   0.12893   0.47157   0.00000  Uiso   1.00
C785   C     0.62188   0.08953   0.53159   0.00000  Uiso   1.00
C786   C     0.83885   0.37116   0.46977   0.00000  Uiso   1.00
C787   C     0.59798   0.33846   0.49940   0.00000  Uiso   1.00
C788   C     0.90789   0.15597   0.49993   0.00000  Uiso   1.00
C789   C     0.90703   0.34310   0.49931   0.00000  Uiso   1.00
C790   C     0.59236   0.15619   0.49953   0.00000  Uiso   1.00
C791   C     0.84484   0.09158   0.50000   0.00000  Uiso   1.00
C792   C     0.65924   0.40451   0.49972   0.00000  Uiso   1.00
C793   C     0.65697   0.09303   0.50086   0.00000  Uiso   1.00
C794   C     0.56163   0.30850   0.49993   0.00000  Uiso   1.00
C795   C     0.84269   0.40655   0.50019   0.00000  Uiso   1.00
C796   C     0.95448   0.10933   0.41270   0.00000  Uiso   1.00
C797   C     0.58373   0.35680   0.60842   0.00000  Uiso   1.00
C798   C     0.61928   0.30785   0.40098   0.00000  Uiso   1.00
C799   C     0.86215   0.20247   0.58535   0.00000  Uiso   1.00
C800   C     0.51976   0.09452   0.53997   0.00000  Uiso   1.00
C801   C     0.87877   0.31555   0.39525   0.00000  Uiso   1.00
C802   C     0.97932   0.40953   0.52932   0.00000  Uiso   1.00
C803   C     0.62168   0.17999   0.39452   0.00000  Uiso   1.00
C804   C     0.66115   0.40851   0.38578   0.00000  Uiso   1.00
C805   C     0.80992   0.43996   0.50002   0.00000  Uiso   1.00
C806   C     0.86978   0.06847   0.60336   0.00000  Uiso   1.00
C807   C     0.82812   0.11098   0.39187   0.00000  Uiso   1.00
C808   C     0.70846   0.35718   0.58624   0.00000  Uiso   1.00
C809   C     0.87354   0.43350   0.60433   0.00000  Uiso   1.00
C810   C     0.72829   0.16090   0.47200   0.00000  Uiso   1.00
C811   C     0.62818   0.06605   0.60501   0.00000  Uiso   1.00
C812   C     0.77006   0.34415   0.46024   0.00000  Uiso   1.00
C813   C     0.68986   0.05979   0.50017   0.00000  Uiso   1.00
C814   C     0.69006   0.43982   0.49999   0.00000  Uiso   1.00
C815   C     0.81065   0.05948   0.50000   0.00000  Uiso   1.00
C816   C     0.99445   0.28839   0.35741   0.00000  Uiso   1.00
H817   H     0.99024   0.31907   0.37570   0.00000  Uiso   1.00
H818   H     0.96649   0.11173   0.37722   0.00000  Uiso   1.00
H819   H     0.94248   0.07511   0.41747   0.00000  Uiso   1.00
H820   H     0.57551   0.33934   0.64027   0.00000  Uiso   1.00
H821   H     0.55226   0.36588   0.59154   0.00000  Uiso   1.00
H822   H     0.60173   0.38704   0.61807   0.00000  Uiso   1.00
H823   H     0.60454   0.29527   0.36913   0.00000  Uiso   1.00
H824   H     0.61963   0.28033   0.42584   0.00000  Uiso   1.00
H825   H     0.65374   0.31724   0.39355   0.00000  Uiso   1.00
H826   H     0.86370   0.22606   0.55646   0.00000  Uiso   1.00
H827   H     0.86927   0.22113   0.61689   0.00000  Uiso   1.00
H828   H     0.51007   0.18095   0.62432   0.00000  Uiso   1.00
H829   H     0.82840   0.18903   0.58853   0.00000  Uiso   1.00
H830   H     0.53097   0.06073   0.53037   0.00000  Uiso   1.00
H831   H     0.50627   0.11213   0.50996   0.00000  Uiso   1.00
H832   H     0.99259   0.09121   0.56485   0.00000  Uiso   1.00
H833   H     0.90872   0.33628   0.39325   0.00000  Uiso   1.00
H834   H     0.85053   0.33293   0.37911   0.00000  Uiso   1.00
H835   H     0.88546   0.28525   0.37517   0.00000  Uiso   1.00
H836   H     0.99161   0.39073   0.49933   0.00000  Uiso   1.00
H837   H     0.50793   0.41693   0.55122   0.00000  Uiso   1.00
H838   H     0.96492   0.44172   0.51841   0.00000  Uiso   1.00
H839   H     0.51025   0.18106   0.37550   0.00000  Uiso   1.00
H840   H     0.61764   0.20915   0.37219   0.00000  Uiso   1.00
H841   H     0.59069   0.16087   0.39245   0.00000  Uiso   1.00
H842   H     0.64960   0.16004   0.38099   0.00000  Uiso   1.00
H843   H     0.69126   0.38974   0.39594   0.00000  Uiso   1.00
H844   H     0.67185   0.43737   0.36580   0.00000  Uiso   1.00
H845   H     0.64036   0.38876   0.36272   0.00000  Uiso   1.00
H846   H     0.89937   0.08585   0.61597   0.00000  Uiso   1.00
H847   H     0.87970   0.04121   0.57995   0.00000  Uiso   1.00
H848   H     0.85341   0.05309   0.63290   0.00000  Uiso   1.00
H849   H     0.79657   0.11821   0.40944   0.00000  Uiso   1.00
H850   H     0.98945   0.31897   0.62452   0.00000  Uiso   1.00
H851   H     0.82003   0.09427   0.35953   0.00000  Uiso   1.00
H852   H     0.84501   0.14214   0.38314   0.00000  Uiso   1.00
H853   H     0.72037   0.35994   0.62173   0.00000  Uiso   1.00
H854   H     0.73671   0.36380   0.56353   0.00000  Uiso   1.00
H855   H     0.69691   0.32280   0.58147   0.00000  Uiso   1.00
H856   H     0.84378   0.41267   0.60754   0.00000  Uiso   1.00
H857   H     0.86779   0.46348   0.62518   0.00000  Uiso   1.00
H858   H     0.90260   0.41595   0.61867   0.00000  Uiso   1.00
H859   H     0.75644   0.17018   0.45029   0.00000  Uiso   1.00
H860   H     0.74146   0.14211   0.50154   0.00000  Uiso   1.00
H861   H     0.73457   0.06810   0.37566   0.00000  Uiso   1.00
H862   H     0.71250   0.19222   0.48370   0.00000  Uiso   1.00
H863   H     0.65721   0.08804   0.60718   0.00000  Uiso   1.00
H864   H     0.63608   0.03602   0.62498   0.00000  Uiso   1.00
H865   H     0.59921   0.08220   0.62114   0.00000  Uiso   1.00
H866   H     0.74447   0.33755   0.43436   0.00000  Uiso   1.00
H867   H     0.75431   0.36352   0.48787   0.00000  Uiso   1.00
H868   H     0.78199   0.31169   0.47321   0.00000  Uiso   1.00
H869   H     0.76512   0.43188   0.62432   0.00000  Uiso   1.00
H870   H     0.76585   0.43198   0.37543   0.00000  Uiso   1.00
H871   H     0.73559   0.06830   0.62453   0.00000  Uiso   1.00
H872   H     0.98275   0.11563   0.43551   0.00000  Uiso   1.00
N873   N     0.50000   0.25000   0.61907   0.00000  Uiso   1.00
N874   N     0.50000   0.25000   0.38093   0.00000  Uiso   1.00
N875   N     0.75000   0.00000   0.61907   0.00000  Uiso   1.00
N876   N     0.75000   0.00000   0.38093   0.00000  Uiso   1.00
O877   O     0.54580   0.20419   0.53821   0.00000  Uiso   1.00
O878   O     0.70419   0.04581   0.46179   0.00000  Uiso   1.00
O879   O     0.70419   0.04581   0.53821   0.00000  Uiso   1.00
O880   O     0.79580   0.45419   0.46179   0.00000  Uiso   1.00
O881   O     0.70419   0.45419   0.46179   0.00000  Uiso   1.00
O882   O     0.79580   0.04581   0.53821   0.00000  Uiso   1.00
O883   O     0.79580   0.04581   0.46179   0.00000  Uiso   1.00
O884   O     0.70419   0.45419   0.53821   0.00000  Uiso   1.00
O885   O     0.92128   0.14155   0.41930   0.00000  Uiso   1.00
O886   O     0.60936   0.32832   0.58086   0.00000  Uiso   1.00
O887   O     0.59395   0.34430   0.41644   0.00000  Uiso   1.00
O888   O     0.95419   0.29581   0.46179   0.00000  Uiso   1.00
O889   O     0.89379   0.16841   0.58078   0.00000  Uiso   1.00
O890   O     0.55374   0.11875   0.56034   0.00000  Uiso   1.00
O891   O     0.86861   0.30317   0.44026   0.00000  Uiso   1.00
O892   O     0.94906   0.38449   0.55452   0.00000  Uiso   1.00
O893   O     0.63025   0.19468   0.43916   0.00000  Uiso   1.00
O894   O     0.63634   0.42408   0.42315   0.00000  Uiso   1.00
O895   O     0.83998   0.09832   0.58271   0.00000  Uiso   1.00
O896   O     0.85501   0.08255   0.41804   0.00000  Uiso   1.00
O897   O     0.67490   0.38896   0.57954   0.00000  Uiso   1.00
O898   O     0.88133   0.44652   0.55902   0.00000  Uiso   1.00
O899   O     0.95419   0.29581   0.53821   0.00000  Uiso   1.00
O900   O     0.69925   0.13482   0.44629   0.00000  Uiso   1.00
O901   O     0.61858   0.05327   0.55995   0.00000  Uiso   1.00
O902   O     0.80389   0.36847   0.43978   0.00000  Uiso   1.00
O903   O     0.54580   0.20419   0.46179   0.00000  Uiso   1.00
O904   O     0.95419   0.20419   0.46179   0.00000  Uiso   1.00
O905   O     0.54580   0.29581   0.53821   0.00000  Uiso   1.00
O906   O     0.54580   0.29581   0.46179   0.00000  Uiso   1.00
O907   O     0.95419   0.20419   0.53821   0.00000  Uiso   1.00
O908   O     0.79580   0.45419   0.53821   0.00000  Uiso   1.00
Zn909  Zn    0.50000   0.25000   0.55104   0.00000  Uiso   1.00
Zn910  Zn    0.50000   0.25000   0.44896   0.00000  Uiso   1.00
Zn911  Zn    0.75000   0.00000   0.55104   0.00000  Uiso   1.00
Zn912  Zn    0.75000   0.00000   0.44896   0.00000  Uiso   1.00
C913   C     0.05983   0.68986   0.49991   0.00000  Uiso   1.00
C914   C     0.00563   0.71161   0.64260   0.00000  Uiso   1.00
C915   C     0.00563   0.71164   0.35729   0.00000  Uiso   1.00
C916   C     0.49418   0.78835   0.64272   0.00000  Uiso   1.00
C917   C     0.24144   0.53786   0.35739   0.00000  Uiso   1.00
C918   C     0.25854   0.96214   0.64260   0.00000  Uiso   1.00
C919   C     0.25893   0.96222   0.35727   0.00000  Uiso   1.00
C920   C     0.24181   0.53794   0.64271   0.00000  Uiso   1.00
C921   C     0.39927   0.63279   0.45947   0.00000  Uiso   1.00
C922   C     0.11897   0.84957   0.54045   0.00000  Uiso   1.00
C923   C     0.11083   0.85773   0.45780   0.00000  Uiso   1.00
C924   C     0.43985   0.80978   0.49989   0.00000  Uiso   1.00
C925   C     0.38577   0.64609   0.54060   0.00000  Uiso   1.00
C926   C     0.08866   0.62111   0.53025   0.00000  Uiso   1.00
C927   C     0.37204   0.83959   0.46849   0.00000  Uiso   1.00
C928   C     0.41158   0.87922   0.52848   0.00000  Uiso   1.00
C929   C     0.12726   0.65925   0.46857   0.00000  Uiso   1.00
C930   C     0.13768   0.89413   0.45883   0.00000  Uiso   1.00
C931   C     0.35744   0.61111   0.54139   0.00000  Uiso   1.00
C932   C     0.36505   0.60328   0.45868   0.00000  Uiso   1.00
C933   C     0.15276   0.87971   0.53954   0.00000  Uiso   1.00
C934   C     0.37783   0.91011   0.53081   0.00000  Uiso   1.00
C935   C     0.44018   0.68978   0.49996   0.00000  Uiso   1.00
C936   C     0.16138   0.62893   0.47157   0.00000  Uiso   1.00
C937   C     0.12188   0.58953   0.53159   0.00000  Uiso   1.00
C938   C     0.33885   0.87116   0.46977   0.00000  Uiso   1.00
C939   C     0.09798   0.83846   0.49940   0.00000  Uiso   1.00
C940   C     0.40789   0.65597   0.49993   0.00000  Uiso   1.00
C941   C     0.40703   0.84310   0.49931   0.00000  Uiso   1.00
C942   C     0.09236   0.65619   0.49953   0.00000  Uiso   1.00
C943   C     0.34484   0.59158   0.50000   0.00000  Uiso   1.00
C944   C     0.15924   0.90451   0.49972   0.00000  Uiso   1.00
C945   C     0.15697   0.59303   0.50086   0.00000  Uiso   1.00
C946   C     0.06163   0.80850   0.49993   0.00000  Uiso   1.00
C947   C     0.34269   0.90655   0.50019   0.00000  Uiso   1.00
C948   C     0.45448   0.60933   0.41270   0.00000  Uiso   1.00
C949   C     0.08373   0.85680   0.60842   0.00000  Uiso   1.00
C950   C     0.11928   0.80785   0.40098   0.00000  Uiso   1.00
C951   C     0.36215   0.70247   0.58535   0.00000  Uiso   1.00
C952   C     0.01976   0.59452   0.53997   0.00000  Uiso   1.00
C953   C     0.37877   0.81555   0.39525   0.00000  Uiso   1.00
C954   C     0.47932   0.90953   0.52932   0.00000  Uiso   1.00
C955   C     0.12168   0.67999   0.39452   0.00000  Uiso   1.00
C956   C     0.16115   0.90851   0.38578   0.00000  Uiso   1.00
C957   C     0.30992   0.93996   0.50002   0.00000  Uiso   1.00
C958   C     0.36978   0.56847   0.60336   0.00000  Uiso   1.00
C959   C     0.32812   0.61098   0.39187   0.00000  Uiso   1.00
C960   C     0.20846   0.85718   0.58624   0.00000  Uiso   1.00
C961   C     0.37354   0.93350   0.60433   0.00000  Uiso   1.00
C962   C     0.22829   0.66090   0.47200   0.00000  Uiso   1.00
C963   C     0.12818   0.56605   0.60501   0.00000  Uiso   1.00
C964   C     0.27006   0.84415   0.46024   0.00000  Uiso   1.00
C965   C     0.18986   0.55979   0.50017   0.00000  Uiso   1.00
C966   C     0.19006   0.93982   0.49999   0.00000  Uiso   1.00
C967   C     0.31065   0.55948   0.50000   0.00000  Uiso   1.00
C968   C     0.49445   0.78839   0.35741   0.00000  Uiso   1.00
H969   H     0.49024   0.81907   0.37570   0.00000  Uiso   1.00
H970   H     0.46649   0.61173   0.37722   0.00000  Uiso   1.00
H971   H     0.44248   0.57511   0.41747   0.00000  Uiso   1.00
H972   H     0.07551   0.83934   0.64027   0.00000  Uiso   1.00
H973   H     0.05226   0.86588   0.59154   0.00000  Uiso   1.00
H974   H     0.10173   0.88704   0.61807   0.00000  Uiso   1.00
H975   H     0.10454   0.79527   0.36913   0.00000  Uiso   1.00
H976   H     0.11963   0.78033   0.42584   0.00000  Uiso   1.00
H977   H     0.15374   0.81724   0.39355   0.00000  Uiso   1.00
H978   H     0.36370   0.72606   0.55646   0.00000  Uiso   1.00
H979   H     0.36927   0.72113   0.61689   0.00000  Uiso   1.00
H980   H     0.01007   0.68095   0.62432   0.00000  Uiso   1.00
H981   H     0.32840   0.68903   0.58853   0.00000  Uiso   1.00
H982   H     0.03097   0.56073   0.53037   0.00000  Uiso   1.00
H983   H     0.00627   0.61213   0.50996   0.00000  Uiso   1.00
H984   H     0.49259   0.59121   0.56485   0.00000  Uiso   1.00
H985   H     0.40872   0.83628   0.39325   0.00000  Uiso   1.00
H986   H     0.35053   0.83293   0.37911   0.00000  Uiso   1.00
H987   H     0.38546   0.78525   0.37517   0.00000  Uiso   1.00
H988   H     0.49161   0.89073   0.49933   0.00000  Uiso   1.00
H989   H     0.00793   0.91693   0.55122   0.00000  Uiso   1.00
H990   H     0.46492   0.94172   0.51841   0.00000  Uiso   1.00
H991   H     0.01025   0.68106   0.37550   0.00000  Uiso   1.00
H992   H     0.11764   0.70915   0.37219   0.00000  Uiso   1.00
H993   H     0.09069   0.66087   0.39245   0.00000  Uiso   1.00
H994   H     0.14960   0.66004   0.38099   0.00000  Uiso   1.00
H995   H     0.19126   0.88974   0.39594   0.00000  Uiso   1.00
H996   H     0.17185   0.93737   0.36580   0.00000  Uiso   1.00
H997   H     0.14036   0.88876   0.36272   0.00000  Uiso   1.00
H998   H     0.39937   0.58585   0.61597   0.00000  Uiso   1.00
H999   H     0.37970   0.54121   0.57995   0.00000  Uiso   1.00
H1000  H     0.35341   0.55309   0.63290   0.00000  Uiso   1.00
H1001  H     0.29657   0.61821   0.40944   0.00000  Uiso   1.00
H1002  H     0.48945   0.81897   0.62452   0.00000  Uiso   1.00
H1003  H     0.32003   0.59427   0.35953   0.00000  Uiso   1.00
H1004  H     0.34501   0.64214   0.38314   0.00000  Uiso   1.00
H1005  H     0.22037   0.85994   0.62173   0.00000  Uiso   1.00
H1006  H     0.23671   0.86380   0.56353   0.00000  Uiso   1.00
H1007  H     0.19691   0.82280   0.58147   0.00000  Uiso   1.00
H1008  H     0.34378   0.91267   0.60754   0.00000  Uiso   1.00
H1009  H     0.36779   0.96348   0.62518   0.00000  Uiso   1.00
H1010  H     0.40260   0.91595   0.61867   0.00000  Uiso   1.00
H1011  H     0.25644   0.67018   0.45029   0.00000  Uiso   1.00
H1012  H     0.24146   0.64211   0.50154   0.00000  Uiso   1.00
H1013  H     0.23457   0.56810   0.37566   0.00000  Uiso   1.00
H1014  H     0.21250   0.69222   0.48370   0.00000  Uiso   1.00
H1015  H     0.15721   0.58804   0.60718   0.00000  Uiso   1.00
H1016  H     0.13608   0.53602   0.62498   0.00000  Uiso   1.00
H1017  H     0.09921   0.58220   0.62114   0.00000  Uiso   1.00
H1018  H     0.24447   0.83755   0.43436   0.00000  Uiso   1.00
H1019  H     0.25431   0.86352   0.48787   0.00000  Uiso   1.00
H1020  H     0.28199   0.81169   0.47321   0.00000  Uiso   1.00
H1021  H     0.26512   0.93188   0.62432   0.00000  Uiso   1.00
H1022  H     0.26585   0.93198   0.37543   0.00000  Uiso   1.00
H1023  H     0.23559   0.56830   0.62453   0.00000  Uiso   1.00
H1024  H     0.48275   0.61563   0.43551   0.00000  Uiso   1.00
N1025  N    -0.00000   0.75000   0.61907   0.00000  Uiso   1.00
N1026  N    -0.00000   0.75000   0.38093   0.00000  Uiso   1.00
N1027  N     0.25000   0.50000   0.61907   0.00000  Uiso   1.00
N1028  N     0.25000   0.50000   0.38093   0.00000  Uiso   1.00
O1029  O     0.04580   0.70419   0.53821   0.00000  Uiso   1.00
O1030  O     0.20419   0.54581   0.46179   0.00000  Uiso   1.00
O1031  O     0.20419   0.54581   0.53821   0.00000  Uiso   1.00
O1032  O     0.29580   0.95419   0.46179   0.00000  Uiso   1.00
O1033  O     0.20419   0.95419   0.46179   0.00000  Uiso   1.00
O1034  O     0.29580   0.54581   0.53821   0.00000  Uiso   1.00
O1035  O     0.29580   0.54581   0.46179   0.00000  Uiso   1.00
O1036  O     0.20419   0.95419   0.53821   0.00000  Uiso   1.00
O1037  O     0.42128   0.64155   0.41930   0.00000  Uiso   1.00
O1038  O     0.10936   0.82832   0.58086   0.00000  Uiso   1.00
O1039  O     0.09395   0.84430   0.41644   0.00000  Uiso   1.00
O1040  O     0.45419   0.79581   0.46179   0.00000  Uiso   1.00
O1041  O     0.39379   0.66841   0.58078   0.00000  Uiso   1.00
O1042  O     0.05374   0.61875   0.56034   0.00000  Uiso   1.00
O1043  O     0.36861   0.80317   0.44026   0.00000  Uiso   1.00
O1044  O     0.44906   0.88449   0.55452   0.00000  Uiso   1.00
O1045  O     0.13025   0.69468   0.43916   0.00000  Uiso   1.00
O1046  O     0.13634   0.92408   0.42315   0.00000  Uiso   1.00
O1047  O     0.33998   0.59832   0.58271   0.00000  Uiso   1.00
O1048  O     0.35501   0.58255   0.41804   0.00000  Uiso   1.00
O1049  O     0.17490   0.88896   0.57954   0.00000  Uiso   1.00
O1050  O     0.38133   0.94652   0.55902   0.00000  Uiso   1.00
O1051  O     0.45419   0.79581   0.53821   0.00000  Uiso   1.00
O1052  O     0.19925   0.63482   0.44629   0.00000  Uiso   1.00
O1053  O     0.11858   0.55327   0.55995   0.00000  Uiso   1.00
O1054  O     0.30389   0.86847   0.43978   0.00000  Uiso   1.00
O1055  O     0.04580   0.70419   0.46179   0.00000  Uiso   1.00
O1056  O     0.45419   0.70419   0.46179   0.00000  Uiso   1.00
O1057  O     0.04580   0.79581   0.53821   0.00000  Uiso   1.00
O1058  O     0.04580   0.79581   0.46179   0.00000  Uiso   1.00
O1059  O     0.45419   0.70419   0.53821   0.00000  Uiso   1.00
O1060  O     0.29580   0.95419   0.53821   0.00000  Uiso   1.00
Zn1061 Zn   -0.00000   0.75000   0.55104   0.00000  Uiso   1.00
Zn1062 Zn   -0.00000   0.75000   0.44896   0.00000  Uiso   1.00
Zn1063 Zn    0.25000   0.50000   0.55104   0.00000  Uiso   1.00
Zn1064 Zn    0.25000   0.50000   0.44896   0.00000  Uiso   1.00
C1065  C     0.55983   0.68986   0.49991   0.00000  Uiso   1.00
C1066  C     0.50563   0.71161   0.64260   0.00000  Uiso   1.00
C1067  C     0.50563   0.71164   0.35729   0.00000  Uiso   1.00
C1068  C     0.99418   0.78835   0.64272   0.00000  Uiso   1.00
C1069  C     0.74144   0.53786   0.35739   0.00000  Uiso   1.00
C1070  C     0.75854   0.96214   0.64260   0.00000  Uiso   1.00
C1071  C     0.75893   0.96222   0.35727   0.00000  Uiso   1.00
C1072  C     0.74181   0.53794   0.64271   0.00000  Uiso   1.00
C1073  C     0.89927   0.63279   0.45947   0.00000  Uiso   1.00
C1074  C     0.61897   0.84957   0.54045   0.00000  Uiso   1.00
C1075  C     0.61083   0.85773   0.45780   0.00000  Uiso   1.00
C1076  C     0.93985   0.80978   0.49989   0.00000  Uiso   1.00
C1077  C     0.88577   0.64609   0.54060   0.00000  Uiso   1.00
C1078  C     0.58866   0.62111   0.53025   0.00000  Uiso   1.00
C1079  C     0.87204   0.83959   0.46849   0.00000  Uiso   1.00
C1080  C     0.91158   0.87922   0.52848   0.00000  Uiso   1.00
C1081  C     0.62726   0.65925   0.46857   0.00000  Uiso   1.00
C1082  C     0.63768   0.89413   0.45883   0.00000  Uiso   1.00
C1083  C     0.85744   0.61111   0.54139   0.00000  Uiso   1.00
C1084  C     0.86505   0.60328   0.45868   0.00000  Uiso   1.00
C1085  C     0.65276   0.87971   0.53954   0.00000  Uiso   1.00
C1086  C     0.87783   0.91011   0.53081   0.00000  Uiso   1.00
C1087  C     0.94018   0.68978   0.49996   0.00000  Uiso   1.00
C1088  C     0.66138   0.62893   0.47157   0.00000  Uiso   1.00
C1089  C     0.62188   0.58953   0.53159   0.00000  Uiso   1.00
C1090  C     0.83885   0.87116   0.46977   0.00000  Uiso   1.00
C1091  C     0.59798   0.83846   0.49940   0.00000  Uiso   1.00
C1092  C     0.90789   0.65597   0.49993   0.00000  Uiso   1.00
C1093  C     0.90703   0.84310   0.49931   0.00000  Uiso   1.00
C1094  C     0.59236   0.65619   0.49953   0.00000  Uiso   1.00
C1095  C     0.84484   0.59158   0.50000   0.00000  Uiso   1.00
C1096  C     0.65924   0.90451   0.49972   0.00000  Uiso   1.00
C1097  C     0.65697   0.59303   0.50086   0.00000  Uiso   1.00
C1098  C     0.56163   0.80850   0.49993   0.00000  Uiso   1.00
C1099  C     0.84269   0.90655   0.50019   0.00000  Uiso   1.00
C1100  C     0.95448   0.60933   0.41270   0.00000  Uiso   1.00
C1101  C     0.58373   0.85680   0.60842   0.00000  Uiso   1.00
C1102  C     0.61928   0.80785   0.40098   0.00000  Uiso   1.00
C1103  C     0.86215   0.70247   0.58535   0.00000  Uiso   1.00
C1104  C     0.51976   0.59452   0.53997   0.00000  Uiso   1.00
C1105  C     0.87877   0.81555   0.39525   0.00000  Uiso   1.00
C1106  C     0.97932   0.90953   0.52932   0.00000  Uiso   1.00
C1107  C     0.62168   0.67999   0.39452   0.00000  Uiso   1.00
C1108  C     0.66115   0.90851   0.38578   0.00000  Uiso   1.00
C1109  C     0.80992   0.93996   0.50002   0.00000  Uiso   1.00
C1110  C     0.86978   0.56847   0.60336   0.00000  Uiso   1.00
C1111  C     0.82812   0.61098   0.39187   0.00000  Uiso   1.00
C1112  C     0.70846   0.85718   0.58624   0.00000  Uiso   1.00
C1113  C     0.87354   0.93350   0.60433   0.00000  Uiso   1.00
C1114  C     0.72829   0.66090   0.47200   0.00000  Uiso   1.00
C1115  C     0.62818   0.56605   0.60501   0.00000  Uiso   1.00
C1116  C     0.77006   0.84415   0.46024   0.00000  Uiso   1.00
C1117  C     0.68986   0.55979   0.50017   0.00000  Uiso   1.00
C1118  C     0.69006   0.93982   0.49999   0.00000  Uiso   1.00
C1119  C     0.81065   0.55948   0.50000   0.00000  Uiso   1.00
C1120  C     0.99445   0.78839   0.35741   0.00000  Uiso   1.00
H1121  H     0.99024   0.81907   0.37570   0.00000  Uiso   1.00
H1122  H     0.96649   0.61173   0.37722   0.00000  Uiso   1.00
H1123  H     0.94248   0.57511   0.41747   0.00000  Uiso   1.00
H1124  H     0.57551   0.83934   0.64027   0.00000  Uiso   1.00
H1125  H     0.55226   0.86588   0.59154   0.00000  Uiso   1.00
H1126  H     0.60173   0.88704   0.61807   0.00000  Uiso   1.00
H1127  H     0.60454   0.79527   0.36913   0.00000  Uiso   1.00
H1128  H     0.61963   0.78033   0.42584   0.00000  Uiso   1.00
H1129  H     0.65374   0.81724   0.39355   0.00000  Uiso   1.00
H1130  H     0.86370   0.72606   0.55646   0.00000  Uiso   1.00
H1131  H     0.86927   0.72113   0.61689   0.00000  Uiso   1.00
H1132  H     0.51007   0.68095   0.62432   0.00000  Uiso   1.00
H1133  H     0.82840   0.68903   0.58853   0.00000  Uiso   1.00
H1134  H     0.53097   0.56073   0.53037   0.00000  Uiso   1.00
H1135  H     0.50627   0.61213   0.50996   0.00000  Uiso   1.00
H1136  H     0.99259   0.59121   0.56485   0.00000  Uiso   1.00
H1137  H     0.90872   0.83628   0.39325   0.00000  Uiso   1.00
H1138  H     0.85053   0.83293   0.37911   0.00000  Uiso   1.00
H1139  H     0.88546   0.78525   0.37517   0.00000  Uiso   1.00
H1140  H     0.99161   0.89073   0.49933   0.00000  Uiso   1.00
H1141  H     0.50793   0.91693   0.55122   0.00000  Uiso   1.00
H1142  H     0.96492   0.94172   0.51841   0.00000  Uiso   1.00
H1143  H     0.51025   0.68106   0.37550   0.00000  Uiso   1.00
H1144  H     0.61764   0.70915   0.37219   0.00000  Uiso   1.00
H1145  H     0.59069   0.66087   0.39245   0.00000  Uiso   1.00
H1146  H     0.64960   0.66004   0.38099   0.00000  Uiso   1.00
H1147  H     0.69126   0.88974   0.39594   0.00000  Uiso   1.00
H1148  H     0.67185   0.93737   0.36580   0.00000  Uiso   1.00
H1149  H     0.64036   0.88876   0.36272   0.00000  Uiso   1.00
H1150  H     0.89937   0.58585   0.61597   0.00000  Uiso   1.00
H1151  H     0.87970   0.54121   0.57995   0.00000  Uiso   1.00
H1152  H     0.85341   0.55309   0.63290   0.00000  Uiso   1.00
H1153  H     0.79657   0.61821   0.40944   0.00000  Uiso   1.00
H1154  H     0.98945   0.81897   0.62452   0.00000  Uiso   1.00
H1155  H     0.82003   0.59427   0.35953   0.00000  Uiso   1.00
H1156  H     0.84501   0.64214   0.38314   0.00000  Uiso   1.00
H1157  H     0.72037   0.85994   0.62173   0.00000  Uiso   1.00
H1158  H     0.73671   0.86380   0.56353   0.00000  Uiso   1.00
H1159  H     0.69691   0.82280   0.58147   0.00000  Uiso   1.00
H1160  H     0.84378   0.91267   0.60754   0.00000  Uiso   1.00
H1161  H     0.86779   0.96348   0.62518   0.00000  Uiso   1.00
H1162  H     0.90260   0.91595   0.61867   0.00000  Uiso   1.00
H1163  H     0.75644   0.67018   0.45029   0.00000  Uiso   1.00
H1164  H     0.74146   0.64211   0.50154   0.00000  Uiso   1.00
H1165  H     0.73457   0.56810   0.37566   0.00000  Uiso   1.00
H1166  H     0.71250   0.69222   0.48370   0.00000  Uiso   1.00
H1167  H     0.65721   0.58804   0.60718   0.00000  Uiso   1.00
H1168  H     0.63608   0.53602   0.62498   0.00000  Uiso   1.00
H1169  H     0.59921   0.58220   0.62114   0.00000  Uiso   1.00
H1170  H     0.74447   0.83755   0.43436   0.00000  Uiso   1.00
H1171  H     0.75431   0.86352   0.48787   0.00000  Uiso   1.00
H1172  H     0.78199   0.81169   0.47321   0.00000  Uiso   1.00
H1173  H     0.76512   0.93188   0.62432   0.00000  Uiso   1.00
H1174  H     0.76585   0.93198   0.37543   0.00000  Uiso   1.00
H1175  H     0.73559   0.56830   0.62453   0.00000  Uiso   1.00
H1176  H     0.98275   0.61563   0.43551   0.00000  Uiso   1.00
N1177  N     0.50000   0.75000   0.61907   0.00000  Uiso   1.00
N1178  N     0.50000   0.75000   0.38093   0.00000  Uiso   1.00
N1179  N     0.75000   0.50000   0.61907   0.00000  Uiso   1.00
N1180  N     0.75000   0.50000   0.38093   0.00000  Uiso   1.00
O1181  O     0.54580   0.70419   0.53821   0.00000  Uiso   1.00
O1182  O     0.70419   0.54581   0.46179   0.00000  Uiso   1.00
O1183  O     0.70419   0.54581   0.53821   0.00000  Uiso   1.00
O1184  O     0.79580   0.95419   0.46179   0.00000  Uiso   1.00
O1185  O     0.70419   0.95419   0.46179   0.00000  Uiso   1.00
O1186  O     0.79580   0.54581   0.53821   0.00000  Uiso   1.00
O1187  O     0.79580   0.54581   0.46179   0.00000  Uiso   1.00
O1188  O     0.70419   0.95419   0.53821   0.00000  Uiso   1.00
O1189  O     0.92128   0.64155   0.41930   0.00000  Uiso   1.00
O1190  O     0.60936   0.82832   0.58086   0.00000  Uiso   1.00
O1191  O     0.59395   0.84430   0.41644   0.00000  Uiso   1.00
O1192  O     0.95419   0.79581   0.46179   0.00000  Uiso   1.00
O1193  O     0.89379   0.66841   0.58078   0.00000  Uiso   1.00
O1194  O     0.55374   0.61875   0.56034   0.00000  Uiso   1.00
O1195  O     0.86861   0.80317   0.44026   0.00000  Uiso   1.00
O1196  O     0.94906   0.88449   0.55452   0.00000  Uiso   1.00
O1197  O     0.63025   0.69468   0.43916   0.00000  Uiso   1.00
O1198  O     0.63634   0.92408   0.42315   0.00000  Uiso   1.00
O1199  O     0.83998   0.59832   0.58271   0.00000  Uiso   1.00
O1200  O     0.85501   0.58255   0.41804   0.00000  Uiso   1.00
O1201  O     0.67490   0.88896   0.57954   0.00000  Uiso   1.00
O1202  O     0.88133   0.94652   0.55902   0.00000  Uiso   1.00
O1203  O     0.95419   0.79581   0.53821   0.00000  Uiso   1.00
O1204  O     0.69925   0.63482   0.44629   0.00000  Uiso   1.00
O1205  O     0.61858   0.55327   0.55995   0.00000  Uiso   1.00
O1206  O     0.80389   0.86847   0.43978   0.00000  Uiso   1.00
O1207  O     0.54580   0.70419   0.46179   0.00000  Uiso   1.00
O1208  O     0.95419   0.70419   0.46179   0.00000  Uiso   1.00
O1209  O     0.54580   0.79581   0.53821   0.00000  Uiso   1.00
O1210  O     0.54580   0.79581   0.46179   0.00000  Uiso   1.00
O1211  O     0.95419   0.70419   0.53821   0.00000  Uiso   1.00
O1212  O     0.79580   0.95419   0.53821   0.00000  Uiso   1.00
Zn1213 Zn    0.50000   0.75000   0.55104   0.00000  Uiso   1.00
Zn1214 Zn    0.50000   0.75000   0.44896   0.00000  Uiso   1.00
Zn1215 Zn    0.75000   0.50000   0.55104   0.00000  Uiso   1.00
Zn1216 Zn    0.75000   0.50000   0.44896   0.00000  Uiso   1.00
C1217  C     0.05983   0.18986   0.83324   0.00000  Uiso   1.00
C1218  C     0.00563   0.21161   0.97593   0.00000  Uiso   1.00
C1219  C     0.00563   0.21164   0.69062   0.00000  Uiso   1.00
C1220  C     0.49418   0.28835   0.97605   0.00000  Uiso   1.00
C1221  C     0.24144   0.03786   0.69073   0.00000  Uiso   1.00
C1222  C     0.25854   0.46214   0.97593   0.00000  Uiso   1.00
C1223  C     0.25893   0.46222   0.69060   0.00000  Uiso   1.00
C1224  C     0.24181   0.03794   0.97605   0.00000  Uiso   1.00
C1225  C     0.39927   0.13279   0.79280   0.00000  Uiso   1.00
C1226  C     0.11897   0.34957   0.87378   0.00000  Uiso   1.00
C1227  C     0.11083   0.35773   0.79113   0.00000  Uiso   1.00
C1228  C     0.43985   0.30978   0.83322   0.00000  Uiso   1.00
C1229  C     0.38577   0.14609   0.87393   0.00000  Uiso   1.00
C1230  C     0.08866   0.12111   0.86358   0.00000  Uiso   1.00
C1231  C     0.37204   0.33959   0.80182   0.00000  Uiso   1.00
C1232  C     0.41158   0.37922   0.86181   0.00000  Uiso   1.00
C1233  C     0.12726   0.15925   0.80191   0.00000  Uiso   1.00
C1234  C     0.13768   0.39413   0.79216   0.00000  Uiso   1.00
C1235  C     0.35744   0.11111   0.87472   0.00000  Uiso   1.00
C1236  C     0.36505   0.10328   0.79201   0.00000  Uiso   1.00
C1237  C     0.15276   0.37971   0.87288   0.00000  Uiso   1.00
C1238  C     0.37783   0.41011   0.86414   0.00000  Uiso   1.00
C1239  C     0.44018   0.18978   0.83330   0.00000  Uiso   1.00
C1240  C     0.16138   0.12893   0.80490   0.00000  Uiso   1.00
C1241  C     0.12188   0.08953   0.86492   0.00000  Uiso   1.00
C1242  C     0.33885   0.37116   0.80310   0.00000  Uiso   1.00
C1243  C     0.09798   0.33846   0.83273   0.00000  Uiso   1.00
C1244  C     0.40789   0.15597   0.83326   0.00000  Uiso   1.00
C1245  C     0.40703   0.34310   0.83264   0.00000  Uiso   1.00
C1246  C     0.09236   0.15619   0.83286   0.00000  Uiso   1.00
C1247  C     0.34484   0.09158   0.83333   0.00000  Uiso   1.00
C1248  C     0.15924   0.40451   0.83305   0.00000  Uiso   1.00
C1249  C     0.15697   0.09303   0.83419   0.00000  Uiso   1.00
C1250  C     0.06163   0.30850   0.83326   0.00000  Uiso   1.00
C1251  C     0.34269   0.40655   0.83353   0.00000  Uiso   1.00
C1252  C     0.45448   0.10933   0.74603   0.00000  Uiso   1.00
C1253  C     0.08373   0.35680   0.94176   0.00000  Uiso   1.00
C1254  C     0.11928   0.30785   0.73432   0.00000  Uiso   1.00
C1255  C     0.36215   0.20247   0.91868   0.00000  Uiso   1.00
C1256  C     0.01976   0.09452   0.87330   0.00000  Uiso   1.00
C1257  C     0.37877   0.31555   0.72859   0.00000  Uiso   1.00
C1258  C     0.47932   0.40953   0.86266   0.00000  Uiso   1.00
C1259  C     0.12168   0.17999   0.72785   0.00000  Uiso   1.00
C1260  C     0.16115   0.40851   0.71911   0.00000  Uiso   1.00
C1261  C     0.30992   0.43996   0.83335   0.00000  Uiso   1.00
C1262  C     0.36978   0.06847   0.93669   0.00000  Uiso   1.00
C1263  C     0.32812   0.11098   0.72520   0.00000  Uiso   1.00
C1264  C     0.20846   0.35718   0.91957   0.00000  Uiso   1.00
C1265  C     0.37354   0.43350   0.93766   0.00000  Uiso   1.00
C1266  C     0.22829   0.16090   0.80533   0.00000  Uiso   1.00
C1267  C     0.12818   0.06605   0.93834   0.00000  Uiso   1.00
C1268  C     0.27006   0.34415   0.79358   0.00000  Uiso   1.00
C1269  C     0.18986   0.05979   0.83351   0.00000  Uiso   1.00
C1270  C     0.19006   0.43982   0.83332   0.00000  Uiso   1.00
C1271  C     0.31065   0.05948   0.83333   0.00000  Uiso   1.00
C1272  C     0.49445   0.28839   0.69074   0.00000  Uiso   1.00
H1273  H     0.49024   0.31907   0.70903   0.00000  Uiso   1.00
H1274  H     0.46649   0.11173   0.71055   0.00000  Uiso   1.00
H1275  H     0.44248   0.07511   0.75081   0.00000  Uiso   1.00
H1276  H     0.07551   0.33934   0.97360   0.00000  Uiso   1.00
H1277  H     0.05226   0.36588   0.92487   0.00000  Uiso   1.00
H1278  H     0.10173   0.38704   0.95141   0.00000  Uiso   1.00
H1279  H     0.10454   0.29527   0.70247   0.00000  Uiso   1.00
H1280  H     0.11963   0.28033   0.75918   0.00000  Uiso   1.00
H1281  H     0.15374   0.31724   0.72688   0.00000  Uiso   1.00
H1282  H     0.36370   0.22606   0.88979   0.00000  Uiso   1.00
H1283  H     0.36927   0.22113   0.95022   0.00000  Uiso   1.00
H1284  H     0.01007   0.18095   0.95765   0.00000  Uiso   1.00
H1285  H     0.32840   0.18903   0.92187   0.00000  Uiso   1.00
H1286  H     0.03097   0.06073   0.86370   0.00000  Uiso   1.00
H1287  H     0.00627   0.11213   0.84330   0.00000  Uiso   1.00
H1288  H     0.49259   0.09121   0.89818   0.00000  Uiso   1.00
H1289  H     0.40872   0.33628   0.72659   0.00000  Uiso   1.00
H1290  H     0.35053   0.33293   0.71244   0.00000  Uiso   1.00
H1291  H     0.38546   0.28525   0.70851   0.00000  Uiso   1.00
H1292  H     0.49161   0.39073   0.83266   0.00000  Uiso   1.00
H1293  H     0.00793   0.41693   0.88455   0.00000  Uiso   1.00
H1294  H     0.46492   0.44172   0.85174   0.00000  Uiso   1.00
H1295  H     0.01025   0.18106   0.70884   0.00000  Uiso   1.00
H1296  H     0.11764   0.20915   0.70552   0.00000  Uiso   1.00
H1297  H     0.09069   0.16087   0.72578   0.00000  Uiso   1.00
H1298  H     0.14960   0.16004   0.71432   0.00000  Uiso   1.00
H1299  H     0.19126   0.38974   0.72928   0.00000  Uiso   1.00
H1300  H     0.17185   0.43737   0.69914   0.00000  Uiso   1.00
H1301  H     0.14036   0.38876   0.69606   0.00000  Uiso   1.00
H1302  H     0.39937   0.08585   0.94931   0.00000  Uiso   1.00
H1303  H     0.37970   0.04121   0.91329   0.00000  Uiso   1.00
H1304  H     0.35341   0.05309   0.96623   0.00000  Uiso   1.00
H1305  H     0.29657   0.11821   0.74278   0.00000  Uiso   1.00
H1306  H     0.48945   0.31897   0.95786   0.00000  Uiso   1.00
H1307  H     0.32003   0.09427   0.69286   0.00000  Uiso   1.00
H1308  H     0.34501   0.14214   0.71648   0.00000  Uiso   1.00
H1309  H     0.22037   0.35994   0.95507   0.00000  Uiso   1.00
H1310  H     0.23671   0.36380   0.89686   0.00000  Uiso   1.00
H1311  H     0.19691   0.32280   0.91481   0.00000  Uiso   1.00
H1312  H     0.34378   0.41267   0.94088   0.00000  Uiso   1.00
H1313  H     0.36779   0.46348   0.95852   0.00000  Uiso   1.00
H1314  H     0.40260   0.41595   0.95200   0.00000  Uiso   1.00
H1315  H     0.25644   0.17018   0.78362   0.00000  Uiso   1.00
H1316  H     0.24146   0.14211   0.83487   0.00000  Uiso   1.00
H1317  H     0.23457   0.06810   0.70899   0.00000  Uiso   1.00
H1318  H     0.21250   0.19222   0.81703   0.00000  Uiso   1.00
H1319  H     0.15721   0.08804   0.94051   0.00000  Uiso   1.00
H1320  H     0.13608   0.03602   0.95831   0.00000  Uiso   1.00
H1321  H     0.09921   0.08220   0.95448   0.00000  Uiso   1.00
H1322  H     0.24447   0.33755   0.76769   0.00000  Uiso   1.00
H1323  H     0.25431   0.36352   0.82120   0.00000  Uiso   1.00
H1324  H     0.28199   0.31169   0.80655   0.00000  Uiso   1.00
H1325  H     0.26512   0.43188   0.95765   0.00000  Uiso   1.00
H1326  H     0.26585   0.43198   0.70877   0.00000  Uiso   1.00
H1327  H     0.23559   0.06830   0.95786   0.00000  Uiso   1.00
H1328  H     0.48275   0.11563   0.76884   0.00000  Uiso   1.00
N1329  N    -0.00000   0.25000   0.95240   0.00000  Uiso   1.00
N1330  N    -0.00000   0.25000   0.71427   0.00000  Uiso   1.00
N1331  N     0.25000   0.00000   0.95240   0.00000  Uiso   1.00
N1332  N     0.25000   0.00000   0.71427   0.00000  Uiso   1.00
O1333  O     0.04580   0.20419   0.87154   0.00000  Uiso   1.00
O1334  O     0.20419   0.04581   0.79513   0.00000  Uiso   1.00
O1335  O     0.20419   0.04581   0.87154   0.00000  Uiso   1.00
O1336  O     0.29580   0.45419   0.79513   0.00000  Uiso   1.00
O1337  O     0.20419   0.45419   0.79513   0.00000  Uiso   1.00
O1338  O     0.29580   0.04581   0.87154   0.00000  Uiso   1.00
O1339  O     0.29580   0.04581   0.79513   0.00000  Uiso   1.00
O1340  O     0.20419   0.45419   0.87154   0.00000  Uiso   1.00
O1341  O     0.42128   0.14155   0.75264   0.00000  Uiso   1.00
O1342  O     0.10936   0.32832   0.91419   0.00000  Uiso   1.00
O1343  O     0.09395   0.34430   0.74978   0.00000  Uiso   1.00
O1344  O     0.45419   0.29581   0.79513   0.00000  Uiso   1.00
O1345  O     0.39379   0.16841   0.91411   0.00000  Uiso   1.00
O1346  O     0.05374   0.11875   0.89367   0.00000  Uiso   1.00
O1347  O     0.36861   0.30317   0.77360   0.00000  Uiso   1.00
O1348  O     0.44906   0.38449   0.88786   0.00000  Uiso   1.00
O1349  O     0.13025   0.19468   0.77250   0.00000  Uiso   1.00
O1350  O     0.13634   0.42408   0.75648   0.00000  Uiso   1.00
O1351  O     0.33998   0.09832   0.91605   0.00000  Uiso   1.00
O1352  O     0.35501   0.08255   0.75138   0.00000  Uiso   1.00
O1353  O     0.17490   0.38896   0.91287   0.00000  Uiso   1.00
O1354  O     0.38133   0.44652   0.89235   0.00000  Uiso   1.00
O1355  O     0.45419   0.29581   0.87154   0.00000  Uiso   1.00
O1356  O     0.19925   0.13482   0.77962   0.00000  Uiso   1.00
O1357  O     0.11858   0.05327   0.89328   0.00000  Uiso   1.00
O1358  O     0.30389   0.36847   0.77311   0.00000  Uiso   1.00
O1359  O     0.04580   0.20419   0.79513   0.00000  Uiso   1.00
O1360  O     0.45419   0.20419   0.79513   0.00000  Uiso   1.00
O1361  O     0.04580   0.29581   0.87154   0.00000  Uiso   1.00
O1362  O     0.04580   0.29581   0.79513   0.00000  Uiso   1.00
O1363  O     0.45419   0.20419   0.87154   0.00000  Uiso   1.00
O1364  O     0.29580   0.45419   0.87154   0.00000  Uiso   1.00
Zn1365 Zn   -0.00000   0.25000   0.88437   0.00000  Uiso   1.00
Zn1366 Zn   -0.00000   0.25000   0.78229   0.00000  Uiso   1.00
Zn1367 Zn    0.25000   0.00000   0.88437   0.00000  Uiso   1.00
Zn1368 Zn    0.25000   0.00000   0.78229   0.00000  Uiso   1.00
C1369  C     0.55983   0.18986   0.83324   0.00000  Uiso   1.00
C1370  C     0.50563   0.21161   0.97593   0.00000  Uiso   1.00
C1371  C     0.50563   0.21164   0.69062   0.00000  Uiso   1.00
C1372  C     0.99418   0.28835   0.97605   0.00000  Uiso   1.00
C1373  C     0.74144   0.03786   0.69073   0.00000  Uiso   1.00
C1374  C     0.75854   0.46214   0.97593   0.00000  Uiso   1.00
C1375  C     0.75893   0.46222   0.69060   0.00000  Uiso   1.00
C1376  C     0.74181   0.03794   0.97605   0.00000  Uiso   1.00
C1377  C     0.89927   0.13279   0.79280   0.00000  Uiso   1.00
C1378  C     0.61897   0.34957   0.87378   0.00000  Uiso   1.00
C1379  C     0.61083   0.35773   0.79113   0.00000  Uiso   1.00
C1380  C     0.93985   0.30978   0.83322   0.00000  Uiso   1.00
C1381  C     0.88577   0.14609   0.87393   0.00000  Uiso   1.00
C1382  C     0.58866   0.12111   0.86358   0.00000  Uiso   1.00
C1383  C     0.87204   0.33959   0.80182   0.00000  Uiso   1.00
C1384  C     0.91158   0.37922   0.86181   0.00000  Uiso   1.00
C1385  C     0.62726   0.15925   0.80191   0.00000  Uiso   1.00
C1386  C     0.63768   0.39413   0.79216   0.00000  Uiso   1.00
C1387  C     0.85744   0.11111   0.87472   0.00000  Uiso   1.00
C1388  C     0.86505   0.10328   0.79201   0.00000  Uiso   1.00
C1389  C     0.65276   0.37971   0.87288   0.00000  Uiso   1.00
C1390  C     0.87783   0.41011   0.86414   0.00000  Uiso   1.00
C1391  C     0.94018   0.18978   0.83330   0.00000  Uiso   1.00
C1392  C     0.66138   0.12893   0.80490   0.00000  Uiso   1.00
C1393  C     0.62188   0.08953   0.86492   0.00000  Uiso   1.00
C1394  C     0.83885   0.37116   0.80310   0.00000  Uiso   1.00
C1395  C     0.59798   0.33846   0.83273   0.00000  Uiso   1.00
C1396  C     0.90789   0.15597   0.83326   0.00000  Uiso   1.00
C1397  C     0.90703   0.34310   0.83264   0.00000  Uiso   1.00
C1398  C     0.59236   0.15619   0.83286   0.00000  Uiso   1.00
C1399  C     0.84484   0.09158   0.83333   0.00000  Uiso   1.00
C1400  C     0.65924   0.40451   0.83305   0.00000  Uiso   1.00
C1401  C     0.65697   0.09303   0.83419   0.00000  Uiso   1.00
C1402  C     0.56163   0.30850   0.83326   0.00000  Uiso   1.00
C1403  C     0.84269   0.40655   0.83353   0.00000  Uiso   1.00
C1404  C     0.95448   0.10933   0.74603   0.00000  Uiso   1.00
C1405  C     0.58373   0.35680   0.94176   0.00000  Uiso   1.00
C1406  C     0.61928   0.30785   0.73432   0.00000  Uiso   1.00
C1407  C     0.86215   0.20247   0.91868   0.00000  Uiso   1.00
C1408  C     0.51976   0.09452   0.87330   0.00000  Uiso   1.00
C1409  C     0.87877   0.31555   0.72859   0.00000  Uiso   1.00
C1410  C     0.97932   0.40953   0.86266   0.00000  Uiso   1.00
C1411  C     0.62168   0.17999   0.72785   0.00000  Uiso   1.00
C1412  C     0.66115   0.40851   0.71911   0.00000  Uiso   1.00
C1413  C     0.80992   0.43996   0.83335   0.00000  Uiso   1.00
C1414  C     0.86978   0.06847   0.93669   0.00000  Uiso   1.00
C1415  C     0.82812   0.11098   0.72520   0.00000  Uiso   1.00
C1416  C     0.70846   0.35718   0.91957   0.00000  Uiso   1.00
C1417  C     0.87354   0.43350   0.93766   0.00000  Uiso   1.00
C1418  C     0.72829   0.16090   0.80533   0.00000  Uiso   1.00
C1419  C     0.62818   0.06605   0.93834   0.00000  Uiso   1.00
C1420  C     0.77006   0.34415   0.79358   0.00000  Uiso   1.00
C1421  C     0.68986   0.05979   0.83351   0.00000  Uiso   1.00
C1422  C     0.69006   0.43982   0.83332   0.00000  Uiso   1.00
C1423  C     0.81065   0.05948   0.83333   0.00000  Uiso   1.00
C1424  C     0.99445   0.28839   0.69074   0.00000  Uiso   1.00
H1425  H     0.99024   0.31907   0.70903   0.00000  Uiso   1.00
H1426  H     0.96649   0.11173   0.71055   0.00000  Uiso   1.00
H1427  H     0.94248   0.07511   0.75081   0.00000  Uiso   1.00
H1428  H     0.57551   0.33934   0.97360   0.00000  Uiso   1.00
H1429  H     0.55226   0.36588   0.92487   0.00000  Uiso   1.00
H1430  H     0.60173   0.38704   0.95141   0.00000  Uiso   1.00
H1431  H     0.60454   0.29527   0.70247   0.00000  Uiso   1.00
H1432  H     0.61963   0.28033   0.75918   0.00000  Uiso   1.00
H1433  H     0.65374   0.31724   0.72688   0.00000  Uiso   1.00
H1434  H     0.86370   0.22606   0.88979   0.00000  Uiso   1.00
H1435  H     0.86927   0.22113   0.95022   0.00000  Uiso   1.00
H1436  H     0.51007   0.18095   0.95765   0.00000  Uiso   1.00
H1437  H     0.82840   0.18903   0.92187   0.00000  Uiso   1.00
H1438  H     0.53097   0.06073   0.86370   0.00000  Uiso   1.00
H1439  H     0.50627   0.11213   0.84330   0.00000  Uiso   1.00
H1440  H     0.99259   0.09121   0.89818   0.00000  Uiso   1.00
H1441  H     0.90872   0.33628   0.72659   0.00000  Uiso   1.00
H1442  H     0.85053   0.33293   0.71244   0.00000  Uiso   1.00
H1443  H     0.88546   0.28525   0.70851   0.00000  Uiso   1.00
H1444  H     0.99161   0.39073   0.83266   0.00000  Uiso   1.00
H1445  H     0.50793   0.41693   0.88455   0.00000  Uiso   1.00
H1446  H     0.96492   0.44172   0.85174   0.00000  Uiso   1.00
H1447  H     0.51025   0.18106   0.70884   0.00000  Uiso   1.00
H1448  H     0.61764   0.20915   0.70552   0.00000  Uiso   1.00
H1449  H     0.59069   0.16087   0.72578   0.00000  Uiso   1.00
H1450  H     0.64960   0.16004   0.71432   0.00000  Uiso   1.00
H1451  H     0.69126   0.38974   0.72928   0.00000  Uiso   1.00
H1452  H     0.67185   0.43737   0.69914   0.00000  Uiso   1.00
H1453  H     0.64036   0.38876   0.69606   0.00000  Uiso   1.00
H1454  H     0.89937   0.08585   0.94931   0.00000  Uiso   1.00
H1455  H     0.87970   0.04121   0.91329   0.00000  Uiso   1.00
H1456  H     0.85341   0.05309   0.96623   0.00000  Uiso   1.00
H1457  H     0.79657   0.11821   0.74278   0.00000  Uiso   1.00
H1458  H     0.98945   0.31897   0.95786   0.00000  Uiso   1.00
H1459  H     0.82003   0.09427   0.69286   0.00000  Uiso   1.00
H1460  H     0.84501   0.14214   0.71648   0.00000  Uiso   1.00
H1461  H     0.72037   0.35994   0.95507   0.00000  Uiso   1.00
H1462  H     0.73671   0.36380   0.89686   0.00000  Uiso   1.00
H1463  H     0.69691   0.32280   0.91481   0.00000  Uiso   1.00
H1464  H     0.84378   0.41267   0.94088   0.00000  Uiso   1.00
H1465  H     0.86779   0.46348   0.95852   0.00000  Uiso   1.00
H1466  H     0.90260   0.41595   0.95200   0.00000  Uiso   1.00
H1467  H     0.75644   0.17018   0.78362   0.00000  Uiso   1.00
H1468  H     0.74146   0.14211   0.83487   0.00000  Uiso   1.00
H1469  H     0.73457   0.06810   0.70899   0.00000  Uiso   1.00
H1470  H     0.71250   0.19222   0.81703   0.00000  Uiso   1.00
H1471  H     0.65721   0.08804   0.94051   0.00000  Uiso   1.00
H1472  H     0.63608   0.03602   0.95831   0.00000  Uiso   1.00
H1473  H     0.59921   0.08220   0.95448   0.00000  Uiso   1.00
H1474  H     0.74447   0.33755   0.76769   0.00000  Uiso   1.00
H1475  H     0.75431   0.36352   0.82120   0.00000  Uiso   1.00
H1476  H     0.78199   0.31169   0.80655   0.00000  Uiso   1.00
H1477  H     0.76512   0.43188   0.95765   0.00000  Uiso   1.00
H1478  H     0.76585   0.43198   0.70877   0.00000  Uiso   1.00
H1479  H     0.73559   0.06830   0.95786   0.00000  Uiso   1.00
H1480  H     0.98275   0.11563   0.76884   0.00000  Uiso   1.00
N1481  N     0.50000   0.25000   0.95240   0.00000  Uiso   1.00
N1482  N     0.50000   0.25000   0.71427   0.00000  Uiso   1.00
N1483  N     0.75000   0.00000   0.95240   0.00000  Uiso   1.00
N1484  N     0.75000   0.00000   0.71427   0.00000  Uiso   1.00
O1485  O     0.54580   0.20419   0.87154   0.00000  Uiso   1.00
O1486  O     0.70419   0.04581   0.79513   0.00000  Uiso   1.00
O1487  O     0.70419   0.04581   0.87154   0.00000  Uiso   1.00
O1488  O     0.79580   0.45419   0.79513   0.00000  Uiso   1.00
O1489  O     0.70419   0.45419   0.79513   0.00000  Uiso   1.00
O1490  O     0.79580   0.04581   0.87154   0.00000  Uiso   1.00
O1491  O     0.79580   0.04581   0.79513   0.00000  Uiso   1.00
O1492  O     0.70419   0.45419   0.87154   0.00000  Uiso   1.00
O1493  O     0.92128   0.14155   0.75264   0.00000  Uiso   1.00
O1494  O     0.60936   0.32832   0.91419   0.00000  Uiso   1.00
O1495  O     0.59395   0.34430   0.74978   0.00000  Uiso   1.00
O1496  O     0.95419   0.29581   0.79513   0.00000  Uiso   1.00
O1497  O     0.89379   0.16841   0.91411   0.00000  Uiso   1.00
O1498  O     0.55374   0.11875   0.89367   0.00000  Uiso   1.00
O1499  O     0.86861   0.30317   0.77360   0.00000  Uiso   1.00
O1500  O     0.94906   0.38449   0.88786   0.00000  Uiso   1.00
O1501  O     0.63025   0.19468   0.77250   0.00000  Uiso   1.00
O1502  O     0.63634   0.42408   0.75648   0.00000  Uiso   1.00
O1503  O     0.83998   0.09832   0.91605   0.00000  Uiso   1.00
O1504  O     0.85501   0.08255   0.75138   0.00000  Uiso   1.00
O1505  O     0.67490   0.38896   0.91287   0.00000  Uiso   1.00
O1506  O     0.88133   0.44652   0.89235   0.00000  Uiso   1.00
O1507  O     0.95419   0.29581   0.87154   0.00000  Uiso   1.00
O1508  O     0.69925   0.13482   0.77962   0.00000  Uiso   1.00
O1509  O     0.61858   0.05327   0.89328   0.00000  Uiso   1.00
O1510  O     0.80389   0.36847   0.77311   0.00000  Uiso   1.00
O1511  O     0.54580   0.20419   0.79513   0.00000  Uiso   1.00
O1512  O     0.95419   0.20419   0.79513   0.00000  Uiso   1.00
O1513  O     0.54580   0.29581   0.87154   0.00000  Uiso   1.00
O1514  O     0.54580   0.29581   0.79513   0.00000  Uiso   1.00
O1515  O     0.95419   0.20419   0.87154   0.00000  Uiso   1.00
O1516  O     0.79580   0.45419   0.87154   0.00000  Uiso   1.00
Zn1517 Zn    0.50000   0.25000   0.88437   0.00000  Uiso   1.00
Zn1518 Zn    0.50000   0.25000   0.78229   0.00000  Uiso   1.00
Zn1519 Zn    0.75000   0.00000   0.88437   0.00000  Uiso   1.00
Zn1520 Zn    0.75000   0.00000   0.78229   0.00000  Uiso   1.00
C1521  C     0.05983   0.68986   0.83324   0.00000  Uiso   1.00
C1522  C     0.00563   0.71161   0.97593   0.00000  Uiso   1.00
C1523  C     0.00563   0.71164   0.69062   0.00000  Uiso   1.00
C1524  C     0.49418   0.78835   0.97605   0.00000  Uiso   1.00
C1525  C     0.24144   0.53786   0.69073   0.00000  Uiso   1.00
C1526  C     0.25854   0.96214   0.97593   0.00000  Uiso   1.00
C1527  C     0.25893   0.96222   0.69060   0.00000  Uiso   1.00
C1528  C     0.24181   0.53794   0.97605   0.00000  Uiso   1.00
C1529  C     0.39927   0.63279   0.79280   0.00000  Uiso   1.00
C1530  C     0.11897   0.84957   0.87378   0.00000  Uiso   1.00
C1531  C     0.11083   0.85773   0.79113   0.00000  Uiso   1.00
C1532  C     0.43985   0.80978   0.83322   0.00000  Uiso   1.00
C1533  C     0.38577   0.64609   0.87393   0.00000  Uiso   1.00
C1534  C     0.08866   0.62111   0.86358   0.00000  Uiso   1.00
C1535  C     0.37204   0.83959   0.80182   0.00000  Uiso   1.00
C1536  C     0.41158   0.87922   0.86181   0.00000  Uiso   1.00
C1537  C     0.12726   0.65925   0.80191   0.00000  Uiso   1.00
C1538  C     0.13768   0.89413   0.79216   0.00000  Uiso   1.00
C1539  C     0.35744   0.61111   0.87472   0.00000  Uiso   1.00
C1540  C     0.36505   0.60328   0.79201   0.00000  Uiso   1.00
C1541  C     0.15276   0.87971   0.87288   0.00000  Uiso   1.00
C1542  C     0.37783   0.91011   0.86414   0.00000  Uiso   1.00
C1543  C     0.44018   0.68978   0.83330   0.00000  Uiso   1.00
C1544  C     0.16138   0.62893   0.80490   0.00000  Uiso   1.00
C1545  C     0.12188   0.58953   0.86492   0.00000  Uiso   1.00
C1546  C     0.33885   0.87116   0.80310   0.00000  Uiso   1.00
C1547  C     0.09798   0.83846   0.83273   0.00000  Uiso   1.00
C1548  C     0.40789   0.65597   0.83326   0.00000  Uiso   1.00
C1549  C     0.40703   0.84310   0.83264   0.00000  Uiso   1.00
C1550  C     0.09236   0.65619   0.83286   0.00000  Uiso   1.00
C1551  C     0.34484   0.59158   0.83333   0.00000  Uiso   1.00
C1552  C     0.15924   0.90451   0.83305   0.00000  Uiso   1.00
C1553  C     0.15697   0.59303   0.83419   0.00000  Uiso   1.00
C1554  C     0.06163   0.80850   0.83326   0.00000  Uiso   1.00
C1555  C     0.34269   0.90655   0.83353   0.00000  Uiso   1.00
C1556  C     0.45448   0.60933   0.74603   0.00000  Uiso   1.00
C1557  C     0.08373   0.85680   0.94176   0.00000  Uiso   1.00
C1558  C     0.11928   0.80785   0.73432   0.00000  Uiso   1.00
C1559  C     0.36215   0.70247   0.91868   0.00000  Uiso   1.00
C1560  C     0.01976   0.59452   0.87330   0.00000  Uiso   1.00
C1561  C     0.37877   0.81555   0.72859   0.00000  Uiso   1.00
C1562  C     0.47932   0.90953   0.86266   0.00000  Uiso   1.00
C1563  C     0.12168   0.67999   0.72785   0.00000  Uiso   1.00
C1564  C     0.16115   0.90851   0.71911   0.00000  Uiso   1.00
C1565  C     0.30992   0.93996   0.83335   0.00000  Uiso   1.00
C1566  C     0.36978   0.56847   0.93669   0.00000  Uiso   1.00
C1567  C     0.32812   0.61098   0.72520   0.00000  Uiso   1.00
C1568  C     0.20846   0.85718   0.91957   0.00000  Uiso   1.00
C1569  C     0.37354   0.93350   0.93766   0.00000  Uiso   1.00
C1570  C     0.22829   0.66090   0.80533   0.00000  Uiso   1.00
C1571  C     0.12818   0.56605   0.93834   0.00000  Uiso   1.00
C1572  C     0.27006   0.84415   0.79358   0.00000  Uiso   1.00
C1573  C     0.18986   0.55979   0.83351   0.00000  Uiso   1.00
C1574  C     0.19006   0.93982   0.83332   0.00000  Uiso   1.00
C1575  C     0.31065   0.55948   0.83333   0.00000  Uiso   1.00
C1576  C     0.49445   0.78839   0.69074   0.00000  Uiso   1.00
H1577  H     0.49024   0.81907   0.70903   0.00000  Uiso   1.00
H1578  H     0.46649   0.61173   0.71055   0.00000  Uiso   1.00
H1579  H     0.44248   0.57511   0.75081   0.00000  Uiso   1.00
H1580  H     0.07551   0.83934   0.97360   0.00000  Uiso   1.00
H1581  H     0.05226   0.86588   0.92487   0.00000  Uiso   1.00
H1582  H     0.10173   0.88704   0.95141   0.00000  Uiso   1.00
H1583  H     0.10454   0.79527   0.70247   0.00000  Uiso   1.00
H1584  H     0.11963   0.78033   0.75918   0.00000  Uiso   1.00
H1585  H     0.15374   0.81724   0.72688   0.00000  Uiso   1.00
H1586  H     0.36370   0.72606   0.88979   0.00000  Uiso   1.00
H1587  H     0.36927   0.72113   0.95022   0.00000  Uiso   1.00
H1588  H     0.01007   0.68095   0.95765   0.00000  Uiso   1.00
H1589  H     0.32840   0.68903   0.92187   0.00000  Uiso   1.00
H1590  H     0.03097   0.56073   0.86370   0.00000  Uiso   1.00
H1591  H     0.00627   0.61213   0.84330   0.00000  Uiso   1.00
H1592  H     0.49259   0.59121   0.89818   0.00000  Uiso   1.00
H1593  H     0.40872   0.83628   0.72659   0.00000  Uiso   1.00
H1594  H     0.35053   0.83293   0.71244   0.00000  Uiso   1.00
H1595  H     0.38546   0.78525   0.70851   0.00000  Uiso   1.00
H1596  H     0.49161   0.89073   0.83266   0.00000  Uiso   1.00
H1597  H     0.00793   0.91693   0.88455   0.00000  Uiso   1.00
H1598  H     0.46492   0.94172   0.85174   0.00000  Uiso   1.00
H1599  H     0.01025   0.68106   0.70884   0.00000  Uiso   1.00
H1600  H     0.11764   0.70915   0.70552   0.00000  Uiso   1.00
H1601  H     0.09069   0.66087   0.72578   0.00000  Uiso   1.00
H1602  H     0.14960   0.66004   0.71432   0.00000  Uiso   1.00
H1603  H     0.19126   0.88974   0.72928   0.00000  Uiso   1.00
H1604  H     0.17185   0.93737   0.69914   0.00000  Uiso   1.00
H1605  H     0.14036   0.88876   0.69606   0.00000  Uiso   1.00
H1606  H     0.39937   0.58585   0.94931   0.00000  Uiso   1.00
H1607  H     0.37970   0.54121   0.91329   0.00000  Uiso   1.00
H1608  H     0.35341   0.55309   0.96623   0.00000  Uiso   1.00
H1609  H     0.29657   0.61821   0.74278   0.00000  Uiso   1.00
H1610  H     0.48945   0.81897   0.95786   0.00000  Uiso   1.00
H1611  H     0.32003   0.59427   0.69286   0.00000  Uiso   1.00
H1612  H     0.34501   0.64214   0.71648   0.00000  Uiso   1.00
H1613  H     0.22037   0.85994   0.95507   0.00000  Uiso   1.00
H1614  H     0.23671   0.86380   0.89686   0.00000  Uiso   1.00
H1615  H     0.19691   0.82280   0.91481   0.00000  Uiso   1.00
H1616  H     0.34378   0.91267   0.94088   0.00000  Uiso   1.00
H1617  H     0.36779   0.96348   0.95852   0.00000  Uiso   1.00
H1618  H     0.40260   0.91595   0.95200   0.00000  Uiso   1.00
H1619  H     0.25644   0.67018   0.78362   0.00000  Uiso   1.00
H1620  H     0.24146   0.64211   0.83487   0.00000  Uiso   1.00
H1621  H     0.23457   0.56810   0.70899   0.00000  Uiso   1.00
H1622  H     0.21250   0.69222   0.81703   0.00000  Uiso   1.00
H1623  H     0.15721   0.58804   0.94051   0.00000  Uiso   1.00
H1624  H     0.13608   0.53602   0.95831   0.00000  Uiso   1.00
H1625  H     0.09921   0.58220   0.95448   0.00000  Uiso   1.00
H1626  H     0.24447   0.83755   0.76769   0.00000  Uiso   1.00
H1627  H     0.25431   0.86352   0.82120   0.00000  Uiso   1.00
H1628  H     0.28199   0.81169   0.80655   0.00000  Uiso   1.00
H1629  H     0.26512   0.93188   0.95765   0.00000  Uiso   1.00
H1630  H     0.26585   0.93198   0.70877   0.00000  Uiso   1.00
H1631  H     0.23559   0.56830   0.95786   0.00000  Uiso   1.00
H1632  H     0.48275   0.61563   0.76884   0.00000  Uiso   1.00
N1633  N    -0.00000   0.75000   0.95240   0.00000  Uiso   1.00
N1634  N    -0.00000   0.75000   0.71427   0.00000  Uiso   1.00
N1635  N     0.25000   0.50000   0.95240   0.00000  Uiso   1.00
N1636  N     0.25000   0.50000   0.71427   0.00000  Uiso   1.00
O1637  O     0.04580   0.70419   0.87154   0.00000  Uiso   1.00
O1638  O     0.20419   0.54581   0.79513   0.00000  Uiso   1.00
O1639  O     0.20419   0.54581   0.87154   0.00000  Uiso   1.00
O1640  O     0.29580   0.95419   0.79513   0.00000  Uiso   1.00
O1641  O     0.20419   0.95419   0.79513   0.00000  Uiso   1.00
O1642  O     0.29580   0.54581   0.87154   0.00000  Uiso   1.00
O1643  O     0.29580   0.54581   0.79513   0.00000  Uiso   1.00
O1644  O     0.20419   0.95419   0.87154   0.00000  Uiso   1.00
O1645  O     0.42128   0.64155   0.75264   0.00000  Uiso   1.00
O1646  O     0.10936   0.82832   0.91419   0.00000  Uiso   1.00
O1647  O     0.09395   0.84430   0.74978   0.00000  Uiso   1.00
O1648  O     0.45419   0.79581   0.79513   0.00000  Uiso   1.00
O1649  O     0.39379   0.66841   0.91411   0.00000  Uiso   1.00
O1650  O     0.05374   0.61875   0.89367   0.00000  Uiso   1.00
O1651  O     0.36861   0.80317   0.77360   0.00000  Uiso   1.00
O1652  O     0.44906   0.88449   0.88786   0.00000  Uiso   1.00
O1653  O     0.13025   0.69468   0.77250   0.00000  Uiso   1.00
O1654  O     0.13634   0.92408   0.75648   0.00000  Uiso   1.00
O1655  O     0.33998   0.59832   0.91605   0.00000  Uiso   1.00
O1656  O     0.35501   0.58255   0.75138   0.00000  Uiso   1.00
O1657  O     0.17490   0.88896   0.91287   0.00000  Uiso   1.00
O1658  O     0.38133   0.94652   0.89235   0.00000  Uiso   1.00
O1659  O     0.45419   0.79581   0.87154   0.00000  Uiso   1.00
O1660  O     0.19925   0.63482   0.77962   0.00000  Uiso   1.00
O1661  O     0.11858   0.55327   0.89328   0.00000  Uiso   1.00
O1662  O     0.30389   0.86847   0.77311   0.00000  Uiso   1.00
O1663  O     0.04580   0.70419   0.79513   0.00000  Uiso   1.00
O1664  O     0.45419   0.70419   0.79513   0.00000  Uiso   1.00
O1665  O     0.04580   0.79581   0.87154   0.00000  Uiso   1.00
O1666  O     0.04580   0.79581   0.79513   0.00000  Uiso   1.00
O1667  O     0.45419   0.70419   0.87154   0.00000  Uiso   1.00
O1668  O     0.29580   0.95419   0.87154   0.00000  Uiso   1.00
Zn1669 Zn   -0.00000   0.75000   0.88437   0.00000  Uiso   1.00
Zn1670 Zn   -0.00000   0.75000   0.78229   0.00000  Uiso   1.00
Zn1671 Zn    0.25000   0.50000   0.88437   0.00000  Uiso   1.00
Zn1672 Zn    0.25000   0.50000   0.78229   0.00000  Uiso   1.00
C1673  C     0.55983   0.68986   0.83324   0.00000  Uiso   1.00
C1674  C     0.50563   0.71161   0.97593   0.00000  Uiso   1.00
C1675  C     0.50563   0.71164   0.69062   0.00000  Uiso   1.00
C1676  C     0.99418   0.78835   0.97605   0.00000  Uiso   1.00
C1677  C     0.74144   0.53786   0.69073   0.00000  Uiso   1.00
C1678  C     0.75854   0.96214   0.97593   0.00000  Uiso   1.00
C1679  C     0.75893   0.96222   0.69060   0.00000  Uiso   1.00
C1680  C     0.74181   0.53794   0.97605   0.00000  Uiso   1.00
C1681  C     0.89927   0.63279   0.79280   0.00000  Uiso   1.00
C1682  C     0.61897   0.84957   0.87378   0.00000  Uiso   1.00
C1683  C     0.61083   0.85773   0.79113   0.00000  Uiso   1.00
C1684  C     0.93985   0.80978   0.83322   0.00000  Uiso   1.00
C1685  C     0.88577   0.64609   0.87393   0.00000  Uiso   1.00
C1686  C     0.58866   0.62111   0.86358   0.00000  Uiso   1.00
C1687  C     0.87204   0.83959   0.80182   0.00000  Uiso   1.00
C1688  C     0.91158   0.87922   0.86181   0.00000  Uiso   1.00
C1689  C     0.62726   0.65925   0.80191   0.00000  Uiso   1.00
C1690  C     0.63768   0.89413   0.79216   0.00000  Uiso   1.00
C1691  C     0.85744   0.61111   0.87472   0.00000  Uiso   1.00
C1692  C     0.86505   0.60328   0.79201   0.00000  Uiso   1.00
C1693  C     0.65276   0.87971   0.87288   0.00000  Uiso   1.00
C1694  C     0.87783   0.91011   0.86414   0.00000  Uiso   1.00
C1695  C     0.94018   0.68978   0.83330   0.00000  Uiso   1.00
C1696  C     0.66138   0.62893   0.80490   0.00000  Uiso   1.00
C1697  C     0.62188   0.58953   0.86492   0.00000  Uiso   1.00
C1698  C     0.83885   0.87116   0.80310   0.00000  Uiso   1.00
C1699  C     0.59798   0.83846   0.83273   0.00000  Uiso   1.00
C1700  C     0.90789   0.65597   0.83326   0.00000  Uiso   1.00
C1701  C     0.90703   0.84310   0.83264   0.00000  Uiso   1.00
C1702  C     0.59236   0.65619   0.83286   0.00000  Uiso   1.00
C1703  C     0.84484   0.59158   0.83333   0.00000  Uiso   1.00
C1704  C     0.65924   0.90451   0.83305   0.00000  Uiso   1.00
C1705  C     0.65697   0.59303   0.83419   0.00000  Uiso   1.00
C1706  C     0.56163   0.80850   0.83326   0.00000  Uiso   1.00
C1707  C     0.84269   0.90655   0.83353   0.00000  Uiso   1.00
C1708  C     0.95448   0.60933   0.74603   0.00000  Uiso   1.00
C1709  C     0.58373   0.85680   0.94176   0.00000  Uiso   1.00
C1710  C     0.61928   0.80785   0.73432   0.00000  Uiso   1.00
C1711  C     0.86215   0.70247   0.91868   0.00000  Uiso   1.00
C1712  C     0.51976   0.59452   0.87330   0.00000  Uiso   1.00
C1713  C     0.87877   0.81555   0.72859   0.00000  Uiso   1.00
C1714  C     0.97932   0.90953   0.86266   0.00000  Uiso   1.00
C1715  C     0.62168   0.67999   0.72785   0.00000  Uiso   1.00
C1716  C     0.66115   0.90851   0.71911   0.00000  Uiso   1.00
C1717  C     0.80992   0.93996   0.83335   0.00000  Uiso   1.00
C1718  C     0.86978   0.56847   0.93669   0.00000  Uiso   1.00
C1719  C     0.82812   0.61098   0.72520   0.00000  Uiso   1.00
C1720  C     0.70846   0.85718   0.91957   0.00000  Uiso   1.00
C1721  C     0.87354   0.93350   0.93766   0.00000  Uiso   1.00
C1722  C     0.72829   0.66090   0.80533   0.00000  Uiso   1.00
C1723  C     0.62818   0.56605   0.93834   0.00000  Uiso   1.00
C1724  C     0.77006   0.84415   0.79358   0.00000  Uiso   1.00
C1725  C     0.68986   0.55979   0.83351   0.00000  Uiso   1.00
C1726  C     0.69006   0.93982   0.83332   0.00000  Uiso   1.00
C1727  C     0.81065   0.55948   0.83333   0.00000  Uiso   1.00
C1728  C     0.99445   0.78839   0.69074   0.00000  Uiso   1.00
H1729  H     0.99024   0.81907   0.70903   0.00000  Uiso   1.00
H1730  H     0.96649   0.61173   0.71055   0.00000  Uiso   1.00
H1731  H     0.94248   0.57511   0.75081   0.00000  Uiso   1.00
H1732  H     0.57551   0.83934   0.97360   0.00000  Uiso   1.00
H1733  H     0.55226   0.86588   0.92487   0.00000  Uiso   1.00
H1734  H     0.60173   0.88704   0.95141   0.00000  Uiso   1.00
H1735  H     0.60454   0.79527   0.70247   0.00000  Uiso   1.00
H1736  H     0.61963   0.78033   0.75918   0.00000  Uiso   1.00
H1737  H     0.65374   0.81724   0.72688   0.00000  Uiso   1.00
H1738  H     0.86370   0.72606   0.88979   0.00000  Uiso   1.00
H1739  H     0.86927   0.72113   0.95022   0.00000  Uiso   1.00
H1740  H     0.51007   0.68095   0.95765   0.00000  Uiso   1.00
H1741  H     0.82840   0.68903   0.92187   0.00000  Uiso   1.00
H1742  H     0.53097   0.56073   0.86370   0.00000  Uiso   1.00
H1743  H     0.50627   0.61213   0.84330   0.00000  Uiso   1.00
H1744  H     0.99259   0.59121   0.89818   0.00000  Uiso   1.00
H1745  H     0.90872   0.83628   0.72659   0.00000  Uiso   1.00
H1746  H     0.85053   0.83293   0.71244   0.00000  Uiso   1.00
H1747  H     0.88546   0.78525   0.70851   0.00000  Uiso   1.00
H1748  H     0.99161   0.89073   0.83266   0.00000  Uiso   1.00
H1749  H     0.50793   0.91693   0.88455   0.00000  Uiso   1.00
H1750  H     0.96492   0.94172   0.85174   0.00000  Uiso   1.00
H1751  H     0.51025   0.68106   0.70884   0.00000  Uiso   1.00
H1752  H     0.61764   0.70915   0.70552   0.00000  Uiso   1.00
H1753  H     0.59069   0.66087   0.72578   0.00000  Uiso   1.00
H1754  H     0.64960   0.66004   0.71432   0.00000  Uiso   1.00
H1755  H     0.69126   0.88974   0.72928   0.00000  Uiso   1.00
H1756  H     0.67185   0.93737   0.69914   0.00000  Uiso   1.00
H1757  H     0.64036   0.88876   0.69606   0.00000  Uiso   1.00
H1758  H     0.89937   0.58585   0.94931   0.00000  Uiso   1.00
H1759  H     0.87970   0.54121   0.91329   0.00000  Uiso   1.00
H1760  H     0.85341   0.55309   0.96623   0.00000  Uiso   1.00
H1761  H     0.79657   0.61821   0.74278   0.00000  Uiso   1.00
H1762  H     0.98945   0.81897   0.95786   0.00000  Uiso   1.00
H1763  H     0.82003   0.59427   0.69286   0.00000  Uiso   1.00
H1764  H     0.84501   0.64214   0.71648   0.00000  Uiso   1.00
H1765  H     0.72037   0.85994   0.95507   0.00000  Uiso   1.00
H1766  H     0.73671   0.86380   0.89686   0.00000  Uiso   1.00
H1767  H     0.69691   0.82280   0.91481   0.00000  Uiso   1.00
H1768  H     0.84378   0.91267   0.94088   0.00000  Uiso   1.00
H1769  H     0.86779   0.96348   0.95852   0.00000  Uiso   1.00
H1770  H     0.90260   0.91595   0.95200   0.00000  Uiso   1.00
H1771  H     0.75644   0.67018   0.78362   0.00000  Uiso   1.00
H1772  H     0.74146   0.64211   0.83487   0.00000  Uiso   1.00
H1773  H     0.73457   0.56810   0.70899   0.00000  Uiso   1.00
H1774  H     0.71250   0.69222   0.81703   0.00000  Uiso   1.00
H1775  H     0.65721   0.58804   0.94051   0.00000  Uiso   1.00
H1776  H     0.63608   0.53602   0.95831   0.00000  Uiso   1.00
H1777  H     0.59921   0.58220   0.95448   0.00000  Uiso   1.00
H1778  H     0.74447   0.83755   0.76769   0.00000  Uiso   1.00
H1779  H     0.75431   0.86352   0.82120   0.00000  Uiso   1.00
H1780  H     0.78199   0.81169   0.80655   0.00000  Uiso   1.00
H1781  H     0.76512   0.93188   0.95765   0.00000  Uiso   1.00
H1782  H     0.76585   0.93198   0.70877   0.00000  Uiso   1.00
H1783  H     0.73559   0.56830   0.95786   0.00000  Uiso   1.00
H1784  H     0.98275   0.61563   0.76884   0.00000  Uiso   1.00
N1785  N     0.50000   0.75000   0.95240   0.00000  Uiso   1.00
N1786  N     0.50000   0.75000   0.71427   0.00000  Uiso   1.00
N1787  N     0.75000   0.50000   0.95240   0.00000  Uiso   1.00
N1788  N     0.75000   0.50000   0.71427   0.00000  Uiso   1.00
O1789  O     0.54580   0.70419   0.87154   0.00000  Uiso   1.00
O1790  O     0.70419   0.54581   0.79513   0.00000  Uiso   1.00
O1791  O     0.70419   0.54581   0.87154   0.00000  Uiso   1.00
O1792  O     0.79580   0.95419   0.79513   0.00000  Uiso   1.00
O1793  O     0.70419   0.95419   0.79513   0.00000  Uiso   1.00
O1794  O     0.79580   0.54581   0.87154   0.00000  Uiso   1.00
O1795  O     0.79580   0.54581   0.79513   0.00000  Uiso   1.00
O1796  O     0.70419   0.95419   0.87154   0.00000  Uiso   1.00
O1797  O     0.92128   0.64155   0.75264   0.00000  Uiso   1.00
O1798  O     0.60936   0.82832   0.91419   0.00000  Uiso   1.00
O1799  O     0.59395   0.84430   0.74978   0.00000  Uiso   1.00
O1800  O     0.95419   0.79581   0.79513   0.00000  Uiso   1.00
O1801  O     0.89379   0.66841   0.91411   0.00000  Uiso   1.00
O1802  O     0.55374   0.61875   0.89367   0.00000  Uiso   1.00
O1803  O     0.86861   0.80317   0.77360   0.00000  Uiso   1.00
O1804  O     0.94906   0.88449   0.88786   0.00000  Uiso   1.00
O1805  O     0.63025   0.69468   0.77250   0.00000  Uiso   1.00
O1806  O     0.63634   0.92408   0.75648   0.00000  Uiso   1.00
O1807  O     0.83998   0.59832   0.91605   0.00000  Uiso   1.00
O1808  O     0.85501   0.58255   0.75138   0.00000  Uiso   1.00
O1809  O     0.67490   0.88896   0.91287   0.00000  Uiso   1.00
O1810  O     0.88133   0.94652   0.89235   0.00000  Uiso   1.00
O1811  O     0.95419   0.79581   0.87154   0.00000  Uiso   1.00
O1812  O     0.69925   0.63482   0.77962   0.00000  Uiso   1.00
O1813  O     0.61858   0.55327   0.89328   0.00000  Uiso   1.00
O1814  O     0.80389   0.86847   0.77311   0.00000  Uiso   1.00
O1815  O     0.54580   0.70419   0.79513   0.00000  Uiso   1.00
O1816  O     0.95419   0.70419   0.79513   0.00000  Uiso   1.00
O1817  O     0.54580   0.79581   0.87154   0.00000  Uiso   1.00
O1818  O     0.54580   0.79581   0.79513   0.00000  Uiso   1.00
O1819  O     0.95419   0.70419   0.87154   0.00000  Uiso   1.00
O1820  O     0.79580   0.95419   0.87154   0.00000  Uiso   1.00
Zn1821 Zn    0.50000   0.75000   0.88437   0.00000  Uiso   1.00
Zn1822 Zn    0.50000   0.75000   0.78229   0.00000  Uiso   1.00
Zn1823 Zn    0.75000   0.50000   0.88437   0.00000  Uiso   1.00
Zn1824 Zn    0.75000   0.50000   0.78229   0.00000  Uiso   1.00
loop_
_geom_bond_atom_site_label_1
_geom_bond_atom_site_label_2
_geom_bond_distance
_geom_bond_site_symmetry_2
_ccdc_geom_bond_type
C1     O143    1.276   .     A
C1     O117    1.279   .     A
C1     C30     1.414   .     S
C2     H68     1.082   .     S
C2     C611    1.414   .     S
C2     N113    1.365   .     S
C3     H79     1.080   .     S
C3     C1218   1.414   1_554 S
C3     N114    1.365   .     S
C4     N265    1.365   .     A
C4     H90     1.081   .     S
C4     C664    1.414   .     S
C5     H101    1.081   .     S
C5     N116    1.365   .     A
C5     C1224   1.413   1_554 S
C6     H109    1.081   .     S
C6     C615    1.413   .     S
C6     N419    1.365   .     S
C7     H110    1.081   .     S
C7     C1222   1.413   1_554 S
C7     N420    1.366   .     S
C8     N115    1.365   .     A
C8     H111    1.081   .     S
C8     C613    1.413   .     S
C9     C20     1.381   .     A
C9     O125    1.386   .     S
C9     C28     1.408   .     A
C10    C27     1.409   .     A
C10    C21     1.384   .     A
C10    O126    1.387   .     S
C11    C18     1.382   .     A
C11    O127    1.384   .     S
C11    C27     1.415   .     A
C12    C29     1.413   .     S
C12    O139    1.280   .     A
C12    O128    1.274   .     A
C13    C28     1.407   .     A
C13    C19     1.376   .     A
C13    O129    1.385   .     S
C14    C30     1.404   .     A
C14    O130    1.385   .     S
C14    C25     1.385   .     A
C15    C29     1.403   .     A
C15    C26     1.384   .     A
C15    O131    1.387   .     S
C16    C22     1.384   .     A
C16    C29     1.400   .     A
C16    O132    1.385   .     S
C17    C30     1.403   .     A
C17    C24     1.382   .     A
C17    O133    1.385   .     S
C18    C32     1.408   .     A
C18    O134    1.390   .     S
C19    C31     1.409   .     A
C19    O135    1.385   .     S
C20    O136    1.387   .     S
C20    C31     1.411   .     A
C21    O137    1.386   .     S
C21    C32     1.409   .     A
C22    C35     1.403   .     A
C22    O138    1.387   .     S
C23    O147    1.282   .     A
C23    C28     1.429   .     S
C23    O144    1.281   .     A
C24    O140    1.385   .     S
C24    C33     1.398   .     A
C25    O141    1.387   .     S
C25    C33     1.404   .     A
C26    O142    1.385   .     S
C26    C35     1.403   .     A
C27    C34     1.440   .     S
C31    C55     1.433   .     S
C32    C54     1.432   .     S
C33    C53     1.413   .     S
C34    O145    1.286   .     A
C34    O146    1.282   .     A
C35    C45     1.414   .     S
C36    O125    1.411   .     S
C36    H59     1.114   .     S
C36    H112    1.109   .     S
C36    H58     1.109   .     S
C37    H62     1.111   .     S
C37    H61     1.111   .     S
C37    H60     1.107   .     S
C37    O126    1.413   .     S
C38    H64     1.111   .     S
C38    H65     1.111   .     S
C38    H63     1.108   .     S
C38    O127    1.416   .     S
C39    O129    1.411   .     S
C39    H69     1.113   .     S
C39    H66     1.114   .     S
C39    H67     1.109   .     S
C40    H70     1.113   .     S
C40    H71     1.109   .     S
C40    O130    1.409   .     S
C40    H224    1.109   1_455 S
C41    O131    1.413   .     S
C41    H75     1.110   .     S
C41    H74     1.110   .     S
C41    H73     1.114   .     S
C42    H78     1.114   .     S
C42    H76     1.113   .     S
C42    O132    1.411   .     S
C42    H229    1.108   .     S
C43    O133    1.413   .     S
C43    H81     1.114   .     S
C43    H80     1.109   .     S
C43    H82     1.111   .     S
C44    H83     1.114   .     S
C44    O134    1.412   .     S
C44    H85     1.108   .     S
C44    H84     1.108   .     S
C45    O148    1.276   .     A
C45    O120    1.278   .     A
C46    H87     1.115   .     S
C46    H88     1.108   .     S
C46    O135    1.412   .     S
C46    H86     1.112   .     S
C47    H92     1.112   .     S
C47    O136    1.412   .     S
C47    H89     1.110   .     S
C47    H91     1.107   .     S
C48    H95     1.114   .     S
C48    O137    1.410   .     S
C48    H93     1.109   .     S
C48    H94     1.109   .     S
C49    H98     1.110   .     S
C49    O138    1.412   .     S
C49    H96     1.114   .     S
C49    H97     1.109   .     S
C50    H99     1.108   .     S
C50    O140    1.412   .     S
C50    H102    1.114   .     S
C50    H100    1.113   .     S
C51    O141    1.413   .     S
C51    H104    1.109   .     S
C51    H105    1.110   .     S
C51    H103    1.115   .     S
C52    H107    1.108   .     S
C52    H106    1.109   .     S
C52    O142    1.409   .     S
C52    H108    1.114   .     S
C53    O118    1.281   .     A
C53    O119    1.273   .     A
C54    O121    1.282   .     A
C54    O124    1.282   .     A
C55    O122    1.283   .     A
C55    O123    1.282   .     A
C56    H57     1.082   .     S
C56    N266    1.365   .     A
C56    C1220   1.414   1_554 S
H72    C192    1.109   .     S
H77    C194    1.108   1_455 S
N113   Zn149   2.002   .     S
N113   C156    1.365   1_455 A
N114   Zn150   2.002   .     S
N114   C208    1.365   1_455 A
N115   C310    1.365   1_545 S
N115   Zn151   2.002   .     S
N116   Zn152   2.002   .     S
N116   C311    1.366   1_545 S
O117   Zn149   1.993   .     S
O118   Zn152   1.993   .     S
O119   Zn151   1.993   .     S
O120   Zn456   1.993   .     S
O121   Zn456   2.016   .     S
O122   Zn151   2.016   .     S
O123   Zn152   2.015   .     S
O124   Zn455   2.015   .     S
O128   Zn302   1.993   .     S
O139   Zn301   1.993   .     S
O143   Zn150   1.993   .     S
O144   Zn302   2.016   .     S
O145   Zn149   2.016   .     S
O146   Zn150   2.015   .     S
O147   Zn301   2.015   .     S
O148   Zn455   1.993   .     S
Zn149  O291    1.993   1_455 S
Zn149  O299    2.015   1_455 S
Zn150  O296    2.016   1_455 S
Zn150  O280    1.993   1_455 S
Zn151  O452    1.993   1_545 S
Zn151  O428    2.015   1_545 S
Zn152  O425    2.016   1_545 S
Zn152  O424    1.993   1_545 S
C153   O295    1.276   .     A
C153   O269    1.279   .     A
C153   C182    1.414   .     S
C154   H220    1.082   .     S
C154   C763    1.414   .     S
C154   N265    1.365   .     S
C155   H231    1.080   .     S
C155   C1370   1.414   1_554 S
C155   N266    1.365   .     S
C156   N113    1.365   1_655 A
C156   H242    1.081   .     S
C156   C816    1.414   .     S
C157   H253    1.081   .     S
C157   N268    1.365   .     A
C157   C1376   1.413   1_554 S
C158   H261    1.081   .     S
C158   C767    1.413   .     S
C158   N571    1.365   .     S
C159   H262    1.081   .     S
C159   C1374   1.413   1_554 S
C159   N572    1.366   .     S
C160   N267    1.365   .     A
C160   H263    1.081   .     S
C160   C765    1.413   .     S
C161   C172    1.381   .     A
C161   O277    1.386   .     S
C161   C180    1.408   .     A
C162   C179    1.409   .     A
C162   C173    1.384   .     A
C162   O278    1.387   .     S
C163   C170    1.382   .     A
C163   O279    1.384   .     S
C163   C179    1.415   .     A
C164   C181    1.413   .     S
C164   O291    1.280   .     A
C164   O280    1.274   .     A
C165   C180    1.407   .     A
C165   C171    1.376   .     A
C165   O281    1.385   .     S
C166   C182    1.404   .     A
C166   O282    1.385   .     S
C166   C177    1.385   .     A
C167   C181    1.403   .     A
C167   C178    1.384   .     A
C167   O283    1.387   .     S
C168   C174    1.384   .     A
C168   C181    1.400   .     A
C168   O284    1.385   .     S
C169   C182    1.403   .     A
C169   C176    1.382   .     A
C169   O285    1.385   .     S
C170   C184    1.408   .     A
C170   O286    1.390   .     S
C171   C183    1.409   .     A
C171   O287    1.385   .     S
C172   O288    1.387   .     S
C172   C183    1.411   .     A
C173   O289    1.386   .     S
C173   C184    1.409   .     A
C174   C187    1.403   .     A
C174   O290    1.387   .     S
C175   O299    1.282   .     A
C175   C180    1.429   .     S
C175   O296    1.281   .     A
C176   O292    1.385   .     S
C176   C185    1.398   .     A
C177   O293    1.387   .     S
C177   C185    1.404   .     A
C178   O294    1.385   .     S
C178   C187    1.403   .     A
C179   C186    1.440   .     S
C183   C207    1.433   .     S
C184   C206    1.432   .     S
C185   C205    1.413   .     S
C186   O297    1.286   .     A
C186   O298    1.282   .     A
C187   C197    1.414   .     S
C188   O277    1.411   .     S
C188   H211    1.114   .     S
C188   H264    1.109   .     S
C188   H210    1.109   .     S
C189   H214    1.111   .     S
C189   H213    1.111   .     S
C189   H212    1.107   .     S
C189   O278    1.413   .     S
C190   H216    1.111   .     S
C190   H217    1.111   .     S
C190   H215    1.108   .     S
C190   O279    1.416   .     S
C191   O281    1.411   .     S
C191   H221    1.113   .     S
C191   H218    1.114   .     S
C191   H219    1.109   .     S
C192   H222    1.113   .     S
C192   H223    1.109   .     S
C192   O282    1.409   .     S
C193   O283    1.413   .     S
C193   H227    1.110   .     S
C193   H226    1.110   .     S
C193   H225    1.114   .     S
C194   H230    1.114   .     S
C194   H228    1.113   .     S
C194   O284    1.411   .     S
C194   H77     1.108   1_655 S
C195   O285    1.413   .     S
C195   H233    1.114   .     S
C195   H232    1.109   .     S
C195   H234    1.111   .     S
C196   H235    1.114   .     S
C196   O286    1.412   .     S
C196   H237    1.108   .     S
C196   H236    1.108   .     S
C197   O300    1.276   .     A
C197   O272    1.278   .     A
C198   H239    1.115   .     S
C198   H240    1.108   .     S
C198   O287    1.412   .     S
C198   H238    1.112   .     S
C199   H244    1.112   .     S
C199   O288    1.412   .     S
C199   H241    1.110   .     S
C199   H243    1.107   .     S
C200   H247    1.114   .     S
C200   O289    1.410   .     S
C200   H245    1.109   .     S
C200   H246    1.109   .     S
C201   H250    1.110   .     S
C201   O290    1.412   .     S
C201   H248    1.114   .     S
C201   H249    1.109   .     S
C202   H251    1.108   .     S
C202   O292    1.412   .     S
C202   H254    1.114   .     S
C202   H252    1.113   .     S
C203   O293    1.413   .     S
C203   H256    1.109   .     S
C203   H257    1.110   .     S
C203   H255    1.115   .     S
C204   H259    1.108   .     S
C204   H258    1.109   .     S
C204   O294    1.409   .     S
C204   H260    1.114   .     S
C205   O270    1.281   .     A
C205   O271    1.273   .     A
C206   O273    1.282   .     A
C206   O276    1.282   .     A
C207   O274    1.283   .     A
C207   O275    1.282   .     A
C208   H209    1.082   .     S
C208   N114    1.365   1_655 A
C208   C1372   1.414   1_554 S
H224   C40     1.109   1_655 S
N265   Zn301   2.002   .     S
N266   Zn302   2.002   .     S
N267   C462    1.365   1_545 S
N267   Zn303   2.002   .     S
N268   Zn304   2.002   .     S
N268   C463    1.366   1_545 S
O269   Zn301   1.993   .     S
O270   Zn304   1.993   .     S
O271   Zn303   1.993   .     S
O272   Zn608   1.993   .     S
O273   Zn608   2.016   .     S
O274   Zn303   2.016   .     S
O275   Zn304   2.015   .     S
O276   Zn607   2.015   .     S
O280   Zn150   1.993   1_655 S
O291   Zn149   1.993   1_655 S
O295   Zn302   1.993   .     S
O296   Zn150   2.016   1_655 S
O297   Zn301   2.016   .     S
O298   Zn302   2.015   .     S
O299   Zn149   2.015   1_655 S
O300   Zn607   1.993   .     S
Zn303  O604    1.993   1_545 S
Zn303  O580    2.015   1_545 S
Zn304  O577    2.016   1_545 S
Zn304  O576    1.993   1_545 S
C305   O447    1.276   .     A
C305   O421    1.279   .     A
C305   C334    1.414   .     S
C306   H372    1.082   .     S
C306   C915    1.414   .     S
C306   N417    1.365   .     S
C307   H383    1.080   .     S
C307   C1522   1.414   1_554 S
C307   N418    1.365   .     S
C308   N569    1.365   .     A
C308   H394    1.081   .     S
C308   C968    1.414   .     S
C309   H405    1.081   .     S
C309   N420    1.365   .     A
C309   C1528   1.413   1_554 S
C310   H413    1.081   .     S
C310   C919    1.413   .     S
C310   N115    1.365   1_565 S
C311   H414    1.081   .     S
C311   C1526   1.413   1_554 S
C311   N116    1.366   1_565 S
C312   N419    1.365   .     A
C312   H415    1.081   .     S
C312   C917    1.413   .     S
C313   C324    1.381   .     A
C313   O429    1.386   .     S
C313   C332    1.408   .     A
C314   C331    1.409   .     A
C314   C325    1.384   .     A
C314   O430    1.387   .     S
C315   C322    1.382   .     A
C315   O431    1.384   .     S
C315   C331    1.415   .     A
C316   C333    1.413   .     S
C316   O443    1.280   .     A
C316   O432    1.274   .     A
C317   C332    1.407   .     A
C317   C323    1.376   .     A
C317   O433    1.385   .     S
C318   C334    1.404   .     A
C318   O434    1.385   .     S
C318   C329    1.385   .     A
C319   C333    1.403   .     A
C319   C330    1.384   .     A
C319   O435    1.387   .     S
C320   C326    1.384   .     A
C320   C333    1.400   .     A
C320   O436    1.385   .     S
C321   C334    1.403   .     A
C321   C328    1.382   .     A
C321   O437    1.385   .     S
C322   C336    1.408   .     A
C322   O438    1.390   .     S
C323   C335    1.409   .     A
C323   O439    1.385   .     S
C324   O440    1.387   .     S
C324   C335    1.411   .     A
C325   O441    1.386   .     S
C325   C336    1.409   .     A
C326   C339    1.403   .     A
C326   O442    1.387   .     S
C327   O451    1.282   .     A
C327   C332    1.429   .     S
C327   O448    1.281   .     A
C328   O444    1.385   .     S
C328   C337    1.398   .     A
C329   O445    1.387   .     S
C329   C337    1.404   .     A
C330   O446    1.385   .     S
C330   C339    1.403   .     A
C331   C338    1.440   .     S
C335   C359    1.433   .     S
C336   C358    1.432   .     S
C337   C357    1.413   .     S
C338   O449    1.286   .     A
C338   O450    1.282   .     A
C339   C349    1.414   .     S
C340   O429    1.411   .     S
C340   H363    1.114   .     S
C340   H416    1.109   .     S
C340   H362    1.109   .     S
C341   H366    1.111   .     S
C341   H365    1.111   .     S
C341   H364    1.107   .     S
C341   O430    1.413   .     S
C342   H368    1.111   .     S
C342   H369    1.111   .     S
C342   H367    1.108   .     S
C342   O431    1.416   .     S
C343   O433    1.411   .     S
C343   H373    1.113   .     S
C343   H370    1.114   .     S
C343   H371    1.109   .     S
C344   H374    1.113   .     S
C344   H375    1.109   .     S
C344   O434    1.409   .     S
C344   H528    1.109   1_455 S
C345   O435    1.413   .     S
C345   H379    1.110   .     S
C345   H378    1.110   .     S
C345   H377    1.114   .     S
C346   H382    1.114   .     S
C346   H380    1.113   .     S
C346   O436    1.411   .     S
C346   H533    1.108   .     S
C347   O437    1.413   .     S
C347   H385    1.114   .     S
C347   H384    1.109   .     S
C347   H386    1.111   .     S
C348   H387    1.114   .     S
C348   O438    1.412   .     S
C348   H389    1.108   .     S
C348   H388    1.108   .     S
C349   O452    1.276   .     A
C349   O424    1.278   .     A
C350   H391    1.115   .     S
C350   H392    1.108   .     S
C350   O439    1.412   .     S
C350   H390    1.112   .     S
C351   H396    1.112   .     S
C351   O440    1.412   .     S
C351   H393    1.110   .     S
C351   H395    1.107   .     S
C352   H399    1.114   .     S
C352   O441    1.410   .     S
C352   H397    1.109   .     S
C352   H398    1.109   .     S
C353   H402    1.110   .     S
C353   O442    1.412   .     S
C353   H400    1.114   .     S
C353   H401    1.109   .     S
C354   H403    1.108   .     S
C354   O444    1.412   .     S
C354   H406    1.114   .     S
C354   H404    1.113   .     S
C355   O445    1.413   .     S
C355   H408    1.109   .     S
C355   H409    1.110   .     S
C355   H407    1.115   .     S
C356   H411    1.108   .     S
C356   H410    1.109   .     S
C356   O446    1.409   .     S
C356   H412    1.114   .     S
C357   O422    1.281   .     A
C357   O423    1.273   .     A
C358   O425    1.282   .     A
C358   O428    1.282   .     A
C359   O426    1.283   .     A
C359   O427    1.282   .     A
C360   H361    1.082   .     S
C360   N570    1.365   .     A
C360   C1524   1.414   1_554 S
H376   C496    1.109   .     S
H381   C498    1.108   1_455 S
N417   Zn453   2.002   .     S
N417   C460    1.365   1_455 A
N418   Zn454   2.002   .     S
N418   C512    1.365   1_455 A
N419   Zn455   2.002   .     S
N420   Zn456   2.002   .     S
O421   Zn453   1.993   .     S
O422   Zn456   1.993   .     S
O423   Zn455   1.993   .     S
O424   Zn152   1.993   1_565 S
O425   Zn152   2.016   1_565 S
O426   Zn455   2.016   .     S
O427   Zn456   2.015   .     S
O428   Zn151   2.015   1_565 S
O432   Zn606   1.993   .     S
O443   Zn605   1.993   .     S
O447   Zn454   1.993   .     S
O448   Zn606   2.016   .     S
O449   Zn453   2.016   .     S
O450   Zn454   2.015   .     S
O451   Zn605   2.015   .     S
O452   Zn151   1.993   1_565 S
Zn453  O595    1.993   1_455 S
Zn453  O603    2.015   1_455 S
Zn454  O600    2.016   1_455 S
Zn454  O584    1.993   1_455 S
C457   O599    1.276   .     A
C457   O573    1.279   .     A
C457   C486    1.414   .     S
C458   H524    1.082   .     S
C458   C1067   1.414   .     S
C458   N569    1.365   .     S
C459   H535    1.080   .     S
C459   C1674   1.414   1_554 S
C459   N570    1.365   .     S
C460   N417    1.365   1_655 A
C460   H546    1.081   .     S
C460   C1120   1.414   .     S
C461   H557    1.081   .     S
C461   N572    1.365   .     A
C461   C1680   1.413   1_554 S
C462   H565    1.081   .     S
C462   C1071   1.413   .     S
C462   N267    1.365   1_565 S
C463   H566    1.081   .     S
C463   C1678   1.413   1_554 S
C463   N268    1.366   1_565 S
C464   N571    1.365   .     A
C464   H567    1.081   .     S
C464   C1069   1.413   .     S
C465   C476    1.381   .     A
C465   O581    1.386   .     S
C465   C484    1.408   .     A
C466   C483    1.409   .     A
C466   C477    1.384   .     A
C466   O582    1.387   .     S
C467   C474    1.382   .     A
C467   O583    1.384   .     S
C467   C483    1.415   .     A
C468   C485    1.413   .     S
C468   O595    1.280   .     A
C468   O584    1.274   .     A
C469   C484    1.407   .     A
C469   C475    1.376   .     A
C469   O585    1.385   .     S
C470   C486    1.404   .     A
C470   O586    1.385   .     S
C470   C481    1.385   .     A
C471   C485    1.403   .     A
C471   C482    1.384   .     A
C471   O587    1.387   .     S
C472   C478    1.384   .     A
C472   C485    1.400   .     A
C472   O588    1.385   .     S
C473   C486    1.403   .     A
C473   C480    1.382   .     A
C473   O589    1.385   .     S
C474   C488    1.408   .     A
C474   O590    1.390   .     S
C475   C487    1.409   .     A
C475   O591    1.385   .     S
C476   O592    1.387   .     S
C476   C487    1.411   .     A
C477   O593    1.386   .     S
C477   C488    1.409   .     A
C478   C491    1.403   .     A
C478   O594    1.387   .     S
C479   O603    1.282   .     A
C479   C484    1.429   .     S
C479   O600    1.281   .     A
C480   O596    1.385   .     S
C480   C489    1.398   .     A
C481   O597    1.387   .     S
C481   C489    1.404   .     A
C482   O598    1.385   .     S
C482   C491    1.403   .     A
C483   C490    1.440   .     S
C487   C511    1.433   .     S
C488   C510    1.432   .     S
C489   C509    1.413   .     S
C490   O601    1.286   .     A
C490   O602    1.282   .     A
C491   C501    1.414   .     S
C492   O581    1.411   .     S
C492   H515    1.114   .     S
C492   H568    1.109   .     S
C492   H514    1.109   .     S
C493   H518    1.111   .     S
C493   H517    1.111   .     S
C493   H516    1.107   .     S
C493   O582    1.413   .     S
C494   H520    1.111   .     S
C494   H521    1.111   .     S
C494   H519    1.108   .     S
C494   O583    1.416   .     S
C495   O585    1.411   .     S
C495   H525    1.113   .     S
C495   H522    1.114   .     S
C495   H523    1.109   .     S
C496   H526    1.113   .     S
C496   H527    1.109   .     S
C496   O586    1.409   .     S
C497   O587    1.413   .     S
C497   H531    1.110   .     S
C497   H530    1.110   .     S
C497   H529    1.114   .     S
C498   H534    1.114   .     S
C498   H532    1.113   .     S
C498   O588    1.411   .     S
C498   H381    1.108   1_655 S
C499   O589    1.413   .     S
C499   H537    1.114   .     S
C499   H536    1.109   .     S
C499   H538    1.111   .     S
C500   H539    1.114   .     S
C500   O590    1.412   .     S
C500   H541    1.108   .     S
C500   H540    1.108   .     S
C501   O604    1.276   .     A
C501   O576    1.278   .     A
C502   H543    1.115   .     S
C502   H544    1.108   .     S
C502   O591    1.412   .     S
C502   H542    1.112   .     S
C503   H548    1.112   .     S
C503   O592    1.412   .     S
C503   H545    1.110   .     S
C503   H547    1.107   .     S
C504   H551    1.114   .     S
C504   O593    1.410   .     S
C504   H549    1.109   .     S
C504   H550    1.109   .     S
C505   H554    1.110   .     S
C505   O594    1.412   .     S
C505   H552    1.114   .     S
C505   H553    1.109   .     S
C506   H555    1.108   .     S
C506   O596    1.412   .     S
C506   H558    1.114   .     S
C506   H556    1.113   .     S
C507   O597    1.413   .     S
C507   H560    1.109   .     S
C507   H561    1.110   .     S
C507   H559    1.115   .     S
C508   H563    1.108   .     S
C508   H562    1.109   .     S
C508   O598    1.409   .     S
C508   H564    1.114   .     S
C509   O574    1.281   .     A
C509   O575    1.273   .     A
C510   O577    1.282   .     A
C510   O580    1.282   .     A
C511   O578    1.283   .     A
C511   O579    1.282   .     A
C512   H513    1.082   .     S
C512   N418    1.365   1_655 A
C512   C1676   1.414   1_554 S
H528   C344    1.109   1_655 S
N569   Zn605   2.002   .     S
N570   Zn606   2.002   .     S
N571   Zn607   2.002   .     S
N572   Zn608   2.002   .     S
O573   Zn605   1.993   .     S
O574   Zn608   1.993   .     S
O575   Zn607   1.993   .     S
O576   Zn304   1.993   1_565 S
O577   Zn304   2.016   1_565 S
O578   Zn607   2.016   .     S
O579   Zn608   2.015   .     S
O580   Zn303   2.015   1_565 S
O584   Zn454   1.993   1_655 S
O595   Zn453   1.993   1_655 S
O599   Zn606   1.993   .     S
O600   Zn454   2.016   1_655 S
O601   Zn605   2.016   .     S
O602   Zn606   2.015   .     S
O603   Zn453   2.015   1_655 S
O604   Zn303   1.993   1_565 S
C609   O751    1.276   .     A
C609   O725    1.279   .     A
C609   C638    1.414   .     S
C610   H676    1.082   .     S
C610   C1219   1.414   .     S
C610   N721    1.365   .     S
C611   H687    1.080   .     S
C611   N722    1.365   .     S
C612   N873    1.365   .     A
C612   H698    1.081   .     S
C612   C1272   1.414   .     S
C613   H709    1.081   .     S
C613   N724    1.365   .     A
C614   H717    1.081   .     S
C614   C1223   1.413   .     S
C614   N1027   1.365   .     S
C615   H718    1.081   .     S
C615   N1028   1.366   .     S
C616   N723    1.365   .     A
C616   H719    1.081   .     S
C616   C1221   1.413   .     S
C617   C628    1.381   .     A
C617   O733    1.386   .     S
C617   C636    1.408   .     A
C618   C635    1.409   .     A
C618   C629    1.384   .     A
C618   O734    1.387   .     S
C619   C626    1.382   .     A
C619   O735    1.384   .     S
C619   C635    1.415   .     A
C620   C637    1.413   .     S
C620   O747    1.280   .     A
C620   O736    1.274   .     A
C621   C636    1.407   .     A
C621   C627    1.376   .     A
C621   O737    1.385   .     S
C622   C638    1.404   .     A
C622   O738    1.385   .     S
C622   C633    1.385   .     A
C623   C637    1.403   .     A
C623   C634    1.384   .     A
C623   O739    1.387   .     S
C624   C630    1.384   .     A
C624   C637    1.400   .     A
C624   O740    1.385   .     S
C625   C638    1.403   .     A
C625   C632    1.382   .     A
C625   O741    1.385   .     S
C626   C640    1.408   .     A
C626   O742    1.390   .     S
C627   C639    1.409   .     A
C627   O743    1.385   .     S
C628   O744    1.387   .     S
C628   C639    1.411   .     A
C629   O745    1.386   .     S
C629   C640    1.409   .     A
C630   C643    1.403   .     A
C630   O746    1.387   .     S
C631   O755    1.282   .     A
C631   C636    1.429   .     S
C631   O752    1.281   .     A
C632   O748    1.385   .     S
C632   C641    1.398   .     A
C633   O749    1.387   .     S
C633   C641    1.404   .     A
C634   O750    1.385   .     S
C634   C643    1.403   .     A
C635   C642    1.440   .     S
C639   C663    1.433   .     S
C640   C662    1.432   .     S
C641   C661    1.413   .     S
C642   O753    1.286   .     A
C642   O754    1.282   .     A
C643   C653    1.414   .     S
C644   O733    1.411   .     S
C644   H667    1.114   .     S
C644   H720    1.109   .     S
C644   H666    1.109   .     S
C645   H670    1.111   .     S
C645   H669    1.111   .     S
C645   H668    1.107   .     S
C645   O734    1.413   .     S
C646   H672    1.111   .     S
C646   H673    1.111   .     S
C646   H671    1.108   .     S
C646   O735    1.416   .     S
C647   O737    1.411   .     S
C647   H677    1.113   .     S
C647   H674    1.114   .     S
C647   H675    1.109   .     S
C648   H678    1.113   .     S
C648   H679    1.109   .     S
C648   O738    1.409   .     S
C648   H832    1.109   1_455 S
C649   O739    1.413   .     S
C649   H683    1.110   .     S
C649   H682    1.110   .     S
C649   H681    1.114   .     S
C650   H686    1.114   .     S
C650   H684    1.113   .     S
C650   O740    1.411   .     S
C650   H837    1.108   .     S
C651   O741    1.413   .     S
C651   H689    1.114   .     S
C651   H688    1.109   .     S
C651   H690    1.111   .     S
C652   H691    1.114   .     S
C652   O742    1.412   .     S
C652   H693    1.108   .     S
C652   H692    1.108   .     S
C653   O756    1.276   .     A
C653   O728    1.278   .     A
C654   H695    1.115   .     S
C654   H696    1.108   .     S
C654   O743    1.412   .     S
C654   H694    1.112   .     S
C655   H700    1.112   .     S
C655   O744    1.412   .     S
C655   H697    1.110   .     S
C655   H699    1.107   .     S
C656   H703    1.114   .     S
C656   O745    1.410   .     S
C656   H701    1.109   .     S
C656   H702    1.109   .     S
C657   H706    1.110   .     S
C657   O746    1.412   .     S
C657   H704    1.114   .     S
C657   H705    1.109   .     S
C658   H707    1.108   .     S
C658   O748    1.412   .     S
C658   H710    1.114   .     S
C658   H708    1.113   .     S
C659   O749    1.413   .     S
C659   H712    1.109   .     S
C659   H713    1.110   .     S
C659   H711    1.115   .     S
C660   H715    1.108   .     S
C660   H714    1.109   .     S
C660   O750    1.409   .     S
C660   H716    1.114   .     S
C661   O726    1.281   .     A
C661   O727    1.273   .     A
C662   O729    1.282   .     A
C662   O732    1.282   .     A
C663   O730    1.283   .     A
C663   O731    1.282   .     A
C664   H665    1.082   .     S
C664   N874    1.365   .     A
H680   C800    1.109   .     S
H685   C802    1.108   1_455 S
N721   Zn757   2.002   .     S
N721   C764    1.365   1_455 A
N722   Zn758   2.002   .     S
N722   C816    1.365   1_455 A
N723   C918    1.365   1_545 S
N723   Zn759   2.002   .     S
N724   Zn760   2.002   .     S
N724   C919    1.366   1_545 S
O725   Zn757   1.993   .     S
O726   Zn760   1.993   .     S
O727   Zn759   1.993   .     S
O728   Zn1064  1.993   .     S
O729   Zn1064  2.016   .     S
O730   Zn759   2.016   .     S
O731   Zn760   2.015   .     S
O732   Zn1063  2.015   .     S
O736   Zn910   1.993   .     S
O747   Zn909   1.993   .     S
O751   Zn758   1.993   .     S
O752   Zn910   2.016   .     S
O753   Zn757   2.016   .     S
O754   Zn758   2.015   .     S
O755   Zn909   2.015   .     S
O756   Zn1063  1.993   .     S
Zn757  O899    1.993   1_455 S
Zn757  O907    2.015   1_455 S
Zn758  O904    2.016   1_455 S
Zn758  O888    1.993   1_455 S
Zn759  O1060   1.993   1_545 S
Zn759  O1036   2.015   1_545 S
Zn760  O1033   2.016   1_545 S
Zn760  O1032   1.993   1_545 S
C761   O903    1.276   .     A
C761   O877    1.279   .     A
C761   C790    1.414   .     S
C762   H828    1.082   .     S
C762   C1371   1.414   .     S
C762   N873    1.365   .     S
C763   H839    1.080   .     S
C763   N874    1.365   .     S
C764   N721    1.365   1_655 A
C764   H850    1.081   .     S
C764   C1424   1.414   .     S
C765   H861    1.081   .     S
C765   N876    1.365   .     A
C766   H869    1.081   .     S
C766   C1375   1.413   .     S
C766   N1179   1.365   .     S
C767   H870    1.081   .     S
C767   N1180   1.366   .     S
C768   N875    1.365   .     A
C768   H871    1.081   .     S
C768   C1373   1.413   .     S
C769   C780    1.381   .     A
C769   O885    1.386   .     S
C769   C788    1.408   .     A
C770   C787    1.409   .     A
C770   C781    1.384   .     A
C770   O886    1.387   .     S
C771   C778    1.382   .     A
C771   O887    1.384   .     S
C771   C787    1.415   .     A
C772   C789    1.413   .     S
C772   O899    1.280   .     A
C772   O888    1.274   .     A
C773   C788    1.407   .     A
C773   C779    1.376   .     A
C773   O889    1.385   .     S
C774   C790    1.404   .     A
C774   O890    1.385   .     S
C774   C785    1.385   .     A
C775   C789    1.403   .     A
C775   C786    1.384   .     A
C775   O891    1.387   .     S
C776   C782    1.384   .     A
C776   C789    1.400   .     A
C776   O892    1.385   .     S
C777   C790    1.403   .     A
C777   C784    1.382   .     A
C777   O893    1.385   .     S
C778   C792    1.408   .     A
C778   O894    1.390   .     S
C779   C791    1.409   .     A
C779   O895    1.385   .     S
C780   O896    1.387   .     S
C780   C791    1.411   .     A
C781   O897    1.386   .     S
C781   C792    1.409   .     A
C782   C795    1.403   .     A
C782   O898    1.387   .     S
C783   O907    1.282   .     A
C783   C788    1.429   .     S
C783   O904    1.281   .     A
C784   O900    1.385   .     S
C784   C793    1.398   .     A
C785   O901    1.387   .     S
C785   C793    1.404   .     A
C786   O902    1.385   .     S
C786   C795    1.403   .     A
C787   C794    1.440   .     S
C791   C815    1.433   .     S
C792   C814    1.432   .     S
C793   C813    1.413   .     S
C794   O905    1.286   .     A
C794   O906    1.282   .     A
C795   C805    1.414   .     S
C796   O885    1.411   .     S
C796   H819    1.114   .     S
C796   H872    1.109   .     S
C796   H818    1.109   .     S
C797   H822    1.111   .     S
C797   H821    1.111   .     S
C797   H820    1.107   .     S
C797   O886    1.413   .     S
C798   H824    1.111   .     S
C798   H825    1.111   .     S
C798   H823    1.108   .     S
C798   O887    1.416   .     S
C799   O889    1.411   .     S
C799   H829    1.113   .     S
C799   H826    1.114   .     S
C799   H827    1.109   .     S
C800   H830    1.113   .     S
C800   H831    1.109   .     S
C800   O890    1.409   .     S
C801   O891    1.413   .     S
C801   H835    1.110   .     S
C801   H834    1.110   .     S
C801   H833    1.114   .     S
C802   H838    1.114   .     S
C802   H836    1.113   .     S
C802   O892    1.411   .     S
C802   H685    1.108   1_655 S
C803   O893    1.413   .     S
C803   H841    1.114   .     S
C803   H840    1.109   .     S
C803   H842    1.111   .     S
C804   H843    1.114   .     S
C804   O894    1.412   .     S
C804   H845    1.108   .     S
C804   H844    1.108   .     S
C805   O908    1.276   .     A
C805   O880    1.278   .     A
C806   H847    1.115   .     S
C806   H848    1.108   .     S
C806   O895    1.412   .     S
C806   H846    1.112   .     S
C807   H852    1.112   .     S
C807   O896    1.412   .     S
C807   H849    1.110   .     S
C807   H851    1.107   .     S
C808   H855    1.114   .     S
C808   O897    1.410   .     S
C808   H853    1.109   .     S
C808   H854    1.109   .     S
C809   H858    1.110   .     S
C809   O898    1.412   .     S
C809   H856    1.114   .     S
C809   H857    1.109   .     S
C810   H859    1.108   .     S
C810   O900    1.412   .     S
C810   H862    1.114   .     S
C810   H860    1.113   .     S
C811   O901    1.413   .     S
C811   H864    1.109   .     S
C811   H865    1.110   .     S
C811   H863    1.115   .     S
C812   H867    1.108   .     S
C812   H866    1.109   .     S
C812   O902    1.409   .     S
C812   H868    1.114   .     S
C813   O878    1.281   .     A
C813   O879    1.273   .     A
C814   O881    1.282   .     A
C814   O884    1.282   .     A
C815   O882    1.283   .     A
C815   O883    1.282   .     A
C816   H817    1.082   .     S
C816   N722    1.365   1_655 A
H832   C648    1.109   1_655 S
N873   Zn909   2.002   .     S
N874   Zn910   2.002   .     S
N875   C1070   1.365   1_545 S
N875   Zn911   2.002   .     S
N876   Zn912   2.002   .     S
N876   C1071   1.366   1_545 S
O877   Zn909   1.993   .     S
O878   Zn912   1.993   .     S
O879   Zn911   1.993   .     S
O880   Zn1216  1.993   .     S
O881   Zn1216  2.016   .     S
O882   Zn911   2.016   .     S
O883   Zn912   2.015   .     S
O884   Zn1215  2.015   .     S
O888   Zn758   1.993   1_655 S
O899   Zn757   1.993   1_655 S
O903   Zn910   1.993   .     S
O904   Zn758   2.016   1_655 S
O905   Zn909   2.016   .     S
O906   Zn910   2.015   .     S
O907   Zn757   2.015   1_655 S
O908   Zn1215  1.993   .     S
Zn911  O1212   1.993   1_545 S
Zn911  O1188   2.015   1_545 S
Zn912  O1185   2.016   1_545 S
Zn912  O1184   1.993   1_545 S
C913   O1055   1.276   .     A
C913   O1029   1.279   .     A
C913   C942    1.414   .     S
C914   H980    1.082   .     S
C914   C1523   1.414   .     S
C914   N1025   1.365   .     S
C915   H991    1.080   .     S
C915   N1026   1.365   .     S
C916   N1177   1.365   .     A
C916   H1002   1.081   .     S
C916   C1576   1.414   .     S
C917   H1013   1.081   .     S
C917   N1028   1.365   .     A
C918   H1021   1.081   .     S
C918   C1527   1.413   .     S
C918   N723    1.365   1_565 S
C919   H1022   1.081   .     S
C919   N724    1.366   1_565 S
C920   N1027   1.365   .     A
C920   H1023   1.081   .     S
C920   C1525   1.413   .     S
C921   C932    1.381   .     A
C921   O1037   1.386   .     S
C921   C940    1.408   .     A
C922   C939    1.409   .     A
C922   C933    1.384   .     A
C922   O1038   1.387   .     S
C923   C930    1.382   .     A
C923   O1039   1.384   .     S
C923   C939    1.415   .     A
C924   C941    1.413   .     S
C924   O1051   1.280   .     A
C924   O1040   1.274   .     A
C925   C940    1.407   .     A
C925   C931    1.376   .     A
C925   O1041   1.385   .     S
C926   C942    1.404   .     A
C926   O1042   1.385   .     S
C926   C937    1.385   .     A
C927   C941    1.403   .     A
C927   C938    1.384   .     A
C927   O1043   1.387   .     S
C928   C934    1.384   .     A
C928   C941    1.400   .     A
C928   O1044   1.385   .     S
C929   C942    1.403   .     A
C929   C936    1.382   .     A
C929   O1045   1.385   .     S
C930   C944    1.408   .     A
C930   O1046   1.390   .     S
C931   C943    1.409   .     A
C931   O1047   1.385   .     S
C932   O1048   1.387   .     S
C932   C943    1.411   .     A
C933   O1049   1.386   .     S
C933   C944    1.409   .     A
C934   C947    1.403   .     A
C934   O1050   1.387   .     S
C935   O1059   1.282   .     A
C935   C940    1.429   .     S
C935   O1056   1.281   .     A
C936   O1052   1.385   .     S
C936   C945    1.398   .     A
C937   O1053   1.387   .     S
C937   C945    1.404   .     A
C938   O1054   1.385   .     S
C938   C947    1.403   .     A
C939   C946    1.440   .     S
C943   C967    1.433   .     S
C944   C966    1.432   .     S
C945   C965    1.413   .     S
C946   O1057   1.286   .     A
C946   O1058   1.282   .     A
C947   C957    1.414   .     S
C948   O1037   1.411   .     S
C948   H971    1.114   .     S
C948   H1024   1.109   .     S
C948   H970    1.109   .     S
C949   H974    1.111   .     S
C949   H973    1.111   .     S
C949   H972    1.107   .     S
C949   O1038   1.413   .     S
C950   H976    1.111   .     S
C950   H977    1.111   .     S
C950   H975    1.108   .     S
C950   O1039   1.416   .     S
C951   O1041   1.411   .     S
C951   H981    1.113   .     S
C951   H978    1.114   .     S
C951   H979    1.109   .     S
C952   H982    1.113   .     S
C952   H983    1.109   .     S
C952   O1042   1.409   .     S
C952   H1136   1.109   1_455 S
C953   O1043   1.413   .     S
C953   H987    1.110   .     S
C953   H986    1.110   .     S
C953   H985    1.114   .     S
C954   H990    1.114   .     S
C954   H988    1.113   .     S
C954   O1044   1.411   .     S
C954   H1141   1.108   .     S
C955   O1045   1.413   .     S
C955   H993    1.114   .     S
C955   H992    1.109   .     S
C955   H994    1.111   .     S
C956   H995    1.114   .     S
C956   O1046   1.412   .     S
C956   H997    1.108   .     S
C956   H996    1.108   .     S
C957   O1060   1.276   .     A
C957   O1032   1.278   .     A
C958   H999    1.115   .     S
C958   H1000   1.108   .     S
C958   O1047   1.412   .     S
C958   H998    1.112   .     S
C959   H1004   1.112   .     S
C959   O1048   1.412   .     S
C959   H1001   1.110   .     S
C959   H1003   1.107   .     S
C960   H1007   1.114   .     S
C960   O1049   1.410   .     S
C960   H1005   1.109   .     S
C960   H1006   1.109   .     S
C961   H1010   1.110   .     S
C961   O1050   1.412   .     S
C961   H1008   1.114   .     S
C961   H1009   1.109   .     S
C962   H1011   1.108   .     S
C962   O1052   1.412   .     S
C962   H1014   1.114   .     S
C962   H1012   1.113   .     S
C963   O1053   1.413   .     S
C963   H1016   1.109   .     S
C963   H1017   1.110   .     S
C963   H1015   1.115   .     S
C964   H1019   1.108   .     S
C964   H1018   1.109   .     S
C964   O1054   1.409   .     S
C964   H1020   1.114   .     S
C965   O1030   1.281   .     A
C965   O1031   1.273   .     A
C966   O1033   1.282   .     A
C966   O1036   1.282   .     A
C967   O1034   1.283   .     A
C967   O1035   1.282   .     A
C968   H969    1.082   .     S
C968   N1178   1.365   .     A
H984   C1104   1.109   .     S
H989   C1106   1.108   1_455 S
N1025  Zn1061  2.002   .     S
N1025  C1068   1.365   1_455 A
N1026  Zn1062  2.002   .     S
N1026  C1120   1.365   1_455 A
N1027  Zn1063  2.002   .     S
N1028  Zn1064  2.002   .     S
O1029  Zn1061  1.993   .     S
O1030  Zn1064  1.993   .     S
O1031  Zn1063  1.993   .     S
O1032  Zn760   1.993   1_565 S
O1033  Zn760   2.016   1_565 S
O1034  Zn1063  2.016   .     S
O1035  Zn1064  2.015   .     S
O1036  Zn759   2.015   1_565 S
O1040  Zn1214  1.993   .     S
O1051  Zn1213  1.993   .     S
O1055  Zn1062  1.993   .     S
O1056  Zn1214  2.016   .     S
O1057  Zn1061  2.016   .     S
O1058  Zn1062  2.015   .     S
O1059  Zn1213  2.015   .     S
O1060  Zn759   1.993   1_565 S
Zn1061 O1203   1.993   1_455 S
Zn1061 O1211   2.015   1_455 S
Zn1062 O1208   2.016   1_455 S
Zn1062 O1192   1.993   1_455 S
C1065  O1207   1.276   .     A
C1065  O1181   1.279   .     A
C1065  C1094   1.414   .     S
C1066  H1132   1.082   .     S
C1066  C1675   1.414   .     S
C1066  N1177   1.365   .     S
C1067  H1143   1.080   .     S
C1067  N1178   1.365   .     S
C1068  N1025   1.365   1_655 A
C1068  H1154   1.081   .     S
C1068  C1728   1.414   .     S
C1069  H1165   1.081   .     S
C1069  N1180   1.365   .     A
C1070  H1173   1.081   .     S
C1070  C1679   1.413   .     S
C1070  N875    1.365   1_565 S
C1071  H1174   1.081   .     S
C1071  N876    1.366   1_565 S
C1072  N1179   1.365   .     A
C1072  H1175   1.081   .     S
C1072  C1677   1.413   .     S
C1073  C1084   1.381   .     A
C1073  O1189   1.386   .     S
C1073  C1092   1.408   .     A
C1074  C1091   1.409   .     A
C1074  C1085   1.384   .     A
C1074  O1190   1.387   .     S
C1075  C1082   1.382   .     A
C1075  O1191   1.384   .     S
C1075  C1091   1.415   .     A
C1076  C1093   1.413   .     S
C1076  O1203   1.280   .     A
C1076  O1192   1.274   .     A
C1077  C1092   1.407   .     A
C1077  C1083   1.376   .     A
C1077  O1193   1.385   .     S
C1078  C1094   1.404   .     A
C1078  O1194   1.385   .     S
C1078  C1089   1.385   .     A
C1079  C1093   1.403   .     A
C1079  C1090   1.384   .     A
C1079  O1195   1.387   .     S
C1080  C1086   1.384   .     A
C1080  C1093   1.400   .     A
C1080  O1196   1.385   .     S
C1081  C1094   1.403   .     A
C1081  C1088   1.382   .     A
C1081  O1197   1.385   .     S
C1082  C1096   1.408   .     A
C1082  O1198   1.390   .     S
C1083  C1095   1.409   .     A
C1083  O1199   1.385   .     S
C1084  O1200   1.387   .     S
C1084  C1095   1.411   .     A
C1085  O1201   1.386   .     S
C1085  C1096   1.409   .     A
C1086  C1099   1.403   .     A
C1086  O1202   1.387   .     S
C1087  O1211   1.282   .     A
C1087  C1092   1.429   .     S
C1087  O1208   1.281   .     A
C1088  O1204   1.385   .     S
C1088  C1097   1.398   .     A
C1089  O1205   1.387   .     S
C1089  C1097   1.404   .     A
C1090  O1206   1.385   .     S
C1090  C1099   1.403   .     A
C1091  C1098   1.440   .     S
C1095  C1119   1.433   .     S
C1096  C1118   1.432   .     S
C1097  C1117   1.413   .     S
C1098  O1209   1.286   .     A
C1098  O1210   1.282   .     A
C1099  C1109   1.414   .     S
C1100  O1189   1.411   .     S
C1100  H1123   1.114   .     S
C1100  H1176   1.109   .     S
C1100  H1122   1.109   .     S
C1101  H1126   1.111   .     S
C1101  H1125   1.111   .     S
C1101  H1124   1.107   .     S
C1101  O1190   1.413   .     S
C1102  H1128   1.111   .     S
C1102  H1129   1.111   .     S
C1102  H1127   1.108   .     S
C1102  O1191   1.416   .     S
C1103  O1193   1.411   .     S
C1103  H1133   1.113   .     S
C1103  H1130   1.114   .     S
C1103  H1131   1.109   .     S
C1104  H1134   1.113   .     S
C1104  H1135   1.109   .     S
C1104  O1194   1.409   .     S
C1105  O1195   1.413   .     S
C1105  H1139   1.110   .     S
C1105  H1138   1.110   .     S
C1105  H1137   1.114   .     S
C1106  H1142   1.114   .     S
C1106  H1140   1.113   .     S
C1106  O1196   1.411   .     S
C1106  H989    1.108   1_655 S
C1107  O1197   1.413   .     S
C1107  H1145   1.114   .     S
C1107  H1144   1.109   .     S
C1107  H1146   1.111   .     S
C1108  H1147   1.114   .     S
C1108  O1198   1.412   .     S
C1108  H1149   1.108   .     S
C1108  H1148   1.108   .     S
C1109  O1212   1.276   .     A
C1109  O1184   1.278   .     A
C1110  H1151   1.115   .     S
C1110  H1152   1.108   .     S
C1110  O1199   1.412   .     S
C1110  H1150   1.112   .     S
C1111  H1156   1.112   .     S
C1111  O1200   1.412   .     S
C1111  H1153   1.110   .     S
C1111  H1155   1.107   .     S
C1112  H1159   1.114   .     S
C1112  O1201   1.410   .     S
C1112  H1157   1.109   .     S
C1112  H1158   1.109   .     S
C1113  H1162   1.110   .     S
C1113  O1202   1.412   .     S
C1113  H1160   1.114   .     S
C1113  H1161   1.109   .     S
C1114  H1163   1.108   .     S
C1114  O1204   1.412   .     S
C1114  H1166   1.114   .     S
C1114  H1164   1.113   .     S
C1115  O1205   1.413   .     S
C1115  H1168   1.109   .     S
C1115  H1169   1.110   .     S
C1115  H1167   1.115   .     S
C1116  H1171   1.108   .     S
C1116  H1170   1.109   .     S
C1116  O1206   1.409   .     S
C1116  H1172   1.114   .     S
C1117  O1182   1.281   .     A
C1117  O1183   1.273   .     A
C1118  O1185   1.282   .     A
C1118  O1188   1.282   .     A
C1119  O1186   1.283   .     A
C1119  O1187   1.282   .     A
C1120  H1121   1.082   .     S
C1120  N1026   1.365   1_655 A
H1136  C952    1.109   1_655 S
N1177  Zn1213  2.002   .     S
N1178  Zn1214  2.002   .     S
N1179  Zn1215  2.002   .     S
N1180  Zn1216  2.002   .     S
O1181  Zn1213  1.993   .     S
O1182  Zn1216  1.993   .     S
O1183  Zn1215  1.993   .     S
O1184  Zn912   1.993   1_565 S
O1185  Zn912   2.016   1_565 S
O1186  Zn1215  2.016   .     S
O1187  Zn1216  2.015   .     S
O1188  Zn911   2.015   1_565 S
O1192  Zn1062  1.993   1_655 S
O1203  Zn1061  1.993   1_655 S
O1207  Zn1214  1.993   .     S
O1208  Zn1062  2.016   1_655 S
O1209  Zn1213  2.016   .     S
O1210  Zn1214  2.015   .     S
O1211  Zn1061  2.015   1_655 S
O1212  Zn911   1.993   1_565 S
C1217  O1359   1.276   .     A
C1217  O1333   1.279   .     A
C1217  C1246   1.414   .     S
C1218  H1284   1.082   .     S
C1218  C3      1.414   1_556 S
C1218  N1329   1.365   .     S
C1219  H1295   1.080   .     S
C1219  N1330   1.365   .     S
C1220  N1481   1.365   .     A
C1220  H1306   1.081   .     S
C1220  C56     1.414   1_556 S
C1221  H1317   1.081   .     S
C1221  N1332   1.365   .     A
C1222  H1325   1.081   .     S
C1222  C7      1.413   1_556 S
C1222  N1635   1.365   .     S
C1223  H1326   1.081   .     S
C1223  N1636   1.366   .     S
C1224  N1331   1.365   .     A
C1224  H1327   1.081   .     S
C1224  C5      1.413   1_556 S
C1225  C1236   1.381   .     A
C1225  O1341   1.386   .     S
C1225  C1244   1.408   .     A
C1226  C1243   1.409   .     A
C1226  C1237   1.384   .     A
C1226  O1342   1.387   .     S
C1227  C1234   1.382   .     A
C1227  O1343   1.384   .     S
C1227  C1243   1.415   .     A
C1228  C1245   1.413   .     S
C1228  O1355   1.280   .     A
C1228  O1344   1.274   .     A
C1229  C1244   1.407   .     A
C1229  C1235   1.376   .     A
C1229  O1345   1.385   .     S
C1230  C1246   1.404   .     A
C1230  O1346   1.385   .     S
C1230  C1241   1.385   .     A
C1231  C1245   1.403   .     A
C1231  C1242   1.384   .     A
C1231  O1347   1.387   .     S
C1232  C1238   1.384   .     A
C1232  C1245   1.400   .     A
C1232  O1348   1.385   .     S
C1233  C1246   1.403   .     A
C1233  C1240   1.382   .     A
C1233  O1349   1.385   .     S
C1234  C1248   1.408   .     A
C1234  O1350   1.390   .     S
C1235  C1247   1.409   .     A
C1235  O1351   1.385   .     S
C1236  O1352   1.387   .     S
C1236  C1247   1.411   .     A
C1237  O1353   1.386   .     S
C1237  C1248   1.409   .     A
C1238  C1251   1.403   .     A
C1238  O1354   1.387   .     S
C1239  O1363   1.282   .     A
C1239  C1244   1.429   .     S
C1239  O1360   1.281   .     A
C1240  O1356   1.385   .     S
C1240  C1249   1.398   .     A
C1241  O1357   1.387   .     S
C1241  C1249   1.404   .     A
C1242  O1358   1.385   .     S
C1242  C1251   1.403   .     A
C1243  C1250   1.440   .     S
C1247  C1271   1.433   .     S
C1248  C1270   1.432   .     S
C1249  C1269   1.413   .     S
C1250  O1361   1.286   .     A
C1250  O1362   1.282   .     A
C1251  C1261   1.414   .     S
C1252  O1341   1.411   .     S
C1252  H1275   1.114   .     S
C1252  H1328   1.109   .     S
C1252  H1274   1.109   .     S
C1253  H1278   1.111   .     S
C1253  H1277   1.111   .     S
C1253  H1276   1.107   .     S
C1253  O1342   1.413   .     S
C1254  H1280   1.111   .     S
C1254  H1281   1.111   .     S
C1254  H1279   1.108   .     S
C1254  O1343   1.416   .     S
C1255  O1345   1.411   .     S
C1255  H1285   1.113   .     S
C1255  H1282   1.114   .     S
C1255  H1283   1.109   .     S
C1256  H1286   1.113   .     S
C1256  H1287   1.109   .     S
C1256  O1346   1.409   .     S
C1256  H1440   1.109   1_455 S
C1257  O1347   1.413   .     S
C1257  H1291   1.110   .     S
C1257  H1290   1.110   .     S
C1257  H1289   1.114   .     S
C1258  H1294   1.114   .     S
C1258  H1292   1.113   .     S
C1258  O1348   1.411   .     S
C1258  H1445   1.108   .     S
C1259  O1349   1.413   .     S
C1259  H1297   1.114   .     S
C1259  H1296   1.109   .     S
C1259  H1298   1.111   .     S
C1260  H1299   1.114   .     S
C1260  O1350   1.412   .     S
C1260  H1301   1.108   .     S
C1260  H1300   1.108   .     S
C1261  O1364   1.276   .     A
C1261  O1336   1.278   .     A
C1262  H1303   1.115   .     S
C1262  H1304   1.108   .     S
C1262  O1351   1.412   .     S
C1262  H1302   1.112   .     S
C1263  H1308   1.112   .     S
C1263  O1352   1.412   .     S
C1263  H1305   1.110   .     S
C1263  H1307   1.107   .     S
C1264  H1311   1.114   .     S
C1264  O1353   1.410   .     S
C1264  H1309   1.109   .     S
C1264  H1310   1.109   .     S
C1265  H1314   1.110   .     S
C1265  O1354   1.412   .     S
C1265  H1312   1.114   .     S
C1265  H1313   1.109   .     S
C1266  H1315   1.108   .     S
C1266  O1356   1.412   .     S
C1266  H1318   1.114   .     S
C1266  H1316   1.113   .     S
C1267  O1357   1.413   .     S
C1267  H1320   1.109   .     S
C1267  H1321   1.110   .     S
C1267  H1319   1.115   .     S
C1268  H1323   1.108   .     S
C1268  H1322   1.109   .     S
C1268  O1358   1.409   .     S
C1268  H1324   1.114   .     S
C1269  O1334   1.281   .     A
C1269  O1335   1.273   .     A
C1270  O1337   1.282   .     A
C1270  O1340   1.282   .     A
C1271  O1338   1.283   .     A
C1271  O1339   1.282   .     A
C1272  H1273   1.082   .     S
C1272  N1482   1.365   .     A
H1288  C1408   1.109   .     S
H1293  C1410   1.108   1_455 S
N1329  Zn1365  2.002   .     S
N1329  C1372   1.365   1_455 A
N1330  Zn1366  2.002   .     S
N1330  C1424   1.365   1_455 A
N1331  C1526   1.365   1_545 S
N1331  Zn1367  2.002   .     S
N1332  Zn1368  2.002   .     S
N1332  C1527   1.366   1_545 S
O1333  Zn1365  1.993   .     S
O1334  Zn1368  1.993   .     S
O1335  Zn1367  1.993   .     S
O1336  Zn1672  1.993   .     S
O1337  Zn1672  2.016   .     S
O1338  Zn1367  2.016   .     S
O1339  Zn1368  2.015   .     S
O1340  Zn1671  2.015   .     S
O1344  Zn1518  1.993   .     S
O1355  Zn1517  1.993   .     S
O1359  Zn1366  1.993   .     S
O1360  Zn1518  2.016   .     S
O1361  Zn1365  2.016   .     S
O1362  Zn1366  2.015   .     S
O1363  Zn1517  2.015   .     S
O1364  Zn1671  1.993   .     S
Zn1365 O1507   1.993   1_455 S
Zn1365 O1515   2.015   1_455 S
Zn1366 O1512   2.016   1_455 S
Zn1366 O1496   1.993   1_455 S
Zn1367 O1668   1.993   1_545 S
Zn1367 O1644   2.015   1_545 S
Zn1368 O1641   2.016   1_545 S
Zn1368 O1640   1.993   1_545 S
C1369  O1511   1.276   .     A
C1369  O1485   1.279   .     A
C1369  C1398   1.414   .     S
C1370  H1436   1.082   .     S
C1370  C155    1.414   1_556 S
C1370  N1481   1.365   .     S
C1371  H1447   1.080   .     S
C1371  N1482   1.365   .     S
C1372  N1329   1.365   1_655 A
C1372  H1458   1.081   .     S
C1372  C208    1.414   1_556 S
C1373  H1469   1.081   .     S
C1373  N1484   1.365   .     A
C1374  H1477   1.081   .     S
C1374  C159    1.413   1_556 S
C1374  N1787   1.365   .     S
C1375  H1478   1.081   .     S
C1375  N1788   1.366   .     S
C1376  N1483   1.365   .     A
C1376  H1479   1.081   .     S
C1376  C157    1.413   1_556 S
C1377  C1388   1.381   .     A
C1377  O1493   1.386   .     S
C1377  C1396   1.408   .     A
C1378  C1395   1.409   .     A
C1378  C1389   1.384   .     A
C1378  O1494   1.387   .     S
C1379  C1386   1.382   .     A
C1379  O1495   1.384   .     S
C1379  C1395   1.415   .     A
C1380  C1397   1.413   .     S
C1380  O1507   1.280   .     A
C1380  O1496   1.274   .     A
C1381  C1396   1.407   .     A
C1381  C1387   1.376   .     A
C1381  O1497   1.385   .     S
C1382  C1398   1.404   .     A
C1382  O1498   1.385   .     S
C1382  C1393   1.385   .     A
C1383  C1397   1.403   .     A
C1383  C1394   1.384   .     A
C1383  O1499   1.387   .     S
C1384  C1390   1.384   .     A
C1384  C1397   1.400   .     A
C1384  O1500   1.385   .     S
C1385  C1398   1.403   .     A
C1385  C1392   1.382   .     A
C1385  O1501   1.385   .     S
C1386  C1400   1.408   .     A
C1386  O1502   1.390   .     S
C1387  C1399   1.409   .     A
C1387  O1503   1.385   .     S
C1388  O1504   1.387   .     S
C1388  C1399   1.411   .     A
C1389  O1505   1.386   .     S
C1389  C1400   1.409   .     A
C1390  C1403   1.403   .     A
C1390  O1506   1.387   .     S
C1391  O1515   1.282   .     A
C1391  C1396   1.429   .     S
C1391  O1512   1.281   .     A
C1392  O1508   1.385   .     S
C1392  C1401   1.398   .     A
C1393  O1509   1.387   .     S
C1393  C1401   1.404   .     A
C1394  O1510   1.385   .     S
C1394  C1403   1.403   .     A
C1395  C1402   1.440   .     S
C1399  C1423   1.433   .     S
C1400  C1422   1.432   .     S
C1401  C1421   1.413   .     S
C1402  O1513   1.286   .     A
C1402  O1514   1.282   .     A
C1403  C1413   1.414   .     S
C1404  O1493   1.411   .     S
C1404  H1427   1.114   .     S
C1404  H1480   1.109   .     S
C1404  H1426   1.109   .     S
C1405  H1430   1.111   .     S
C1405  H1429   1.111   .     S
C1405  H1428   1.107   .     S
C1405  O1494   1.413   .     S
C1406  H1432   1.111   .     S
C1406  H1433   1.111   .     S
C1406  H1431   1.108   .     S
C1406  O1495   1.416   .     S
C1407  O1497   1.411   .     S
C1407  H1437   1.113   .     S
C1407  H1434   1.114   .     S
C1407  H1435   1.109   .     S
C1408  H1438   1.113   .     S
C1408  H1439   1.109   .     S
C1408  O1498   1.409   .     S
C1409  O1499   1.413   .     S
C1409  H1443   1.110   .     S
C1409  H1442   1.110   .     S
C1409  H1441   1.114   .     S
C1410  H1446   1.114   .     S
C1410  H1444   1.113   .     S
C1410  O1500   1.411   .     S
C1410  H1293   1.108   1_655 S
C1411  O1501   1.413   .     S
C1411  H1449   1.114   .     S
C1411  H1448   1.109   .     S
C1411  H1450   1.111   .     S
C1412  H1451   1.114   .     S
C1412  O1502   1.412   .     S
C1412  H1453   1.108   .     S
C1412  H1452   1.108   .     S
C1413  O1516   1.276   .     A
C1413  O1488   1.278   .     A
C1414  H1455   1.115   .     S
C1414  H1456   1.108   .     S
C1414  O1503   1.412   .     S
C1414  H1454   1.112   .     S
C1415  H1460   1.112   .     S
C1415  O1504   1.412   .     S
C1415  H1457   1.110   .     S
C1415  H1459   1.107   .     S
C1416  H1463   1.114   .     S
C1416  O1505   1.410   .     S
C1416  H1461   1.109   .     S
C1416  H1462   1.109   .     S
C1417  H1466   1.110   .     S
C1417  O1506   1.412   .     S
C1417  H1464   1.114   .     S
C1417  H1465   1.109   .     S
C1418  H1467   1.108   .     S
C1418  O1508   1.412   .     S
C1418  H1470   1.114   .     S
C1418  H1468   1.113   .     S
C1419  O1509   1.413   .     S
C1419  H1472   1.109   .     S
C1419  H1473   1.110   .     S
C1419  H1471   1.115   .     S
C1420  H1475   1.108   .     S
C1420  H1474   1.109   .     S
C1420  O1510   1.409   .     S
C1420  H1476   1.114   .     S
C1421  O1486   1.281   .     A
C1421  O1487   1.273   .     A
C1422  O1489   1.282   .     A
C1422  O1492   1.282   .     A
C1423  O1490   1.283   .     A
C1423  O1491   1.282   .     A
C1424  H1425   1.082   .     S
C1424  N1330   1.365   1_655 A
H1440  C1256   1.109   1_655 S
N1481  Zn1517  2.002   .     S
N1482  Zn1518  2.002   .     S
N1483  C1678   1.365   1_545 S
N1483  Zn1519  2.002   .     S
N1484  Zn1520  2.002   .     S
N1484  C1679   1.366   1_545 S
O1485  Zn1517  1.993   .     S
O1486  Zn1520  1.993   .     S
O1487  Zn1519  1.993   .     S
O1488  Zn1824  1.993   .     S
O1489  Zn1824  2.016   .     S
O1490  Zn1519  2.016   .     S
O1491  Zn1520  2.015   .     S
O1492  Zn1823  2.015   .     S
O1496  Zn1366  1.993   1_655 S
O1507  Zn1365  1.993   1_655 S
O1511  Zn1518  1.993   .     S
O1512  Zn1366  2.016   1_655 S
O1513  Zn1517  2.016   .     S
O1514  Zn1518  2.015   .     S
O1515  Zn1365  2.015   1_655 S
O1516  Zn1823  1.993   .     S
Zn1519 O1820   1.993   1_545 S
Zn1519 O1796   2.015   1_545 S
Zn1520 O1793   2.016   1_545 S
Zn1520 O1792   1.993   1_545 S
C1521  O1663   1.276   .     A
C1521  O1637   1.279   .     A
C1521  C1550   1.414   .     S
C1522  H1588   1.082   .     S
C1522  C307    1.414   1_556 S
C1522  N1633   1.365   .     S
C1523  H1599   1.080   .     S
C1523  N1634   1.365   .     S
C1524  N1785   1.365   .     A
C1524  H1610   1.081   .     S
C1524  C360    1.414   1_556 S
C1525  H1621   1.081   .     S
C1525  N1636   1.365   .     A
C1526  H1629   1.081   .     S
C1526  C311    1.413   1_556 S
C1526  N1331   1.365   1_565 S
C1527  H1630   1.081   .     S
C1527  N1332   1.366   1_565 S
C1528  N1635   1.365   .     A
C1528  H1631   1.081   .     S
C1528  C309    1.413   1_556 S
C1529  C1540   1.381   .     A
C1529  O1645   1.386   .     S
C1529  C1548   1.408   .     A
C1530  C1547   1.409   .     A
C1530  C1541   1.384   .     A
C1530  O1646   1.387   .     S
C1531  C1538   1.382   .     A
C1531  O1647   1.384   .     S
C1531  C1547   1.415   .     A
C1532  C1549   1.413   .     S
C1532  O1659   1.280   .     A
C1532  O1648   1.274   .     A
C1533  C1548   1.407   .     A
C1533  C1539   1.376   .     A
C1533  O1649   1.385   .     S
C1534  C1550   1.404   .     A
C1534  O1650   1.385   .     S
C1534  C1545   1.385   .     A
C1535  C1549   1.403   .     A
C1535  C1546   1.384   .     A
C1535  O1651   1.387   .     S
C1536  C1542   1.384   .     A
C1536  C1549   1.400   .     A
C1536  O1652   1.385   .     S
C1537  C1550   1.403   .     A
C1537  C1544   1.382   .     A
C1537  O1653   1.385   .     S
C1538  C1552   1.408   .     A
C1538  O1654   1.390   .     S
C1539  C1551   1.409   .     A
C1539  O1655   1.385   .     S
C1540  O1656   1.387   .     S
C1540  C1551   1.411   .     A
C1541  O1657   1.386   .     S
C1541  C1552   1.409   .     A
C1542  C1555   1.403   .     A
C1542  O1658   1.387   .     S
C1543  O1667   1.282   .     A
C1543  C1548   1.429   .     S
C1543  O1664   1.281   .     A
C1544  O1660   1.385   .     S
C1544  C1553   1.398   .     A
C1545  O1661   1.387   .     S
C1545  C1553   1.404   .     A
C1546  O1662   1.385   .     S
C1546  C1555   1.403   .     A
C1547  C1554   1.440   .     S
C1551  C1575   1.433   .     S
C1552  C1574   1.432   .     S
C1553  C1573   1.413   .     S
C1554  O1665   1.286   .     A
C1554  O1666   1.282   .     A
C1555  C1565   1.414   .     S
C1556  O1645   1.411   .     S
C1556  H1579   1.114   .     S
C1556  H1632   1.109   .     S
C1556  H1578   1.109   .     S
C1557  H1582   1.111   .     S
C1557  H1581   1.111   .     S
C1557  H1580   1.107   .     S
C1557  O1646   1.413   .     S
C1558  H1584   1.111   .     S
C1558  H1585   1.111   .     S
C1558  H1583   1.108   .     S
C1558  O1647   1.416   .     S
C1559  O1649   1.411   .     S
C1559  H1589   1.113   .     S
C1559  H1586   1.114   .     S
C1559  H1587   1.109   .     S
C1560  H1590   1.113   .     S
C1560  H1591   1.109   .     S
C1560  O1650   1.409   .     S
C1560  H1744   1.109   1_455 S
C1561  O1651   1.413   .     S
C1561  H1595   1.110   .     S
C1561  H1594   1.110   .     S
C1561  H1593   1.114   .     S
C1562  H1598   1.114   .     S
C1562  H1596   1.113   .     S
C1562  O1652   1.411   .     S
C1562  H1749   1.108   .     S
C1563  O1653   1.413   .     S
C1563  H1601   1.114   .     S
C1563  H1600   1.109   .     S
C1563  H1602   1.111   .     S
C1564  H1603   1.114   .     S
C1564  O1654   1.412   .     S
C1564  H1605   1.108   .     S
C1564  H1604   1.108   .     S
C1565  O1668   1.276   .     A
C1565  O1640   1.278   .     A
C1566  H1607   1.115   .     S
C1566  H1608   1.108   .     S
C1566  O1655   1.412   .     S
C1566  H1606   1.112   .     S
C1567  H1612   1.112   .     S
C1567  O1656   1.412   .     S
C1567  H1609   1.110   .     S
C1567  H1611   1.107   .     S
C1568  H1615   1.114   .     S
C1568  O1657   1.410   .     S
C1568  H1613   1.109   .     S
C1568  H1614   1.109   .     S
C1569  H1618   1.110   .     S
C1569  O1658   1.412   .     S
C1569  H1616   1.114   .     S
C1569  H1617   1.109   .     S
C1570  H1619   1.108   .     S
C1570  O1660   1.412   .     S
C1570  H1622   1.114   .     S
C1570  H1620   1.113   .     S
C1571  O1661   1.413   .     S
C1571  H1624   1.109   .     S
C1571  H1625   1.110   .     S
C1571  H1623   1.115   .     S
C1572  H1627   1.108   .     S
C1572  H1626   1.109   .     S
C1572  O1662   1.409   .     S
C1572  H1628   1.114   .     S
C1573  O1638   1.281   .     A
C1573  O1639   1.273   .     A
C1574  O1641   1.282   .     A
C1574  O1644   1.282   .     A
C1575  O1642   1.283   .     A
C1575  O1643   1.282   .     A
C1576  H1577   1.082   .     S
C1576  N1786   1.365   .     A
H1592  C1712   1.109   .     S
H1597  C1714   1.108   1_455 S
N1633  Zn1669  2.002   .     S
N1633  C1676   1.365   1_455 A
N1634  Zn1670  2.002   .     S
N1634  C1728   1.365   1_455 A
N1635  Zn1671  2.002   .     S
N1636  Zn1672  2.002   .     S
O1637  Zn1669  1.993   .     S
O1638  Zn1672  1.993   .     S
O1639  Zn1671  1.993   .     S
O1640  Zn1368  1.993   1_565 S
O1641  Zn1368  2.016   1_565 S
O1642  Zn1671  2.016   .     S
O1643  Zn1672  2.015   .     S
O1644  Zn1367  2.015   1_565 S
O1648  Zn1822  1.993   .     S
O1659  Zn1821  1.993   .     S
O1663  Zn1670  1.993   .     S
O1664  Zn1822  2.016   .     S
O1665  Zn1669  2.016   .     S
O1666  Zn1670  2.015   .     S
O1667  Zn1821  2.015   .     S
O1668  Zn1367  1.993   1_565 S
Zn1669 O1811   1.993   1_455 S
Zn1669 O1819   2.015   1_455 S
Zn1670 O1816   2.016   1_455 S
Zn1670 O1800   1.993   1_455 S
C1673  O1815   1.276   .     A
C1673  O1789   1.279   .     A
C1673  C1702   1.414   .     S
C1674  H1740   1.082   .     S
C1674  C459    1.414   1_556 S
C1674  N1785   1.365   .     S
C1675  H1751   1.080   .     S
C1675  N1786   1.365   .     S
C1676  N1633   1.365   1_655 A
C1676  H1762   1.081   .     S
C1676  C512    1.414   1_556 S
C1677  H1773   1.081   .     S
C1677  N1788   1.365   .     A
C1678  H1781   1.081   .     S
C1678  C463    1.413   1_556 S
C1678  N1483   1.365   1_565 S
C1679  H1782   1.081   .     S
C1679  N1484   1.366   1_565 S
C1680  N1787   1.365   .     A
C1680  H1783   1.081   .     S
C1680  C461    1.413   1_556 S
C1681  C1692   1.381   .     A
C1681  O1797   1.386   .     S
C1681  C1700   1.408   .     A
C1682  C1699   1.409   .     A
C1682  C1693   1.384   .     A
C1682  O1798   1.387   .     S
C1683  C1690   1.382   .     A
C1683  O1799   1.384   .     S
C1683  C1699   1.415   .     A
C1684  C1701   1.413   .     S
C1684  O1811   1.280   .     A
C1684  O1800   1.274   .     A
C1685  C1700   1.407   .     A
C1685  C1691   1.376   .     A
C1685  O1801   1.385   .     S
C1686  C1702   1.404   .     A
C1686  O1802   1.385   .     S
C1686  C1697   1.385   .     A
C1687  C1701   1.403   .     A
C1687  C1698   1.384   .     A
C1687  O1803   1.387   .     S
C1688  C1694   1.384   .     A
C1688  C1701   1.400   .     A
C1688  O1804   1.385   .     S
C1689  C1702   1.403   .     A
C1689  C1696   1.382   .     A
C1689  O1805   1.385   .     S
C1690  C1704   1.408   .     A
C1690  O1806   1.390   .     S
C1691  C1703   1.409   .     A
C1691  O1807   1.385   .     S
C1692  O1808   1.387   .     S
C1692  C1703   1.411   .     A
C1693  O1809   1.386   .     S
C1693  C1704   1.409   .     A
C1694  C1707   1.403   .     A
C1694  O1810   1.387   .     S
C1695  O1819   1.282   .     A
C1695  C1700   1.429   .     S
C1695  O1816   1.281   .     A
C1696  O1812   1.385   .     S
C1696  C1705   1.398   .     A
C1697  O1813   1.387   .     S
C1697  C1705   1.404   .     A
C1698  O1814   1.385   .     S
C1698  C1707   1.403   .     A
C1699  C1706   1.440   .     S
C1703  C1727   1.433   .     S
C1704  C1726   1.432   .     S
C1705  C1725   1.413   .     S
C1706  O1817   1.286   .     A
C1706  O1818   1.282   .     A
C1707  C1717   1.414   .     S
C1708  O1797   1.411   .     S
C1708  H1731   1.114   .     S
C1708  H1784   1.109   .     S
C1708  H1730   1.109   .     S
C1709  H1734   1.111   .     S
C1709  H1733   1.111   .     S
C1709  H1732   1.107   .     S
C1709  O1798   1.413   .     S
C1710  H1736   1.111   .     S
C1710  H1737   1.111   .     S
C1710  H1735   1.108   .     S
C1710  O1799   1.416   .     S
C1711  O1801   1.411   .     S
C1711  H1741   1.113   .     S
C1711  H1738   1.114   .     S
C1711  H1739   1.109   .     S
C1712  H1742   1.113   .     S
C1712  H1743   1.109   .     S
C1712  O1802   1.409   .     S
C1713  O1803   1.413   .     S
C1713  H1747   1.110   .     S
C1713  H1746   1.110   .     S
C1713  H1745   1.114   .     S
C1714  H1750   1.114   .     S
C1714  H1748   1.113   .     S
C1714  O1804   1.411   .     S
C1714  H1597   1.108   1_655 S
C1715  O1805   1.413   .     S
C1715  H1753   1.114   .     S
C1715  H1752   1.109   .     S
C1715  H1754   1.111   .     S
C1716  H1755   1.114   .     S
C1716  O1806   1.412   .     S
C1716  H1757   1.108   .     S
C1716  H1756   1.108   .     S
C1717  O1820   1.276   .     A
C1717  O1792   1.278   .     A
C1718  H1759   1.115   .     S
C1718  H1760   1.108   .     S
C1718  O1807   1.412   .     S
C1718  H1758   1.112   .     S
C1719  H1764   1.112   .     S
C1719  O1808   1.412   .     S
C1719  H1761   1.110   .     S
C1719  H1763   1.107   .     S
C1720  H1767   1.114   .     S
C1720  O1809   1.410   .     S
C1720  H1765   1.109   .     S
C1720  H1766   1.109   .     S
C1721  H1770   1.110   .     S
C1721  O1810   1.412   .     S
C1721  H1768   1.114   .     S
C1721  H1769   1.109   .     S
C1722  H1771   1.108   .     S
C1722  O1812   1.412   .     S
C1722  H1774   1.114   .     S
C1722  H1772   1.113   .     S
C1723  O1813   1.413   .     S
C1723  H1776   1.109   .     S
C1723  H1777   1.110   .     S
C1723  H1775   1.115   .     S
C1724  H1779   1.108   .     S
C1724  H1778   1.109   .     S
C1724  O1814   1.409   .     S
C1724  H1780   1.114   .     S
C1725  O1790   1.281   .     A
C1725  O1791   1.273   .     A
C1726  O1793   1.282   .     A
C1726  O1796   1.282   .     A
C1727  O1794   1.283   .     A
C1727  O1795   1.282   .     A
C1728  H1729   1.082   .     S
C1728  N1634   1.365   1_655 A
H1744  C1560   1.109   1_655 S
N1785  Zn1821  2.002   .     S
N1786  Zn1822  2.002   .     S
N1787  Zn1823  2.002   .     S
N1788  Zn1824  2.002   .     S
O1789  Zn1821  1.993   .     S
O1790  Zn1824  1.993   .     S
O1791  Zn1823  1.993   .     S
O1792  Zn1520  1.993   1_565 S
O1793  Zn1520  2.016   1_565 S
O1794  Zn1823  2.016   .     S
O1795  Zn1824  2.015   .     S
O1796  Zn1519  2.015   1_565 S
O1800  Zn1670  1.993   1_655 S
O1811  Zn1669  1.993   1_655 S
O1815  Zn1822  1.993   .     S
O1816  Zn1670  2.016   1_655 S
O1817  Zn1821  2.016   .     S
O1818  Zn1822  2.015   .     S
O1819  Zn1669  2.015   1_655 S
O1820  Zn1519  1.993   1_565 S
