data_str_m2_o1_o10_pcu_sym.11
_audit_creation_date              2020-01-03
_audit_creation_method            'Materials Studio'
_symmetry_space_group_name_H-M    'P1'
_symmetry_Int_Tables_number       1
_symmetry_cell_setting            triclinic
loop_
_symmetry_equiv_pos_as_xyz
  x,y,z
_cell_length_a                    26.6614
_cell_length_b                    32.2562
_cell_length_c                    28.9761
_cell_angle_alpha                 93.3798
_cell_angle_beta                  98.5147
_cell_angle_gamma                 89.4897
loop_
_atom_site_label
_atom_site_type_symbol
_atom_site_fract_x
_atom_site_fract_y
_atom_site_fract_z
_atom_site_U_iso_or_equiv
_atom_site_adp_type
_atom_site_occupancy
C1     C     0.16758   0.08755   0.16568   0.00000  Uiso   1.00
C2     C     0.12470   0.02355   0.17597   0.00000  Uiso   1.00
C3     C     0.16613   0.29057   0.16950   0.00000  Uiso   1.00
C4     C     0.16720   0.04276   0.16383   0.00000  Uiso   1.00
C5     C     0.15498   0.13128   0.01946   0.00000  Uiso   1.00
C6     C     0.17835   0.20205   0.31387   0.00000  Uiso   1.00
C7     C     0.15433   0.13208   0.30389   0.00000  Uiso   1.00
C8     C     0.17901   0.20125   0.02944   0.00000  Uiso   1.00
C9     C     0.32119   0.13318   0.10577   0.00000  Uiso   1.00
C10    C     0.02178   0.10494   0.07977   0.00000  Uiso   1.00
C11    C     0.01214   0.20015   0.22756   0.00000  Uiso   1.00
C12    C     0.16575   0.24578   0.16765   0.00000  Uiso   1.00
C13    C     0.31155   0.22839   0.25356   0.00000  Uiso   1.00
C14    C     0.25670   0.03937   0.14314   0.00000  Uiso   1.00
C15    C     0.07664   0.29397   0.19020   0.00000  Uiso   1.00
C16    C     0.14505   0.08930   0.03595   0.00000  Uiso   1.00
C17    C     0.18828   0.24404   0.29738   0.00000  Uiso   1.00
C18    C     0.06822   0.16532   0.15462   0.00000  Uiso   1.00
C19    C     0.26512   0.16801   0.17871   0.00000  Uiso   1.00
C20    C     0.01328   0.15927   0.14905   0.00000  Uiso   1.00
C21    C     0.32005   0.17406   0.18428   0.00000  Uiso   1.00
C22    C     0.20983   0.01935   0.15470   0.00000  Uiso   1.00
C23    C     0.12350   0.31399   0.17863   0.00000  Uiso   1.00
C24    C     0.20863   0.30979   0.15736   0.00000  Uiso   1.00
Cu25   Cu    0.16667   0.16667   0.21355   0.00000  Uiso   1.00
Cu26   Cu    0.16667   0.16666   0.11978   0.00000  Uiso   1.00
H27    H     0.24084   0.29109   0.14991   0.00000  Uiso   1.00
H28    H     0.28364   0.24473   0.22857   0.00000  Uiso   1.00
H29    H     0.29279   0.20991   0.27719   0.00000  Uiso   1.00
H30    H     0.00178   0.25219   0.27597   0.00000  Uiso   1.00
H31    H     0.03297   0.17930   0.25304   0.00000  Uiso   1.00
H32    H     0.03922   0.22162   0.21621   0.00000  Uiso   1.00
H33    H     0.27052   0.06369   0.17070   0.00000  Uiso   1.00
H34    H     0.28783   0.01657   0.14076   0.00000  Uiso   1.00
H35    H     0.24758   0.05314   0.10881   0.00000  Uiso   1.00
H36    H     0.06280   0.26965   0.16263   0.00000  Uiso   1.00
H37    H     0.08576   0.28018   0.22452   0.00000  Uiso   1.00
H38    H     0.09250   0.04224   0.18342   0.00000  Uiso   1.00
H39    H     0.04551   0.31676   0.19260   0.00000  Uiso   1.00
H40    H     0.13200   0.06627   0.00670   0.00000  Uiso   1.00
H41    H     0.18078   0.07655   0.05417   0.00000  Uiso   1.00
H42    H     0.11443   0.09076   0.05743   0.00000  Uiso   1.00
H43    H     0.15255   0.25678   0.27916   0.00000  Uiso   1.00
H44    H     0.20132   0.26707   0.32664   0.00000  Uiso   1.00
H45    H     0.21891   0.24258   0.27590   0.00000  Uiso   1.00
H46    H     0.14407   0.10444   0.28181   0.00000  Uiso   1.00
H47    H     0.18926   0.22889   0.05152   0.00000  Uiso   1.00
H48    H     0.04055   0.12342   0.05615   0.00000  Uiso   1.00
H49    H     0.04969   0.08860   0.10476   0.00000  Uiso   1.00
H50    H     0.33155   0.08114   0.05737   0.00000  Uiso   1.00
H51    H     0.29411   0.11171   0.11712   0.00000  Uiso   1.00
H52    H     0.30036   0.15403   0.08030   0.00000  Uiso   1.00
N53    N     0.16668   0.16668   0.28403   0.00000  Uiso   1.00
N54    N     0.16665   0.16666   0.04931   0.00000  Uiso   1.00
O55    O     0.16666   0.10655   0.20625   0.00000  Uiso   1.00
O56    O     0.16667   0.22678   0.12709   0.00000  Uiso   1.00
O57    O     0.16666   0.10654   0.12706   0.00000  Uiso   1.00
O58    O     0.16667   0.22679   0.20628   0.00000  Uiso   1.00
O59    O     0.09161   0.16667   0.19712   0.00000  Uiso   1.00
O60    O     0.24172   0.16666   0.13621   0.00000  Uiso   1.00
O61    O     0.09161   0.16666   0.11793   0.00000  Uiso   1.00
O62    O     0.24172   0.16667   0.21540   0.00000  Uiso   1.00
C63    C     0.50091   0.08755   0.16568   0.00000  Uiso   1.00
C64    C     0.45803   0.02355   0.17597   0.00000  Uiso   1.00
C65    C     0.49946   0.29057   0.16950   0.00000  Uiso   1.00
C66    C     0.50054   0.04276   0.16383   0.00000  Uiso   1.00
C67    C     0.48832   0.13128   0.01946   0.00000  Uiso   1.00
C68    C     0.51168   0.20205   0.31387   0.00000  Uiso   1.00
C69    C     0.48766   0.13208   0.30389   0.00000  Uiso   1.00
C70    C     0.51234   0.20125   0.02944   0.00000  Uiso   1.00
C71    C     0.65453   0.13318   0.10577   0.00000  Uiso   1.00
C72    C     0.35511   0.10494   0.07977   0.00000  Uiso   1.00
C73    C     0.34547   0.20015   0.22756   0.00000  Uiso   1.00
C74    C     0.49909   0.24578   0.16765   0.00000  Uiso   1.00
C75    C     0.64489   0.22839   0.25356   0.00000  Uiso   1.00
C76    C     0.59003   0.03937   0.14314   0.00000  Uiso   1.00
C77    C     0.40997   0.29397   0.19020   0.00000  Uiso   1.00
C78    C     0.47839   0.08930   0.03595   0.00000  Uiso   1.00
C79    C     0.52161   0.24404   0.29738   0.00000  Uiso   1.00
C80    C     0.40155   0.16532   0.15462   0.00000  Uiso   1.00
C81    C     0.59845   0.16801   0.17871   0.00000  Uiso   1.00
C82    C     0.34662   0.15927   0.14905   0.00000  Uiso   1.00
C83    C     0.65338   0.17406   0.18428   0.00000  Uiso   1.00
C84    C     0.54316   0.01935   0.15470   0.00000  Uiso   1.00
C85    C     0.45684   0.31399   0.17863   0.00000  Uiso   1.00
C86    C     0.54197   0.30979   0.15736   0.00000  Uiso   1.00
Cu87   Cu    0.50000   0.16667   0.21355   0.00000  Uiso   1.00
Cu88   Cu    0.50000   0.16666   0.11978   0.00000  Uiso   1.00
H89    H     0.57417   0.29109   0.14991   0.00000  Uiso   1.00
H90    H     0.61697   0.24473   0.22857   0.00000  Uiso   1.00
H91    H     0.62612   0.20991   0.27719   0.00000  Uiso   1.00
H92    H     0.33512   0.25219   0.27597   0.00000  Uiso   1.00
H93    H     0.36630   0.17930   0.25304   0.00000  Uiso   1.00
H94    H     0.37255   0.22162   0.21621   0.00000  Uiso   1.00
H95    H     0.60386   0.06369   0.17070   0.00000  Uiso   1.00
H96    H     0.62117   0.01657   0.14076   0.00000  Uiso   1.00
H97    H     0.58091   0.05314   0.10881   0.00000  Uiso   1.00
H98    H     0.39613   0.26965   0.16263   0.00000  Uiso   1.00
H99    H     0.41909   0.28018   0.22452   0.00000  Uiso   1.00
H100   H     0.42583   0.04224   0.18342   0.00000  Uiso   1.00
H101   H     0.37885   0.31676   0.19260   0.00000  Uiso   1.00
H102   H     0.46534   0.06627   0.00670   0.00000  Uiso   1.00
H103   H     0.51411   0.07655   0.05417   0.00000  Uiso   1.00
H104   H     0.44776   0.09076   0.05743   0.00000  Uiso   1.00
H105   H     0.48588   0.25678   0.27916   0.00000  Uiso   1.00
H106   H     0.53465   0.26707   0.32664   0.00000  Uiso   1.00
H107   H     0.55224   0.24258   0.27590   0.00000  Uiso   1.00
H108   H     0.47740   0.10444   0.28181   0.00000  Uiso   1.00
H109   H     0.52260   0.22889   0.05152   0.00000  Uiso   1.00
H110   H     0.37388   0.12342   0.05615   0.00000  Uiso   1.00
H111   H     0.38303   0.08860   0.10476   0.00000  Uiso   1.00
H112   H     0.66488   0.08114   0.05737   0.00000  Uiso   1.00
H113   H     0.62745   0.11171   0.11712   0.00000  Uiso   1.00
H114   H     0.63370   0.15403   0.08030   0.00000  Uiso   1.00
N115   N     0.50001   0.16668   0.28403   0.00000  Uiso   1.00
N116   N     0.49999   0.16666   0.04931   0.00000  Uiso   1.00
O117   O     0.50000   0.10655   0.20625   0.00000  Uiso   1.00
O118   O     0.50000   0.22678   0.12709   0.00000  Uiso   1.00
O119   O     0.50000   0.10654   0.12706   0.00000  Uiso   1.00
O120   O     0.50000   0.22679   0.20628   0.00000  Uiso   1.00
O121   O     0.42495   0.16667   0.19712   0.00000  Uiso   1.00
O122   O     0.57505   0.16666   0.13621   0.00000  Uiso   1.00
O123   O     0.42494   0.16666   0.11793   0.00000  Uiso   1.00
O124   O     0.57506   0.16667   0.21540   0.00000  Uiso   1.00
C125   C     0.83425   0.08755   0.16568   0.00000  Uiso   1.00
C126   C     0.79137   0.02355   0.17597   0.00000  Uiso   1.00
C127   C     0.83280   0.29057   0.16950   0.00000  Uiso   1.00
C128   C     0.83387   0.04276   0.16383   0.00000  Uiso   1.00
C129   C     0.82165   0.13128   0.01946   0.00000  Uiso   1.00
C130   C     0.84502   0.20205   0.31387   0.00000  Uiso   1.00
C131   C     0.82099   0.13208   0.30389   0.00000  Uiso   1.00
C132   C     0.84567   0.20125   0.02944   0.00000  Uiso   1.00
C133   C     0.98786   0.13318   0.10577   0.00000  Uiso   1.00
C134   C     0.68845   0.10494   0.07977   0.00000  Uiso   1.00
C135   C     0.67881   0.20015   0.22756   0.00000  Uiso   1.00
C136   C     0.83242   0.24578   0.16765   0.00000  Uiso   1.00
C137   C     0.97822   0.22839   0.25356   0.00000  Uiso   1.00
C138   C     0.92337   0.03937   0.14314   0.00000  Uiso   1.00
C139   C     0.74330   0.29397   0.19020   0.00000  Uiso   1.00
C140   C     0.81172   0.08930   0.03595   0.00000  Uiso   1.00
C141   C     0.85495   0.24404   0.29738   0.00000  Uiso   1.00
C142   C     0.73488   0.16532   0.15462   0.00000  Uiso   1.00
C143   C     0.93178   0.16801   0.17871   0.00000  Uiso   1.00
C144   C     0.67995   0.15927   0.14905   0.00000  Uiso   1.00
C145   C     0.98672   0.17406   0.18428   0.00000  Uiso   1.00
C146   C     0.87650   0.01935   0.15470   0.00000  Uiso   1.00
C147   C     0.79017   0.31399   0.17863   0.00000  Uiso   1.00
C148   C     0.87530   0.30979   0.15736   0.00000  Uiso   1.00
Cu149  Cu    0.83333   0.16667   0.21355   0.00000  Uiso   1.00
Cu150  Cu    0.83333   0.16666   0.11978   0.00000  Uiso   1.00
H151   H     0.90750   0.29109   0.14991   0.00000  Uiso   1.00
H152   H     0.95030   0.24473   0.22857   0.00000  Uiso   1.00
H153   H     0.95946   0.20991   0.27719   0.00000  Uiso   1.00
H154   H     0.66845   0.25219   0.27597   0.00000  Uiso   1.00
H155   H     0.69964   0.17930   0.25304   0.00000  Uiso   1.00
H156   H     0.70588   0.22162   0.21621   0.00000  Uiso   1.00
H157   H     0.93719   0.06369   0.17070   0.00000  Uiso   1.00
H158   H     0.95450   0.01657   0.14076   0.00000  Uiso   1.00
H159   H     0.91425   0.05314   0.10881   0.00000  Uiso   1.00
H160   H     0.72946   0.26965   0.16263   0.00000  Uiso   1.00
H161   H     0.75243   0.28018   0.22452   0.00000  Uiso   1.00
H162   H     0.75916   0.04224   0.18342   0.00000  Uiso   1.00
H163   H     0.71218   0.31676   0.19260   0.00000  Uiso   1.00
H164   H     0.79867   0.06627   0.00670   0.00000  Uiso   1.00
H165   H     0.84745   0.07655   0.05417   0.00000  Uiso   1.00
H166   H     0.78109   0.09076   0.05743   0.00000  Uiso   1.00
H167   H     0.81922   0.25678   0.27916   0.00000  Uiso   1.00
H168   H     0.86799   0.26707   0.32664   0.00000  Uiso   1.00
H169   H     0.88558   0.24258   0.27590   0.00000  Uiso   1.00
H170   H     0.81074   0.10444   0.28181   0.00000  Uiso   1.00
H171   H     0.85593   0.22889   0.05152   0.00000  Uiso   1.00
H172   H     0.70721   0.12342   0.05615   0.00000  Uiso   1.00
H173   H     0.71636   0.08860   0.10476   0.00000  Uiso   1.00
H174   H     0.99822   0.08114   0.05737   0.00000  Uiso   1.00
H175   H     0.96078   0.11171   0.11712   0.00000  Uiso   1.00
H176   H     0.96703   0.15403   0.08030   0.00000  Uiso   1.00
N177   N     0.83335   0.16668   0.28403   0.00000  Uiso   1.00
N178   N     0.83332   0.16666   0.04931   0.00000  Uiso   1.00
O179   O     0.83333   0.10655   0.20625   0.00000  Uiso   1.00
O180   O     0.83334   0.22678   0.12709   0.00000  Uiso   1.00
O181   O     0.83333   0.10654   0.12706   0.00000  Uiso   1.00
O182   O     0.83334   0.22679   0.20628   0.00000  Uiso   1.00
O183   O     0.75828   0.16667   0.19712   0.00000  Uiso   1.00
O184   O     0.90839   0.16666   0.13621   0.00000  Uiso   1.00
O185   O     0.75828   0.16666   0.11793   0.00000  Uiso   1.00
O186   O     0.90839   0.16667   0.21540   0.00000  Uiso   1.00
C187   C     0.16758   0.42088   0.16568   0.00000  Uiso   1.00
C188   C     0.12470   0.35688   0.17597   0.00000  Uiso   1.00
C189   C     0.16613   0.62391   0.16950   0.00000  Uiso   1.00
C190   C     0.16720   0.37610   0.16383   0.00000  Uiso   1.00
C191   C     0.15498   0.46462   0.01946   0.00000  Uiso   1.00
C192   C     0.17835   0.53538   0.31387   0.00000  Uiso   1.00
C193   C     0.15433   0.46541   0.30389   0.00000  Uiso   1.00
C194   C     0.17901   0.53459   0.02944   0.00000  Uiso   1.00
C195   C     0.32119   0.46651   0.10577   0.00000  Uiso   1.00
C196   C     0.02178   0.43827   0.07977   0.00000  Uiso   1.00
C197   C     0.01214   0.53349   0.22756   0.00000  Uiso   1.00
C198   C     0.16575   0.57912   0.16765   0.00000  Uiso   1.00
C199   C     0.31155   0.56173   0.25356   0.00000  Uiso   1.00
C200   C     0.25670   0.37270   0.14314   0.00000  Uiso   1.00
C201   C     0.07664   0.62730   0.19020   0.00000  Uiso   1.00
C202   C     0.14505   0.42263   0.03595   0.00000  Uiso   1.00
C203   C     0.18828   0.57737   0.29738   0.00000  Uiso   1.00
C204   C     0.06822   0.49865   0.15462   0.00000  Uiso   1.00
C205   C     0.26512   0.50135   0.17871   0.00000  Uiso   1.00
C206   C     0.01328   0.49260   0.14905   0.00000  Uiso   1.00
C207   C     0.32005   0.50740   0.18428   0.00000  Uiso   1.00
C208   C     0.20983   0.35268   0.15470   0.00000  Uiso   1.00
C209   C     0.12350   0.64732   0.17863   0.00000  Uiso   1.00
C210   C     0.20863   0.64312   0.15736   0.00000  Uiso   1.00
Cu211  Cu    0.16667   0.50001   0.21355   0.00000  Uiso   1.00
Cu212  Cu    0.16667   0.49999   0.11978   0.00000  Uiso   1.00
H213   H     0.24084   0.62443   0.14991   0.00000  Uiso   1.00
H214   H     0.28364   0.57807   0.22857   0.00000  Uiso   1.00
H215   H     0.29279   0.54324   0.27719   0.00000  Uiso   1.00
H216   H     0.00178   0.58553   0.27597   0.00000  Uiso   1.00
H217   H     0.03297   0.51263   0.25304   0.00000  Uiso   1.00
H218   H     0.03922   0.55496   0.21621   0.00000  Uiso   1.00
H219   H     0.27052   0.39703   0.17070   0.00000  Uiso   1.00
H220   H     0.28783   0.34991   0.14076   0.00000  Uiso   1.00
H221   H     0.24758   0.38648   0.10881   0.00000  Uiso   1.00
H222   H     0.06280   0.60299   0.16263   0.00000  Uiso   1.00
H223   H     0.08576   0.61351   0.22452   0.00000  Uiso   1.00
H224   H     0.09250   0.37557   0.18342   0.00000  Uiso   1.00
H225   H     0.04551   0.65010   0.19260   0.00000  Uiso   1.00
H226   H     0.13200   0.39960   0.00670   0.00000  Uiso   1.00
H227   H     0.18078   0.40988   0.05417   0.00000  Uiso   1.00
H228   H     0.11443   0.42409   0.05743   0.00000  Uiso   1.00
H229   H     0.15255   0.59012   0.27916   0.00000  Uiso   1.00
H230   H     0.20132   0.60041   0.32664   0.00000  Uiso   1.00
H231   H     0.21891   0.57591   0.27590   0.00000  Uiso   1.00
H232   H     0.14407   0.43778   0.28181   0.00000  Uiso   1.00
H233   H     0.18926   0.56222   0.05152   0.00000  Uiso   1.00
H234   H     0.04055   0.45676   0.05615   0.00000  Uiso   1.00
H235   H     0.04969   0.42193   0.10476   0.00000  Uiso   1.00
H236   H     0.33155   0.41447   0.05737   0.00000  Uiso   1.00
H237   H     0.29411   0.44504   0.11712   0.00000  Uiso   1.00
H238   H     0.30036   0.48737   0.08030   0.00000  Uiso   1.00
N239   N     0.16668   0.50001   0.28403   0.00000  Uiso   1.00
N240   N     0.16665   0.49999   0.04931   0.00000  Uiso   1.00
O241   O     0.16666   0.43989   0.20625   0.00000  Uiso   1.00
O242   O     0.16667   0.56011   0.12709   0.00000  Uiso   1.00
O243   O     0.16666   0.43988   0.12706   0.00000  Uiso   1.00
O244   O     0.16667   0.56012   0.20628   0.00000  Uiso   1.00
O245   O     0.09161   0.50000   0.19712   0.00000  Uiso   1.00
O246   O     0.24172   0.50000   0.13621   0.00000  Uiso   1.00
O247   O     0.09161   0.49999   0.11793   0.00000  Uiso   1.00
O248   O     0.24172   0.50001   0.21540   0.00000  Uiso   1.00
C249   C     0.50091   0.42088   0.16568   0.00000  Uiso   1.00
C250   C     0.45803   0.35688   0.17597   0.00000  Uiso   1.00
C251   C     0.49946   0.62391   0.16950   0.00000  Uiso   1.00
C252   C     0.50054   0.37610   0.16383   0.00000  Uiso   1.00
C253   C     0.48832   0.46462   0.01946   0.00000  Uiso   1.00
C254   C     0.51168   0.53538   0.31387   0.00000  Uiso   1.00
C255   C     0.48766   0.46541   0.30389   0.00000  Uiso   1.00
C256   C     0.51234   0.53459   0.02944   0.00000  Uiso   1.00
C257   C     0.65453   0.46651   0.10577   0.00000  Uiso   1.00
C258   C     0.35511   0.43827   0.07977   0.00000  Uiso   1.00
C259   C     0.34547   0.53349   0.22756   0.00000  Uiso   1.00
C260   C     0.49909   0.57912   0.16765   0.00000  Uiso   1.00
C261   C     0.64489   0.56173   0.25356   0.00000  Uiso   1.00
C262   C     0.59003   0.37270   0.14314   0.00000  Uiso   1.00
C263   C     0.40997   0.62730   0.19020   0.00000  Uiso   1.00
C264   C     0.47839   0.42263   0.03595   0.00000  Uiso   1.00
C265   C     0.52161   0.57737   0.29738   0.00000  Uiso   1.00
C266   C     0.40155   0.49865   0.15462   0.00000  Uiso   1.00
C267   C     0.59845   0.50135   0.17871   0.00000  Uiso   1.00
C268   C     0.34662   0.49260   0.14905   0.00000  Uiso   1.00
C269   C     0.65338   0.50740   0.18428   0.00000  Uiso   1.00
C270   C     0.54316   0.35268   0.15470   0.00000  Uiso   1.00
C271   C     0.45684   0.64732   0.17863   0.00000  Uiso   1.00
C272   C     0.54197   0.64312   0.15736   0.00000  Uiso   1.00
Cu273  Cu    0.50000   0.50001   0.21355   0.00000  Uiso   1.00
Cu274  Cu    0.50000   0.49999   0.11978   0.00000  Uiso   1.00
H275   H     0.57417   0.62443   0.14991   0.00000  Uiso   1.00
H276   H     0.61697   0.57807   0.22857   0.00000  Uiso   1.00
H277   H     0.62612   0.54324   0.27719   0.00000  Uiso   1.00
H278   H     0.33512   0.58553   0.27597   0.00000  Uiso   1.00
H279   H     0.36630   0.51263   0.25304   0.00000  Uiso   1.00
H280   H     0.37255   0.55496   0.21621   0.00000  Uiso   1.00
H281   H     0.60386   0.39703   0.17070   0.00000  Uiso   1.00
H282   H     0.62117   0.34991   0.14076   0.00000  Uiso   1.00
H283   H     0.58091   0.38648   0.10881   0.00000  Uiso   1.00
H284   H     0.39613   0.60299   0.16263   0.00000  Uiso   1.00
H285   H     0.41909   0.61351   0.22452   0.00000  Uiso   1.00
H286   H     0.42583   0.37557   0.18342   0.00000  Uiso   1.00
H287   H     0.37885   0.65010   0.19260   0.00000  Uiso   1.00
H288   H     0.46534   0.39960   0.00670   0.00000  Uiso   1.00
H289   H     0.51411   0.40988   0.05417   0.00000  Uiso   1.00
H290   H     0.44776   0.42409   0.05743   0.00000  Uiso   1.00
H291   H     0.48588   0.59012   0.27916   0.00000  Uiso   1.00
H292   H     0.53465   0.60041   0.32664   0.00000  Uiso   1.00
H293   H     0.55224   0.57591   0.27590   0.00000  Uiso   1.00
H294   H     0.47740   0.43778   0.28181   0.00000  Uiso   1.00
H295   H     0.52260   0.56222   0.05152   0.00000  Uiso   1.00
H296   H     0.37388   0.45676   0.05615   0.00000  Uiso   1.00
H297   H     0.38303   0.42193   0.10476   0.00000  Uiso   1.00
H298   H     0.66488   0.41447   0.05737   0.00000  Uiso   1.00
H299   H     0.62745   0.44504   0.11712   0.00000  Uiso   1.00
H300   H     0.63370   0.48737   0.08030   0.00000  Uiso   1.00
N301   N     0.50001   0.50001   0.28403   0.00000  Uiso   1.00
N302   N     0.49999   0.49999   0.04931   0.00000  Uiso   1.00
O303   O     0.50000   0.43989   0.20625   0.00000  Uiso   1.00
O304   O     0.50000   0.56011   0.12709   0.00000  Uiso   1.00
O305   O     0.50000   0.43988   0.12706   0.00000  Uiso   1.00
O306   O     0.50000   0.56012   0.20628   0.00000  Uiso   1.00
O307   O     0.42495   0.50000   0.19712   0.00000  Uiso   1.00
O308   O     0.57505   0.50000   0.13621   0.00000  Uiso   1.00
O309   O     0.42494   0.49999   0.11793   0.00000  Uiso   1.00
O310   O     0.57506   0.50001   0.21540   0.00000  Uiso   1.00
C311   C     0.83425   0.42088   0.16568   0.00000  Uiso   1.00
C312   C     0.79137   0.35688   0.17597   0.00000  Uiso   1.00
C313   C     0.83280   0.62391   0.16950   0.00000  Uiso   1.00
C314   C     0.83387   0.37610   0.16383   0.00000  Uiso   1.00
C315   C     0.82165   0.46462   0.01946   0.00000  Uiso   1.00
C316   C     0.84502   0.53538   0.31387   0.00000  Uiso   1.00
C317   C     0.82099   0.46541   0.30389   0.00000  Uiso   1.00
C318   C     0.84567   0.53459   0.02944   0.00000  Uiso   1.00
C319   C     0.98786   0.46651   0.10577   0.00000  Uiso   1.00
C320   C     0.68845   0.43827   0.07977   0.00000  Uiso   1.00
C321   C     0.67881   0.53349   0.22756   0.00000  Uiso   1.00
C322   C     0.83242   0.57912   0.16765   0.00000  Uiso   1.00
C323   C     0.97822   0.56173   0.25356   0.00000  Uiso   1.00
C324   C     0.92337   0.37270   0.14314   0.00000  Uiso   1.00
C325   C     0.74330   0.62730   0.19020   0.00000  Uiso   1.00
C326   C     0.81172   0.42263   0.03595   0.00000  Uiso   1.00
C327   C     0.85495   0.57737   0.29738   0.00000  Uiso   1.00
C328   C     0.73488   0.49865   0.15462   0.00000  Uiso   1.00
C329   C     0.93178   0.50135   0.17871   0.00000  Uiso   1.00
C330   C     0.67995   0.49260   0.14905   0.00000  Uiso   1.00
C331   C     0.98672   0.50740   0.18428   0.00000  Uiso   1.00
C332   C     0.87650   0.35268   0.15470   0.00000  Uiso   1.00
C333   C     0.79017   0.64732   0.17863   0.00000  Uiso   1.00
C334   C     0.87530   0.64312   0.15736   0.00000  Uiso   1.00
Cu335  Cu    0.83333   0.50001   0.21355   0.00000  Uiso   1.00
Cu336  Cu    0.83333   0.49999   0.11978   0.00000  Uiso   1.00
H337   H     0.90750   0.62443   0.14991   0.00000  Uiso   1.00
H338   H     0.95030   0.57807   0.22857   0.00000  Uiso   1.00
H339   H     0.95946   0.54324   0.27719   0.00000  Uiso   1.00
H340   H     0.66845   0.58553   0.27597   0.00000  Uiso   1.00
H341   H     0.69964   0.51263   0.25304   0.00000  Uiso   1.00
H342   H     0.70588   0.55496   0.21621   0.00000  Uiso   1.00
H343   H     0.93719   0.39703   0.17070   0.00000  Uiso   1.00
H344   H     0.95450   0.34991   0.14076   0.00000  Uiso   1.00
H345   H     0.91425   0.38648   0.10881   0.00000  Uiso   1.00
H346   H     0.72946   0.60299   0.16263   0.00000  Uiso   1.00
H347   H     0.75243   0.61351   0.22452   0.00000  Uiso   1.00
H348   H     0.75916   0.37557   0.18342   0.00000  Uiso   1.00
H349   H     0.71218   0.65010   0.19260   0.00000  Uiso   1.00
H350   H     0.79867   0.39960   0.00670   0.00000  Uiso   1.00
H351   H     0.84745   0.40988   0.05417   0.00000  Uiso   1.00
H352   H     0.78109   0.42409   0.05743   0.00000  Uiso   1.00
H353   H     0.81922   0.59012   0.27916   0.00000  Uiso   1.00
H354   H     0.86799   0.60041   0.32664   0.00000  Uiso   1.00
H355   H     0.88558   0.57591   0.27590   0.00000  Uiso   1.00
H356   H     0.81074   0.43778   0.28181   0.00000  Uiso   1.00
H357   H     0.85593   0.56222   0.05152   0.00000  Uiso   1.00
H358   H     0.70721   0.45676   0.05615   0.00000  Uiso   1.00
H359   H     0.71636   0.42193   0.10476   0.00000  Uiso   1.00
H360   H     0.99822   0.41447   0.05737   0.00000  Uiso   1.00
H361   H     0.96078   0.44504   0.11712   0.00000  Uiso   1.00
H362   H     0.96703   0.48737   0.08030   0.00000  Uiso   1.00
N363   N     0.83335   0.50001   0.28403   0.00000  Uiso   1.00
N364   N     0.83332   0.49999   0.04931   0.00000  Uiso   1.00
O365   O     0.83333   0.43989   0.20625   0.00000  Uiso   1.00
O366   O     0.83334   0.56011   0.12709   0.00000  Uiso   1.00
O367   O     0.83333   0.43988   0.12706   0.00000  Uiso   1.00
O368   O     0.83334   0.56012   0.20628   0.00000  Uiso   1.00
O369   O     0.75828   0.50000   0.19712   0.00000  Uiso   1.00
O370   O     0.90839   0.50000   0.13621   0.00000  Uiso   1.00
O371   O     0.75828   0.49999   0.11793   0.00000  Uiso   1.00
O372   O     0.90839   0.50001   0.21540   0.00000  Uiso   1.00
C373   C     0.16758   0.75422   0.16568   0.00000  Uiso   1.00
C374   C     0.12470   0.69022   0.17597   0.00000  Uiso   1.00
C375   C     0.16613   0.95724   0.16950   0.00000  Uiso   1.00
C376   C     0.16720   0.70943   0.16383   0.00000  Uiso   1.00
C377   C     0.15498   0.79795   0.01946   0.00000  Uiso   1.00
C378   C     0.17835   0.86872   0.31387   0.00000  Uiso   1.00
C379   C     0.15433   0.79875   0.30389   0.00000  Uiso   1.00
C380   C     0.17901   0.86792   0.02944   0.00000  Uiso   1.00
C381   C     0.32119   0.79985   0.10577   0.00000  Uiso   1.00
C382   C     0.02178   0.77161   0.07977   0.00000  Uiso   1.00
C383   C     0.01214   0.86682   0.22756   0.00000  Uiso   1.00
C384   C     0.16575   0.91245   0.16765   0.00000  Uiso   1.00
C385   C     0.31155   0.89506   0.25356   0.00000  Uiso   1.00
C386   C     0.25670   0.70604   0.14314   0.00000  Uiso   1.00
C387   C     0.07664   0.96063   0.19020   0.00000  Uiso   1.00
C388   C     0.14505   0.75597   0.03595   0.00000  Uiso   1.00
C389   C     0.18828   0.91070   0.29738   0.00000  Uiso   1.00
C390   C     0.06822   0.83199   0.15462   0.00000  Uiso   1.00
C391   C     0.26512   0.83468   0.17871   0.00000  Uiso   1.00
C392   C     0.01328   0.82594   0.14905   0.00000  Uiso   1.00
C393   C     0.32005   0.84073   0.18428   0.00000  Uiso   1.00
C394   C     0.20983   0.68601   0.15470   0.00000  Uiso   1.00
C395   C     0.12350   0.98065   0.17863   0.00000  Uiso   1.00
C396   C     0.20863   0.97645   0.15736   0.00000  Uiso   1.00
Cu397  Cu    0.16667   0.83334   0.21355   0.00000  Uiso   1.00
Cu398  Cu    0.16667   0.83333   0.11978   0.00000  Uiso   1.00
H399   H     0.24084   0.95776   0.14991   0.00000  Uiso   1.00
H400   H     0.28364   0.91140   0.22857   0.00000  Uiso   1.00
H401   H     0.29279   0.87658   0.27719   0.00000  Uiso   1.00
H402   H     0.00178   0.91886   0.27597   0.00000  Uiso   1.00
H403   H     0.03297   0.84597   0.25304   0.00000  Uiso   1.00
H404   H     0.03922   0.88829   0.21621   0.00000  Uiso   1.00
H405   H     0.27052   0.73036   0.17070   0.00000  Uiso   1.00
H406   H     0.28783   0.68324   0.14076   0.00000  Uiso   1.00
H407   H     0.24758   0.71981   0.10881   0.00000  Uiso   1.00
H408   H     0.06280   0.93632   0.16263   0.00000  Uiso   1.00
H409   H     0.08576   0.94684   0.22452   0.00000  Uiso   1.00
H410   H     0.09250   0.70891   0.18342   0.00000  Uiso   1.00
H411   H     0.04551   0.98343   0.19260   0.00000  Uiso   1.00
H412   H     0.13200   0.73293   0.00670   0.00000  Uiso   1.00
H413   H     0.18078   0.74322   0.05417   0.00000  Uiso   1.00
H414   H     0.11443   0.75743   0.05743   0.00000  Uiso   1.00
H415   H     0.15255   0.92345   0.27916   0.00000  Uiso   1.00
H416   H     0.20132   0.93374   0.32664   0.00000  Uiso   1.00
H417   H     0.21891   0.90924   0.27590   0.00000  Uiso   1.00
H418   H     0.14407   0.77111   0.28181   0.00000  Uiso   1.00
H419   H     0.18926   0.89556   0.05152   0.00000  Uiso   1.00
H420   H     0.04055   0.79009   0.05615   0.00000  Uiso   1.00
H421   H     0.04969   0.75527   0.10476   0.00000  Uiso   1.00
H422   H     0.33155   0.74781   0.05737   0.00000  Uiso   1.00
H423   H     0.29411   0.77838   0.11712   0.00000  Uiso   1.00
H424   H     0.30036   0.82070   0.08030   0.00000  Uiso   1.00
N425   N     0.16668   0.83334   0.28403   0.00000  Uiso   1.00
N426   N     0.16665   0.83332   0.04931   0.00000  Uiso   1.00
O427   O     0.16666   0.77322   0.20625   0.00000  Uiso   1.00
O428   O     0.16667   0.89345   0.12709   0.00000  Uiso   1.00
O429   O     0.16666   0.77321   0.12706   0.00000  Uiso   1.00
O430   O     0.16667   0.89346   0.20628   0.00000  Uiso   1.00
O431   O     0.09161   0.83334   0.19712   0.00000  Uiso   1.00
O432   O     0.24172   0.83333   0.13621   0.00000  Uiso   1.00
O433   O     0.09161   0.83333   0.11793   0.00000  Uiso   1.00
O434   O     0.24172   0.83334   0.21540   0.00000  Uiso   1.00
C435   C     0.50091   0.75422   0.16568   0.00000  Uiso   1.00
C436   C     0.45803   0.69022   0.17597   0.00000  Uiso   1.00
C437   C     0.49946   0.95724   0.16950   0.00000  Uiso   1.00
C438   C     0.50054   0.70943   0.16383   0.00000  Uiso   1.00
C439   C     0.48832   0.79795   0.01946   0.00000  Uiso   1.00
C440   C     0.51168   0.86872   0.31387   0.00000  Uiso   1.00
C441   C     0.48766   0.79875   0.30389   0.00000  Uiso   1.00
C442   C     0.51234   0.86792   0.02944   0.00000  Uiso   1.00
C443   C     0.65453   0.79985   0.10577   0.00000  Uiso   1.00
C444   C     0.35511   0.77161   0.07977   0.00000  Uiso   1.00
C445   C     0.34547   0.86682   0.22756   0.00000  Uiso   1.00
C446   C     0.49909   0.91245   0.16765   0.00000  Uiso   1.00
C447   C     0.64489   0.89506   0.25356   0.00000  Uiso   1.00
C448   C     0.59003   0.70604   0.14314   0.00000  Uiso   1.00
C449   C     0.40997   0.96063   0.19020   0.00000  Uiso   1.00
C450   C     0.47839   0.75597   0.03595   0.00000  Uiso   1.00
C451   C     0.52161   0.91070   0.29738   0.00000  Uiso   1.00
C452   C     0.40155   0.83199   0.15462   0.00000  Uiso   1.00
C453   C     0.59845   0.83468   0.17871   0.00000  Uiso   1.00
C454   C     0.34662   0.82594   0.14905   0.00000  Uiso   1.00
C455   C     0.65338   0.84073   0.18428   0.00000  Uiso   1.00
C456   C     0.54316   0.68601   0.15470   0.00000  Uiso   1.00
C457   C     0.45684   0.98065   0.17863   0.00000  Uiso   1.00
C458   C     0.54197   0.97645   0.15736   0.00000  Uiso   1.00
Cu459  Cu    0.50000   0.83334   0.21355   0.00000  Uiso   1.00
Cu460  Cu    0.50000   0.83333   0.11978   0.00000  Uiso   1.00
H461   H     0.57417   0.95776   0.14991   0.00000  Uiso   1.00
H462   H     0.61697   0.91140   0.22857   0.00000  Uiso   1.00
H463   H     0.62612   0.87658   0.27719   0.00000  Uiso   1.00
H464   H     0.33512   0.91886   0.27597   0.00000  Uiso   1.00
H465   H     0.36630   0.84597   0.25304   0.00000  Uiso   1.00
H466   H     0.37255   0.88829   0.21621   0.00000  Uiso   1.00
H467   H     0.60386   0.73036   0.17070   0.00000  Uiso   1.00
H468   H     0.62117   0.68324   0.14076   0.00000  Uiso   1.00
H469   H     0.58091   0.71981   0.10881   0.00000  Uiso   1.00
H470   H     0.39613   0.93632   0.16263   0.00000  Uiso   1.00
H471   H     0.41909   0.94684   0.22452   0.00000  Uiso   1.00
H472   H     0.42583   0.70891   0.18342   0.00000  Uiso   1.00
H473   H     0.37885   0.98343   0.19260   0.00000  Uiso   1.00
H474   H     0.46534   0.73293   0.00670   0.00000  Uiso   1.00
H475   H     0.51411   0.74322   0.05417   0.00000  Uiso   1.00
H476   H     0.44776   0.75743   0.05743   0.00000  Uiso   1.00
H477   H     0.48588   0.92345   0.27916   0.00000  Uiso   1.00
H478   H     0.53465   0.93374   0.32664   0.00000  Uiso   1.00
H479   H     0.55224   0.90924   0.27590   0.00000  Uiso   1.00
H480   H     0.47740   0.77111   0.28181   0.00000  Uiso   1.00
H481   H     0.52260   0.89556   0.05152   0.00000  Uiso   1.00
H482   H     0.37388   0.79009   0.05615   0.00000  Uiso   1.00
H483   H     0.38303   0.75527   0.10476   0.00000  Uiso   1.00
H484   H     0.66488   0.74781   0.05737   0.00000  Uiso   1.00
H485   H     0.62745   0.77838   0.11712   0.00000  Uiso   1.00
H486   H     0.63370   0.82070   0.08030   0.00000  Uiso   1.00
N487   N     0.50001   0.83334   0.28403   0.00000  Uiso   1.00
N488   N     0.49999   0.83332   0.04931   0.00000  Uiso   1.00
O489   O     0.50000   0.77322   0.20625   0.00000  Uiso   1.00
O490   O     0.50000   0.89345   0.12709   0.00000  Uiso   1.00
O491   O     0.50000   0.77321   0.12706   0.00000  Uiso   1.00
O492   O     0.50000   0.89346   0.20628   0.00000  Uiso   1.00
O493   O     0.42495   0.83334   0.19712   0.00000  Uiso   1.00
O494   O     0.57505   0.83333   0.13621   0.00000  Uiso   1.00
O495   O     0.42494   0.83333   0.11793   0.00000  Uiso   1.00
O496   O     0.57506   0.83334   0.21540   0.00000  Uiso   1.00
C497   C     0.83425   0.75422   0.16568   0.00000  Uiso   1.00
C498   C     0.79137   0.69022   0.17597   0.00000  Uiso   1.00
C499   C     0.83280   0.95724   0.16950   0.00000  Uiso   1.00
C500   C     0.83387   0.70943   0.16383   0.00000  Uiso   1.00
C501   C     0.82165   0.79795   0.01946   0.00000  Uiso   1.00
C502   C     0.84502   0.86872   0.31387   0.00000  Uiso   1.00
C503   C     0.82099   0.79875   0.30389   0.00000  Uiso   1.00
C504   C     0.84567   0.86792   0.02944   0.00000  Uiso   1.00
C505   C     0.98786   0.79985   0.10577   0.00000  Uiso   1.00
C506   C     0.68845   0.77161   0.07977   0.00000  Uiso   1.00
C507   C     0.67881   0.86682   0.22756   0.00000  Uiso   1.00
C508   C     0.83242   0.91245   0.16765   0.00000  Uiso   1.00
C509   C     0.97822   0.89506   0.25356   0.00000  Uiso   1.00
C510   C     0.92337   0.70604   0.14314   0.00000  Uiso   1.00
C511   C     0.74330   0.96063   0.19020   0.00000  Uiso   1.00
C512   C     0.81172   0.75597   0.03595   0.00000  Uiso   1.00
C513   C     0.85495   0.91070   0.29738   0.00000  Uiso   1.00
C514   C     0.73488   0.83199   0.15462   0.00000  Uiso   1.00
C515   C     0.93178   0.83468   0.17871   0.00000  Uiso   1.00
C516   C     0.67995   0.82594   0.14905   0.00000  Uiso   1.00
C517   C     0.98672   0.84073   0.18428   0.00000  Uiso   1.00
C518   C     0.87650   0.68601   0.15470   0.00000  Uiso   1.00
C519   C     0.79017   0.98065   0.17863   0.00000  Uiso   1.00
C520   C     0.87530   0.97645   0.15736   0.00000  Uiso   1.00
Cu521  Cu    0.83333   0.83334   0.21355   0.00000  Uiso   1.00
Cu522  Cu    0.83333   0.83333   0.11978   0.00000  Uiso   1.00
H523   H     0.90750   0.95776   0.14991   0.00000  Uiso   1.00
H524   H     0.95030   0.91140   0.22857   0.00000  Uiso   1.00
H525   H     0.95946   0.87658   0.27719   0.00000  Uiso   1.00
H526   H     0.66845   0.91886   0.27597   0.00000  Uiso   1.00
H527   H     0.69964   0.84597   0.25304   0.00000  Uiso   1.00
H528   H     0.70588   0.88829   0.21621   0.00000  Uiso   1.00
H529   H     0.93719   0.73036   0.17070   0.00000  Uiso   1.00
H530   H     0.95450   0.68324   0.14076   0.00000  Uiso   1.00
H531   H     0.91425   0.71981   0.10881   0.00000  Uiso   1.00
H532   H     0.72946   0.93632   0.16263   0.00000  Uiso   1.00
H533   H     0.75243   0.94684   0.22452   0.00000  Uiso   1.00
H534   H     0.75916   0.70891   0.18342   0.00000  Uiso   1.00
H535   H     0.71218   0.98343   0.19260   0.00000  Uiso   1.00
H536   H     0.79867   0.73293   0.00670   0.00000  Uiso   1.00
H537   H     0.84745   0.74322   0.05417   0.00000  Uiso   1.00
H538   H     0.78109   0.75743   0.05743   0.00000  Uiso   1.00
H539   H     0.81922   0.92345   0.27916   0.00000  Uiso   1.00
H540   H     0.86799   0.93374   0.32664   0.00000  Uiso   1.00
H541   H     0.88558   0.90924   0.27590   0.00000  Uiso   1.00
H542   H     0.81074   0.77111   0.28181   0.00000  Uiso   1.00
H543   H     0.85593   0.89556   0.05152   0.00000  Uiso   1.00
H544   H     0.70721   0.79009   0.05615   0.00000  Uiso   1.00
H545   H     0.71636   0.75527   0.10476   0.00000  Uiso   1.00
H546   H     0.99822   0.74781   0.05737   0.00000  Uiso   1.00
H547   H     0.96078   0.77838   0.11712   0.00000  Uiso   1.00
H548   H     0.96703   0.82070   0.08030   0.00000  Uiso   1.00
N549   N     0.83335   0.83334   0.28403   0.00000  Uiso   1.00
N550   N     0.83332   0.83332   0.04931   0.00000  Uiso   1.00
O551   O     0.83333   0.77322   0.20625   0.00000  Uiso   1.00
O552   O     0.83334   0.89345   0.12709   0.00000  Uiso   1.00
O553   O     0.83333   0.77321   0.12706   0.00000  Uiso   1.00
O554   O     0.83334   0.89346   0.20628   0.00000  Uiso   1.00
O555   O     0.75828   0.83334   0.19712   0.00000  Uiso   1.00
O556   O     0.90839   0.83333   0.13621   0.00000  Uiso   1.00
O557   O     0.75828   0.83333   0.11793   0.00000  Uiso   1.00
O558   O     0.90839   0.83334   0.21540   0.00000  Uiso   1.00
C559   C     0.16758   0.08755   0.49902   0.00000  Uiso   1.00
C560   C     0.12470   0.02355   0.50930   0.00000  Uiso   1.00
C561   C     0.16613   0.29057   0.50284   0.00000  Uiso   1.00
C562   C     0.16720   0.04276   0.49717   0.00000  Uiso   1.00
C563   C     0.15498   0.13128   0.35279   0.00000  Uiso   1.00
C564   C     0.17835   0.20205   0.64721   0.00000  Uiso   1.00
C565   C     0.15433   0.13208   0.63722   0.00000  Uiso   1.00
C566   C     0.17901   0.20125   0.36278   0.00000  Uiso   1.00
C567   C     0.32119   0.13318   0.43910   0.00000  Uiso   1.00
C568   C     0.02178   0.10494   0.41311   0.00000  Uiso   1.00
C569   C     0.01214   0.20015   0.56090   0.00000  Uiso   1.00
C570   C     0.16575   0.24578   0.50098   0.00000  Uiso   1.00
C571   C     0.31155   0.22839   0.58689   0.00000  Uiso   1.00
C572   C     0.25670   0.03937   0.47648   0.00000  Uiso   1.00
C573   C     0.07664   0.29397   0.52353   0.00000  Uiso   1.00
C574   C     0.14505   0.08930   0.36929   0.00000  Uiso   1.00
C575   C     0.18828   0.24404   0.63072   0.00000  Uiso   1.00
C576   C     0.06822   0.16532   0.48796   0.00000  Uiso   1.00
C577   C     0.26512   0.16801   0.51204   0.00000  Uiso   1.00
C578   C     0.01328   0.15927   0.48238   0.00000  Uiso   1.00
C579   C     0.32005   0.17406   0.51762   0.00000  Uiso   1.00
C580   C     0.20983   0.01935   0.48804   0.00000  Uiso   1.00
C581   C     0.12350   0.31399   0.51196   0.00000  Uiso   1.00
C582   C     0.20863   0.30979   0.49070   0.00000  Uiso   1.00
Cu583  Cu    0.16667   0.16667   0.54689   0.00000  Uiso   1.00
Cu584  Cu    0.16667   0.16666   0.45311   0.00000  Uiso   1.00
H585   H     0.24084   0.29109   0.48325   0.00000  Uiso   1.00
H586   H     0.28364   0.24473   0.56191   0.00000  Uiso   1.00
H587   H     0.29279   0.20991   0.61052   0.00000  Uiso   1.00
H588   H     0.00178   0.25219   0.60930   0.00000  Uiso   1.00
H589   H     0.03297   0.17930   0.58637   0.00000  Uiso   1.00
H590   H     0.03922   0.22162   0.54955   0.00000  Uiso   1.00
H591   H     0.27052   0.06369   0.50403   0.00000  Uiso   1.00
H592   H     0.28783   0.01657   0.47409   0.00000  Uiso   1.00
H593   H     0.24758   0.05314   0.44214   0.00000  Uiso   1.00
H594   H     0.06280   0.26965   0.49597   0.00000  Uiso   1.00
H595   H     0.08576   0.28018   0.55785   0.00000  Uiso   1.00
H596   H     0.09250   0.04224   0.51675   0.00000  Uiso   1.00
H597   H     0.04551   0.31676   0.52594   0.00000  Uiso   1.00
H598   H     0.13200   0.06627   0.34003   0.00000  Uiso   1.00
H599   H     0.18078   0.07655   0.38750   0.00000  Uiso   1.00
H600   H     0.11443   0.09076   0.39077   0.00000  Uiso   1.00
H601   H     0.15255   0.25678   0.61250   0.00000  Uiso   1.00
H602   H     0.20132   0.26707   0.65997   0.00000  Uiso   1.00
H603   H     0.21891   0.24258   0.60924   0.00000  Uiso   1.00
H604   H     0.14407   0.10444   0.61515   0.00000  Uiso   1.00
H605   H     0.18926   0.22889   0.38485   0.00000  Uiso   1.00
H606   H     0.04055   0.12342   0.38948   0.00000  Uiso   1.00
H607   H     0.04969   0.08860   0.43809   0.00000  Uiso   1.00
H608   H     0.33155   0.08114   0.39070   0.00000  Uiso   1.00
H609   H     0.29411   0.11171   0.45045   0.00000  Uiso   1.00
H610   H     0.30036   0.15403   0.41363   0.00000  Uiso   1.00
N611   N     0.16668   0.16668   0.61736   0.00000  Uiso   1.00
N612   N     0.16665   0.16666   0.38264   0.00000  Uiso   1.00
O613   O     0.16666   0.10655   0.53958   0.00000  Uiso   1.00
O614   O     0.16667   0.22678   0.46042   0.00000  Uiso   1.00
O615   O     0.16666   0.10654   0.46039   0.00000  Uiso   1.00
O616   O     0.16667   0.22679   0.53961   0.00000  Uiso   1.00
O617   O     0.09161   0.16667   0.53046   0.00000  Uiso   1.00
O618   O     0.24172   0.16666   0.46954   0.00000  Uiso   1.00
O619   O     0.09161   0.16666   0.45127   0.00000  Uiso   1.00
O620   O     0.24172   0.16667   0.54873   0.00000  Uiso   1.00
C621   C     0.50091   0.08755   0.49902   0.00000  Uiso   1.00
C622   C     0.45803   0.02355   0.50930   0.00000  Uiso   1.00
C623   C     0.49946   0.29057   0.50284   0.00000  Uiso   1.00
C624   C     0.50054   0.04276   0.49717   0.00000  Uiso   1.00
C625   C     0.48832   0.13128   0.35279   0.00000  Uiso   1.00
C626   C     0.51168   0.20205   0.64721   0.00000  Uiso   1.00
C627   C     0.48766   0.13208   0.63722   0.00000  Uiso   1.00
C628   C     0.51234   0.20125   0.36278   0.00000  Uiso   1.00
C629   C     0.65453   0.13318   0.43910   0.00000  Uiso   1.00
C630   C     0.35511   0.10494   0.41311   0.00000  Uiso   1.00
C631   C     0.34547   0.20015   0.56090   0.00000  Uiso   1.00
C632   C     0.49909   0.24578   0.50098   0.00000  Uiso   1.00
C633   C     0.64489   0.22839   0.58689   0.00000  Uiso   1.00
C634   C     0.59003   0.03937   0.47648   0.00000  Uiso   1.00
C635   C     0.40997   0.29397   0.52353   0.00000  Uiso   1.00
C636   C     0.47839   0.08930   0.36929   0.00000  Uiso   1.00
C637   C     0.52161   0.24404   0.63072   0.00000  Uiso   1.00
C638   C     0.40155   0.16532   0.48796   0.00000  Uiso   1.00
C639   C     0.59845   0.16801   0.51204   0.00000  Uiso   1.00
C640   C     0.34662   0.15927   0.48238   0.00000  Uiso   1.00
C641   C     0.65338   0.17406   0.51762   0.00000  Uiso   1.00
C642   C     0.54316   0.01935   0.48804   0.00000  Uiso   1.00
C643   C     0.45684   0.31399   0.51196   0.00000  Uiso   1.00
C644   C     0.54197   0.30979   0.49070   0.00000  Uiso   1.00
Cu645  Cu    0.50000   0.16667   0.54689   0.00000  Uiso   1.00
Cu646  Cu    0.50000   0.16666   0.45311   0.00000  Uiso   1.00
H647   H     0.57417   0.29109   0.48325   0.00000  Uiso   1.00
H648   H     0.61697   0.24473   0.56191   0.00000  Uiso   1.00
H649   H     0.62612   0.20991   0.61052   0.00000  Uiso   1.00
H650   H     0.33512   0.25219   0.60930   0.00000  Uiso   1.00
H651   H     0.36630   0.17930   0.58637   0.00000  Uiso   1.00
H652   H     0.37255   0.22162   0.54955   0.00000  Uiso   1.00
H653   H     0.60386   0.06369   0.50403   0.00000  Uiso   1.00
H654   H     0.62117   0.01657   0.47409   0.00000  Uiso   1.00
H655   H     0.58091   0.05314   0.44214   0.00000  Uiso   1.00
H656   H     0.39613   0.26965   0.49597   0.00000  Uiso   1.00
H657   H     0.41909   0.28018   0.55785   0.00000  Uiso   1.00
H658   H     0.42583   0.04224   0.51675   0.00000  Uiso   1.00
H659   H     0.37885   0.31676   0.52594   0.00000  Uiso   1.00
H660   H     0.46534   0.06627   0.34003   0.00000  Uiso   1.00
H661   H     0.51411   0.07655   0.38750   0.00000  Uiso   1.00
H662   H     0.44776   0.09076   0.39077   0.00000  Uiso   1.00
H663   H     0.48588   0.25678   0.61250   0.00000  Uiso   1.00
H664   H     0.53465   0.26707   0.65997   0.00000  Uiso   1.00
H665   H     0.55224   0.24258   0.60924   0.00000  Uiso   1.00
H666   H     0.47740   0.10444   0.61515   0.00000  Uiso   1.00
H667   H     0.52260   0.22889   0.38485   0.00000  Uiso   1.00
H668   H     0.37388   0.12342   0.38948   0.00000  Uiso   1.00
H669   H     0.38303   0.08860   0.43809   0.00000  Uiso   1.00
H670   H     0.66488   0.08114   0.39070   0.00000  Uiso   1.00
H671   H     0.62745   0.11171   0.45045   0.00000  Uiso   1.00
H672   H     0.63370   0.15403   0.41363   0.00000  Uiso   1.00
N673   N     0.50001   0.16668   0.61736   0.00000  Uiso   1.00
N674   N     0.49999   0.16666   0.38264   0.00000  Uiso   1.00
O675   O     0.50000   0.10655   0.53958   0.00000  Uiso   1.00
O676   O     0.50000   0.22678   0.46042   0.00000  Uiso   1.00
O677   O     0.50000   0.10654   0.46039   0.00000  Uiso   1.00
O678   O     0.50000   0.22679   0.53961   0.00000  Uiso   1.00
O679   O     0.42495   0.16667   0.53046   0.00000  Uiso   1.00
O680   O     0.57505   0.16666   0.46954   0.00000  Uiso   1.00
O681   O     0.42494   0.16666   0.45127   0.00000  Uiso   1.00
O682   O     0.57506   0.16667   0.54873   0.00000  Uiso   1.00
C683   C     0.83425   0.08755   0.49902   0.00000  Uiso   1.00
C684   C     0.79137   0.02355   0.50930   0.00000  Uiso   1.00
C685   C     0.83280   0.29057   0.50284   0.00000  Uiso   1.00
C686   C     0.83387   0.04276   0.49717   0.00000  Uiso   1.00
C687   C     0.82165   0.13128   0.35279   0.00000  Uiso   1.00
C688   C     0.84502   0.20205   0.64721   0.00000  Uiso   1.00
C689   C     0.82099   0.13208   0.63722   0.00000  Uiso   1.00
C690   C     0.84567   0.20125   0.36278   0.00000  Uiso   1.00
C691   C     0.98786   0.13318   0.43910   0.00000  Uiso   1.00
C692   C     0.68845   0.10494   0.41311   0.00000  Uiso   1.00
C693   C     0.67881   0.20015   0.56090   0.00000  Uiso   1.00
C694   C     0.83242   0.24578   0.50098   0.00000  Uiso   1.00
C695   C     0.97822   0.22839   0.58689   0.00000  Uiso   1.00
C696   C     0.92337   0.03937   0.47648   0.00000  Uiso   1.00
C697   C     0.74330   0.29397   0.52353   0.00000  Uiso   1.00
C698   C     0.81172   0.08930   0.36929   0.00000  Uiso   1.00
C699   C     0.85495   0.24404   0.63072   0.00000  Uiso   1.00
C700   C     0.73488   0.16532   0.48796   0.00000  Uiso   1.00
C701   C     0.93178   0.16801   0.51204   0.00000  Uiso   1.00
C702   C     0.67995   0.15927   0.48238   0.00000  Uiso   1.00
C703   C     0.98672   0.17406   0.51762   0.00000  Uiso   1.00
C704   C     0.87650   0.01935   0.48804   0.00000  Uiso   1.00
C705   C     0.79017   0.31399   0.51196   0.00000  Uiso   1.00
C706   C     0.87530   0.30979   0.49070   0.00000  Uiso   1.00
Cu707  Cu    0.83333   0.16667   0.54689   0.00000  Uiso   1.00
Cu708  Cu    0.83333   0.16666   0.45311   0.00000  Uiso   1.00
H709   H     0.90750   0.29109   0.48325   0.00000  Uiso   1.00
H710   H     0.95030   0.24473   0.56191   0.00000  Uiso   1.00
H711   H     0.95946   0.20991   0.61052   0.00000  Uiso   1.00
H712   H     0.66845   0.25219   0.60930   0.00000  Uiso   1.00
H713   H     0.69964   0.17930   0.58637   0.00000  Uiso   1.00
H714   H     0.70588   0.22162   0.54955   0.00000  Uiso   1.00
H715   H     0.93719   0.06369   0.50403   0.00000  Uiso   1.00
H716   H     0.95450   0.01657   0.47409   0.00000  Uiso   1.00
H717   H     0.91425   0.05314   0.44214   0.00000  Uiso   1.00
H718   H     0.72946   0.26965   0.49597   0.00000  Uiso   1.00
H719   H     0.75243   0.28018   0.55785   0.00000  Uiso   1.00
H720   H     0.75916   0.04224   0.51675   0.00000  Uiso   1.00
H721   H     0.71218   0.31676   0.52594   0.00000  Uiso   1.00
H722   H     0.79867   0.06627   0.34003   0.00000  Uiso   1.00
H723   H     0.84745   0.07655   0.38750   0.00000  Uiso   1.00
H724   H     0.78109   0.09076   0.39077   0.00000  Uiso   1.00
H725   H     0.81922   0.25678   0.61250   0.00000  Uiso   1.00
H726   H     0.86799   0.26707   0.65997   0.00000  Uiso   1.00
H727   H     0.88558   0.24258   0.60924   0.00000  Uiso   1.00
H728   H     0.81074   0.10444   0.61515   0.00000  Uiso   1.00
H729   H     0.85593   0.22889   0.38485   0.00000  Uiso   1.00
H730   H     0.70721   0.12342   0.38948   0.00000  Uiso   1.00
H731   H     0.71636   0.08860   0.43809   0.00000  Uiso   1.00
H732   H     0.99822   0.08114   0.39070   0.00000  Uiso   1.00
H733   H     0.96078   0.11171   0.45045   0.00000  Uiso   1.00
H734   H     0.96703   0.15403   0.41363   0.00000  Uiso   1.00
N735   N     0.83335   0.16668   0.61736   0.00000  Uiso   1.00
N736   N     0.83332   0.16666   0.38264   0.00000  Uiso   1.00
O737   O     0.83333   0.10655   0.53958   0.00000  Uiso   1.00
O738   O     0.83334   0.22678   0.46042   0.00000  Uiso   1.00
O739   O     0.83333   0.10654   0.46039   0.00000  Uiso   1.00
O740   O     0.83334   0.22679   0.53961   0.00000  Uiso   1.00
O741   O     0.75828   0.16667   0.53046   0.00000  Uiso   1.00
O742   O     0.90839   0.16666   0.46954   0.00000  Uiso   1.00
O743   O     0.75828   0.16666   0.45127   0.00000  Uiso   1.00
O744   O     0.90839   0.16667   0.54873   0.00000  Uiso   1.00
C745   C     0.16758   0.42088   0.49902   0.00000  Uiso   1.00
C746   C     0.12470   0.35688   0.50930   0.00000  Uiso   1.00
C747   C     0.16613   0.62391   0.50284   0.00000  Uiso   1.00
C748   C     0.16720   0.37610   0.49717   0.00000  Uiso   1.00
C749   C     0.15498   0.46462   0.35279   0.00000  Uiso   1.00
C750   C     0.17835   0.53538   0.64721   0.00000  Uiso   1.00
C751   C     0.15433   0.46541   0.63722   0.00000  Uiso   1.00
C752   C     0.17901   0.53459   0.36278   0.00000  Uiso   1.00
C753   C     0.32119   0.46651   0.43910   0.00000  Uiso   1.00
C754   C     0.02178   0.43827   0.41311   0.00000  Uiso   1.00
C755   C     0.01214   0.53349   0.56090   0.00000  Uiso   1.00
C756   C     0.16575   0.57912   0.50098   0.00000  Uiso   1.00
C757   C     0.31155   0.56173   0.58689   0.00000  Uiso   1.00
C758   C     0.25670   0.37270   0.47648   0.00000  Uiso   1.00
C759   C     0.07664   0.62730   0.52353   0.00000  Uiso   1.00
C760   C     0.14505   0.42263   0.36929   0.00000  Uiso   1.00
C761   C     0.18828   0.57737   0.63072   0.00000  Uiso   1.00
C762   C     0.06822   0.49865   0.48796   0.00000  Uiso   1.00
C763   C     0.26512   0.50135   0.51204   0.00000  Uiso   1.00
C764   C     0.01328   0.49260   0.48238   0.00000  Uiso   1.00
C765   C     0.32005   0.50740   0.51762   0.00000  Uiso   1.00
C766   C     0.20983   0.35268   0.48804   0.00000  Uiso   1.00
C767   C     0.12350   0.64732   0.51196   0.00000  Uiso   1.00
C768   C     0.20863   0.64312   0.49070   0.00000  Uiso   1.00
Cu769  Cu    0.16667   0.50001   0.54689   0.00000  Uiso   1.00
Cu770  Cu    0.16667   0.49999   0.45311   0.00000  Uiso   1.00
H771   H     0.24084   0.62443   0.48325   0.00000  Uiso   1.00
H772   H     0.28364   0.57807   0.56191   0.00000  Uiso   1.00
H773   H     0.29279   0.54324   0.61052   0.00000  Uiso   1.00
H774   H     0.00178   0.58553   0.60930   0.00000  Uiso   1.00
H775   H     0.03297   0.51263   0.58637   0.00000  Uiso   1.00
H776   H     0.03922   0.55496   0.54955   0.00000  Uiso   1.00
H777   H     0.27052   0.39703   0.50403   0.00000  Uiso   1.00
H778   H     0.28783   0.34991   0.47409   0.00000  Uiso   1.00
H779   H     0.24758   0.38648   0.44214   0.00000  Uiso   1.00
H780   H     0.06280   0.60299   0.49597   0.00000  Uiso   1.00
H781   H     0.08576   0.61351   0.55785   0.00000  Uiso   1.00
H782   H     0.09250   0.37557   0.51675   0.00000  Uiso   1.00
H783   H     0.04551   0.65010   0.52594   0.00000  Uiso   1.00
H784   H     0.13200   0.39960   0.34003   0.00000  Uiso   1.00
H785   H     0.18078   0.40988   0.38750   0.00000  Uiso   1.00
H786   H     0.11443   0.42409   0.39077   0.00000  Uiso   1.00
H787   H     0.15255   0.59012   0.61250   0.00000  Uiso   1.00
H788   H     0.20132   0.60041   0.65997   0.00000  Uiso   1.00
H789   H     0.21891   0.57591   0.60924   0.00000  Uiso   1.00
H790   H     0.14407   0.43778   0.61515   0.00000  Uiso   1.00
H791   H     0.18926   0.56222   0.38485   0.00000  Uiso   1.00
H792   H     0.04055   0.45676   0.38948   0.00000  Uiso   1.00
H793   H     0.04969   0.42193   0.43809   0.00000  Uiso   1.00
H794   H     0.33155   0.41447   0.39070   0.00000  Uiso   1.00
H795   H     0.29411   0.44504   0.45045   0.00000  Uiso   1.00
H796   H     0.30036   0.48737   0.41363   0.00000  Uiso   1.00
N797   N     0.16668   0.50001   0.61736   0.00000  Uiso   1.00
N798   N     0.16665   0.49999   0.38264   0.00000  Uiso   1.00
O799   O     0.16666   0.43989   0.53958   0.00000  Uiso   1.00
O800   O     0.16667   0.56011   0.46042   0.00000  Uiso   1.00
O801   O     0.16666   0.43988   0.46039   0.00000  Uiso   1.00
O802   O     0.16667   0.56012   0.53961   0.00000  Uiso   1.00
O803   O     0.09161   0.50000   0.53046   0.00000  Uiso   1.00
O804   O     0.24172   0.50000   0.46954   0.00000  Uiso   1.00
O805   O     0.09161   0.49999   0.45127   0.00000  Uiso   1.00
O806   O     0.24172   0.50001   0.54873   0.00000  Uiso   1.00
C807   C     0.50091   0.42088   0.49902   0.00000  Uiso   1.00
C808   C     0.45803   0.35688   0.50930   0.00000  Uiso   1.00
C809   C     0.49946   0.62391   0.50284   0.00000  Uiso   1.00
C810   C     0.50054   0.37610   0.49717   0.00000  Uiso   1.00
C811   C     0.48832   0.46462   0.35279   0.00000  Uiso   1.00
C812   C     0.51168   0.53538   0.64721   0.00000  Uiso   1.00
C813   C     0.48766   0.46541   0.63722   0.00000  Uiso   1.00
C814   C     0.51234   0.53459   0.36278   0.00000  Uiso   1.00
C815   C     0.65453   0.46651   0.43910   0.00000  Uiso   1.00
C816   C     0.35511   0.43827   0.41311   0.00000  Uiso   1.00
C817   C     0.34547   0.53349   0.56090   0.00000  Uiso   1.00
C818   C     0.49909   0.57912   0.50098   0.00000  Uiso   1.00
C819   C     0.64489   0.56173   0.58689   0.00000  Uiso   1.00
C820   C     0.59003   0.37270   0.47648   0.00000  Uiso   1.00
C821   C     0.40997   0.62730   0.52353   0.00000  Uiso   1.00
C822   C     0.47839   0.42263   0.36929   0.00000  Uiso   1.00
C823   C     0.52161   0.57737   0.63072   0.00000  Uiso   1.00
C824   C     0.40155   0.49865   0.48796   0.00000  Uiso   1.00
C825   C     0.59845   0.50135   0.51204   0.00000  Uiso   1.00
C826   C     0.34662   0.49260   0.48238   0.00000  Uiso   1.00
C827   C     0.65338   0.50740   0.51762   0.00000  Uiso   1.00
C828   C     0.54316   0.35268   0.48804   0.00000  Uiso   1.00
C829   C     0.45684   0.64732   0.51196   0.00000  Uiso   1.00
C830   C     0.54197   0.64312   0.49070   0.00000  Uiso   1.00
Cu831  Cu    0.50000   0.50001   0.54689   0.00000  Uiso   1.00
Cu832  Cu    0.50000   0.49999   0.45311   0.00000  Uiso   1.00
H833   H     0.57417   0.62443   0.48325   0.00000  Uiso   1.00
H834   H     0.61697   0.57807   0.56191   0.00000  Uiso   1.00
H835   H     0.62612   0.54324   0.61052   0.00000  Uiso   1.00
H836   H     0.33512   0.58553   0.60930   0.00000  Uiso   1.00
H837   H     0.36630   0.51263   0.58637   0.00000  Uiso   1.00
H838   H     0.37255   0.55496   0.54955   0.00000  Uiso   1.00
H839   H     0.60386   0.39703   0.50403   0.00000  Uiso   1.00
H840   H     0.62117   0.34991   0.47409   0.00000  Uiso   1.00
H841   H     0.58091   0.38648   0.44214   0.00000  Uiso   1.00
H842   H     0.39613   0.60299   0.49597   0.00000  Uiso   1.00
H843   H     0.41909   0.61351   0.55785   0.00000  Uiso   1.00
H844   H     0.42583   0.37557   0.51675   0.00000  Uiso   1.00
H845   H     0.37885   0.65010   0.52594   0.00000  Uiso   1.00
H846   H     0.46534   0.39960   0.34003   0.00000  Uiso   1.00
H847   H     0.51411   0.40988   0.38750   0.00000  Uiso   1.00
H848   H     0.44776   0.42409   0.39077   0.00000  Uiso   1.00
H849   H     0.48588   0.59012   0.61250   0.00000  Uiso   1.00
H850   H     0.53465   0.60041   0.65997   0.00000  Uiso   1.00
H851   H     0.55224   0.57591   0.60924   0.00000  Uiso   1.00
H852   H     0.47740   0.43778   0.61515   0.00000  Uiso   1.00
H853   H     0.52260   0.56222   0.38485   0.00000  Uiso   1.00
H854   H     0.37388   0.45676   0.38948   0.00000  Uiso   1.00
H855   H     0.38303   0.42193   0.43809   0.00000  Uiso   1.00
H856   H     0.66488   0.41447   0.39070   0.00000  Uiso   1.00
H857   H     0.62745   0.44504   0.45045   0.00000  Uiso   1.00
H858   H     0.63370   0.48737   0.41363   0.00000  Uiso   1.00
N859   N     0.50001   0.50001   0.61736   0.00000  Uiso   1.00
N860   N     0.49999   0.49999   0.38264   0.00000  Uiso   1.00
O861   O     0.50000   0.43989   0.53958   0.00000  Uiso   1.00
O862   O     0.50000   0.56011   0.46042   0.00000  Uiso   1.00
O863   O     0.50000   0.43988   0.46039   0.00000  Uiso   1.00
O864   O     0.50000   0.56012   0.53961   0.00000  Uiso   1.00
O865   O     0.42495   0.50000   0.53046   0.00000  Uiso   1.00
O866   O     0.57505   0.50000   0.46954   0.00000  Uiso   1.00
O867   O     0.42494   0.49999   0.45127   0.00000  Uiso   1.00
O868   O     0.57506   0.50001   0.54873   0.00000  Uiso   1.00
C869   C     0.83425   0.42088   0.49902   0.00000  Uiso   1.00
C870   C     0.79137   0.35688   0.50930   0.00000  Uiso   1.00
C871   C     0.83280   0.62391   0.50284   0.00000  Uiso   1.00
C872   C     0.83387   0.37610   0.49717   0.00000  Uiso   1.00
C873   C     0.82165   0.46462   0.35279   0.00000  Uiso   1.00
C874   C     0.84502   0.53538   0.64721   0.00000  Uiso   1.00
C875   C     0.82099   0.46541   0.63722   0.00000  Uiso   1.00
C876   C     0.84567   0.53459   0.36278   0.00000  Uiso   1.00
C877   C     0.98786   0.46651   0.43910   0.00000  Uiso   1.00
C878   C     0.68845   0.43827   0.41311   0.00000  Uiso   1.00
C879   C     0.67881   0.53349   0.56090   0.00000  Uiso   1.00
C880   C     0.83242   0.57912   0.50098   0.00000  Uiso   1.00
C881   C     0.97822   0.56173   0.58689   0.00000  Uiso   1.00
C882   C     0.92337   0.37270   0.47648   0.00000  Uiso   1.00
C883   C     0.74330   0.62730   0.52353   0.00000  Uiso   1.00
C884   C     0.81172   0.42263   0.36929   0.00000  Uiso   1.00
C885   C     0.85495   0.57737   0.63072   0.00000  Uiso   1.00
C886   C     0.73488   0.49865   0.48796   0.00000  Uiso   1.00
C887   C     0.93178   0.50135   0.51204   0.00000  Uiso   1.00
C888   C     0.67995   0.49260   0.48238   0.00000  Uiso   1.00
C889   C     0.98672   0.50740   0.51762   0.00000  Uiso   1.00
C890   C     0.87650   0.35268   0.48804   0.00000  Uiso   1.00
C891   C     0.79017   0.64732   0.51196   0.00000  Uiso   1.00
C892   C     0.87530   0.64312   0.49070   0.00000  Uiso   1.00
Cu893  Cu    0.83333   0.50001   0.54689   0.00000  Uiso   1.00
Cu894  Cu    0.83333   0.49999   0.45311   0.00000  Uiso   1.00
H895   H     0.90750   0.62443   0.48325   0.00000  Uiso   1.00
H896   H     0.95030   0.57807   0.56191   0.00000  Uiso   1.00
H897   H     0.95946   0.54324   0.61052   0.00000  Uiso   1.00
H898   H     0.66845   0.58553   0.60930   0.00000  Uiso   1.00
H899   H     0.69964   0.51263   0.58637   0.00000  Uiso   1.00
H900   H     0.70588   0.55496   0.54955   0.00000  Uiso   1.00
H901   H     0.93719   0.39703   0.50403   0.00000  Uiso   1.00
H902   H     0.95450   0.34991   0.47409   0.00000  Uiso   1.00
H903   H     0.91425   0.38648   0.44214   0.00000  Uiso   1.00
H904   H     0.72946   0.60299   0.49597   0.00000  Uiso   1.00
H905   H     0.75243   0.61351   0.55785   0.00000  Uiso   1.00
H906   H     0.75916   0.37557   0.51675   0.00000  Uiso   1.00
H907   H     0.71218   0.65010   0.52594   0.00000  Uiso   1.00
H908   H     0.79867   0.39960   0.34003   0.00000  Uiso   1.00
H909   H     0.84745   0.40988   0.38750   0.00000  Uiso   1.00
H910   H     0.78109   0.42409   0.39077   0.00000  Uiso   1.00
H911   H     0.81922   0.59012   0.61250   0.00000  Uiso   1.00
H912   H     0.86799   0.60041   0.65997   0.00000  Uiso   1.00
H913   H     0.88558   0.57591   0.60924   0.00000  Uiso   1.00
H914   H     0.81074   0.43778   0.61515   0.00000  Uiso   1.00
H915   H     0.85593   0.56222   0.38485   0.00000  Uiso   1.00
H916   H     0.70721   0.45676   0.38948   0.00000  Uiso   1.00
H917   H     0.71636   0.42193   0.43809   0.00000  Uiso   1.00
H918   H     0.99822   0.41447   0.39070   0.00000  Uiso   1.00
H919   H     0.96078   0.44504   0.45045   0.00000  Uiso   1.00
H920   H     0.96703   0.48737   0.41363   0.00000  Uiso   1.00
N921   N     0.83335   0.50001   0.61736   0.00000  Uiso   1.00
N922   N     0.83332   0.49999   0.38264   0.00000  Uiso   1.00
O923   O     0.83333   0.43989   0.53958   0.00000  Uiso   1.00
O924   O     0.83334   0.56011   0.46042   0.00000  Uiso   1.00
O925   O     0.83333   0.43988   0.46039   0.00000  Uiso   1.00
O926   O     0.83334   0.56012   0.53961   0.00000  Uiso   1.00
O927   O     0.75828   0.50000   0.53046   0.00000  Uiso   1.00
O928   O     0.90839   0.50000   0.46954   0.00000  Uiso   1.00
O929   O     0.75828   0.49999   0.45127   0.00000  Uiso   1.00
O930   O     0.90839   0.50001   0.54873   0.00000  Uiso   1.00
C931   C     0.16758   0.75422   0.49902   0.00000  Uiso   1.00
C932   C     0.12470   0.69022   0.50930   0.00000  Uiso   1.00
C933   C     0.16613   0.95724   0.50284   0.00000  Uiso   1.00
C934   C     0.16720   0.70943   0.49717   0.00000  Uiso   1.00
C935   C     0.15498   0.79795   0.35279   0.00000  Uiso   1.00
C936   C     0.17835   0.86872   0.64721   0.00000  Uiso   1.00
C937   C     0.15433   0.79875   0.63722   0.00000  Uiso   1.00
C938   C     0.17901   0.86792   0.36278   0.00000  Uiso   1.00
C939   C     0.32119   0.79985   0.43910   0.00000  Uiso   1.00
C940   C     0.02178   0.77161   0.41311   0.00000  Uiso   1.00
C941   C     0.01214   0.86682   0.56090   0.00000  Uiso   1.00
C942   C     0.16575   0.91245   0.50098   0.00000  Uiso   1.00
C943   C     0.31155   0.89506   0.58689   0.00000  Uiso   1.00
C944   C     0.25670   0.70604   0.47648   0.00000  Uiso   1.00
C945   C     0.07664   0.96063   0.52353   0.00000  Uiso   1.00
C946   C     0.14505   0.75597   0.36929   0.00000  Uiso   1.00
C947   C     0.18828   0.91070   0.63072   0.00000  Uiso   1.00
C948   C     0.06822   0.83199   0.48796   0.00000  Uiso   1.00
C949   C     0.26512   0.83468   0.51204   0.00000  Uiso   1.00
C950   C     0.01328   0.82594   0.48238   0.00000  Uiso   1.00
C951   C     0.32005   0.84073   0.51762   0.00000  Uiso   1.00
C952   C     0.20983   0.68601   0.48804   0.00000  Uiso   1.00
C953   C     0.12350   0.98065   0.51196   0.00000  Uiso   1.00
C954   C     0.20863   0.97645   0.49070   0.00000  Uiso   1.00
Cu955  Cu    0.16667   0.83334   0.54689   0.00000  Uiso   1.00
Cu956  Cu    0.16667   0.83333   0.45311   0.00000  Uiso   1.00
H957   H     0.24084   0.95776   0.48325   0.00000  Uiso   1.00
H958   H     0.28364   0.91140   0.56191   0.00000  Uiso   1.00
H959   H     0.29279   0.87658   0.61052   0.00000  Uiso   1.00
H960   H     0.00178   0.91886   0.60930   0.00000  Uiso   1.00
H961   H     0.03297   0.84597   0.58637   0.00000  Uiso   1.00
H962   H     0.03922   0.88829   0.54955   0.00000  Uiso   1.00
H963   H     0.27052   0.73036   0.50403   0.00000  Uiso   1.00
H964   H     0.28783   0.68324   0.47409   0.00000  Uiso   1.00
H965   H     0.24758   0.71981   0.44214   0.00000  Uiso   1.00
H966   H     0.06280   0.93632   0.49597   0.00000  Uiso   1.00
H967   H     0.08576   0.94684   0.55785   0.00000  Uiso   1.00
H968   H     0.09250   0.70891   0.51675   0.00000  Uiso   1.00
H969   H     0.04551   0.98343   0.52594   0.00000  Uiso   1.00
H970   H     0.13200   0.73293   0.34003   0.00000  Uiso   1.00
H971   H     0.18078   0.74322   0.38750   0.00000  Uiso   1.00
H972   H     0.11443   0.75743   0.39077   0.00000  Uiso   1.00
H973   H     0.15255   0.92345   0.61250   0.00000  Uiso   1.00
H974   H     0.20132   0.93374   0.65997   0.00000  Uiso   1.00
H975   H     0.21891   0.90924   0.60924   0.00000  Uiso   1.00
H976   H     0.14407   0.77111   0.61515   0.00000  Uiso   1.00
H977   H     0.18926   0.89556   0.38485   0.00000  Uiso   1.00
H978   H     0.04055   0.79009   0.38948   0.00000  Uiso   1.00
H979   H     0.04969   0.75527   0.43809   0.00000  Uiso   1.00
H980   H     0.33155   0.74781   0.39070   0.00000  Uiso   1.00
H981   H     0.29411   0.77838   0.45045   0.00000  Uiso   1.00
H982   H     0.30036   0.82070   0.41363   0.00000  Uiso   1.00
N983   N     0.16668   0.83334   0.61736   0.00000  Uiso   1.00
N984   N     0.16665   0.83332   0.38264   0.00000  Uiso   1.00
O985   O     0.16666   0.77322   0.53958   0.00000  Uiso   1.00
O986   O     0.16667   0.89345   0.46042   0.00000  Uiso   1.00
O987   O     0.16666   0.77321   0.46039   0.00000  Uiso   1.00
O988   O     0.16667   0.89346   0.53961   0.00000  Uiso   1.00
O989   O     0.09161   0.83334   0.53046   0.00000  Uiso   1.00
O990   O     0.24172   0.83333   0.46954   0.00000  Uiso   1.00
O991   O     0.09161   0.83333   0.45127   0.00000  Uiso   1.00
O992   O     0.24172   0.83334   0.54873   0.00000  Uiso   1.00
C993   C     0.50091   0.75422   0.49902   0.00000  Uiso   1.00
C994   C     0.45803   0.69022   0.50930   0.00000  Uiso   1.00
C995   C     0.49946   0.95724   0.50284   0.00000  Uiso   1.00
C996   C     0.50054   0.70943   0.49717   0.00000  Uiso   1.00
C997   C     0.48832   0.79795   0.35279   0.00000  Uiso   1.00
C998   C     0.51168   0.86872   0.64721   0.00000  Uiso   1.00
C999   C     0.48766   0.79875   0.63722   0.00000  Uiso   1.00
C1000  C     0.51234   0.86792   0.36278   0.00000  Uiso   1.00
C1001  C     0.65453   0.79985   0.43910   0.00000  Uiso   1.00
C1002  C     0.35511   0.77161   0.41311   0.00000  Uiso   1.00
C1003  C     0.34547   0.86682   0.56090   0.00000  Uiso   1.00
C1004  C     0.49909   0.91245   0.50098   0.00000  Uiso   1.00
C1005  C     0.64489   0.89506   0.58689   0.00000  Uiso   1.00
C1006  C     0.59003   0.70604   0.47648   0.00000  Uiso   1.00
C1007  C     0.40997   0.96063   0.52353   0.00000  Uiso   1.00
C1008  C     0.47839   0.75597   0.36929   0.00000  Uiso   1.00
C1009  C     0.52161   0.91070   0.63072   0.00000  Uiso   1.00
C1010  C     0.40155   0.83199   0.48796   0.00000  Uiso   1.00
C1011  C     0.59845   0.83468   0.51204   0.00000  Uiso   1.00
C1012  C     0.34662   0.82594   0.48238   0.00000  Uiso   1.00
C1013  C     0.65338   0.84073   0.51762   0.00000  Uiso   1.00
C1014  C     0.54316   0.68601   0.48804   0.00000  Uiso   1.00
C1015  C     0.45684   0.98065   0.51196   0.00000  Uiso   1.00
C1016  C     0.54197   0.97645   0.49070   0.00000  Uiso   1.00
Cu1017 Cu    0.50000   0.83334   0.54689   0.00000  Uiso   1.00
Cu1018 Cu    0.50000   0.83333   0.45311   0.00000  Uiso   1.00
H1019  H     0.57417   0.95776   0.48325   0.00000  Uiso   1.00
H1020  H     0.61697   0.91140   0.56191   0.00000  Uiso   1.00
H1021  H     0.62612   0.87658   0.61052   0.00000  Uiso   1.00
H1022  H     0.33512   0.91886   0.60930   0.00000  Uiso   1.00
H1023  H     0.36630   0.84597   0.58637   0.00000  Uiso   1.00
H1024  H     0.37255   0.88829   0.54955   0.00000  Uiso   1.00
H1025  H     0.60386   0.73036   0.50403   0.00000  Uiso   1.00
H1026  H     0.62117   0.68324   0.47409   0.00000  Uiso   1.00
H1027  H     0.58091   0.71981   0.44214   0.00000  Uiso   1.00
H1028  H     0.39613   0.93632   0.49597   0.00000  Uiso   1.00
H1029  H     0.41909   0.94684   0.55785   0.00000  Uiso   1.00
H1030  H     0.42583   0.70891   0.51675   0.00000  Uiso   1.00
H1031  H     0.37885   0.98343   0.52594   0.00000  Uiso   1.00
H1032  H     0.46534   0.73293   0.34003   0.00000  Uiso   1.00
H1033  H     0.51411   0.74322   0.38750   0.00000  Uiso   1.00
H1034  H     0.44776   0.75743   0.39077   0.00000  Uiso   1.00
H1035  H     0.48588   0.92345   0.61250   0.00000  Uiso   1.00
H1036  H     0.53465   0.93374   0.65997   0.00000  Uiso   1.00
H1037  H     0.55224   0.90924   0.60924   0.00000  Uiso   1.00
H1038  H     0.47740   0.77111   0.61515   0.00000  Uiso   1.00
H1039  H     0.52260   0.89556   0.38485   0.00000  Uiso   1.00
H1040  H     0.37388   0.79009   0.38948   0.00000  Uiso   1.00
H1041  H     0.38303   0.75527   0.43809   0.00000  Uiso   1.00
H1042  H     0.66488   0.74781   0.39070   0.00000  Uiso   1.00
H1043  H     0.62745   0.77838   0.45045   0.00000  Uiso   1.00
H1044  H     0.63370   0.82070   0.41363   0.00000  Uiso   1.00
N1045  N     0.50001   0.83334   0.61736   0.00000  Uiso   1.00
N1046  N     0.49999   0.83332   0.38264   0.00000  Uiso   1.00
O1047  O     0.50000   0.77322   0.53958   0.00000  Uiso   1.00
O1048  O     0.50000   0.89345   0.46042   0.00000  Uiso   1.00
O1049  O     0.50000   0.77321   0.46039   0.00000  Uiso   1.00
O1050  O     0.50000   0.89346   0.53961   0.00000  Uiso   1.00
O1051  O     0.42495   0.83334   0.53046   0.00000  Uiso   1.00
O1052  O     0.57505   0.83333   0.46954   0.00000  Uiso   1.00
O1053  O     0.42494   0.83333   0.45127   0.00000  Uiso   1.00
O1054  O     0.57506   0.83334   0.54873   0.00000  Uiso   1.00
C1055  C     0.83425   0.75422   0.49902   0.00000  Uiso   1.00
C1056  C     0.79137   0.69022   0.50930   0.00000  Uiso   1.00
C1057  C     0.83280   0.95724   0.50284   0.00000  Uiso   1.00
C1058  C     0.83387   0.70943   0.49717   0.00000  Uiso   1.00
C1059  C     0.82165   0.79795   0.35279   0.00000  Uiso   1.00
C1060  C     0.84502   0.86872   0.64721   0.00000  Uiso   1.00
C1061  C     0.82099   0.79875   0.63722   0.00000  Uiso   1.00
C1062  C     0.84567   0.86792   0.36278   0.00000  Uiso   1.00
C1063  C     0.98786   0.79985   0.43910   0.00000  Uiso   1.00
C1064  C     0.68845   0.77161   0.41311   0.00000  Uiso   1.00
C1065  C     0.67881   0.86682   0.56090   0.00000  Uiso   1.00
C1066  C     0.83242   0.91245   0.50098   0.00000  Uiso   1.00
C1067  C     0.97822   0.89506   0.58689   0.00000  Uiso   1.00
C1068  C     0.92337   0.70604   0.47648   0.00000  Uiso   1.00
C1069  C     0.74330   0.96063   0.52353   0.00000  Uiso   1.00
C1070  C     0.81172   0.75597   0.36929   0.00000  Uiso   1.00
C1071  C     0.85495   0.91070   0.63072   0.00000  Uiso   1.00
C1072  C     0.73488   0.83199   0.48796   0.00000  Uiso   1.00
C1073  C     0.93178   0.83468   0.51204   0.00000  Uiso   1.00
C1074  C     0.67995   0.82594   0.48238   0.00000  Uiso   1.00
C1075  C     0.98672   0.84073   0.51762   0.00000  Uiso   1.00
C1076  C     0.87650   0.68601   0.48804   0.00000  Uiso   1.00
C1077  C     0.79017   0.98065   0.51196   0.00000  Uiso   1.00
C1078  C     0.87530   0.97645   0.49070   0.00000  Uiso   1.00
Cu1079 Cu    0.83333   0.83334   0.54689   0.00000  Uiso   1.00
Cu1080 Cu    0.83333   0.83333   0.45311   0.00000  Uiso   1.00
H1081  H     0.90750   0.95776   0.48325   0.00000  Uiso   1.00
H1082  H     0.95030   0.91140   0.56191   0.00000  Uiso   1.00
H1083  H     0.95946   0.87658   0.61052   0.00000  Uiso   1.00
H1084  H     0.66845   0.91886   0.60930   0.00000  Uiso   1.00
H1085  H     0.69964   0.84597   0.58637   0.00000  Uiso   1.00
H1086  H     0.70588   0.88829   0.54955   0.00000  Uiso   1.00
H1087  H     0.93719   0.73036   0.50403   0.00000  Uiso   1.00
H1088  H     0.95450   0.68324   0.47409   0.00000  Uiso   1.00
H1089  H     0.91425   0.71981   0.44214   0.00000  Uiso   1.00
H1090  H     0.72946   0.93632   0.49597   0.00000  Uiso   1.00
H1091  H     0.75243   0.94684   0.55785   0.00000  Uiso   1.00
H1092  H     0.75916   0.70891   0.51675   0.00000  Uiso   1.00
H1093  H     0.71218   0.98343   0.52594   0.00000  Uiso   1.00
H1094  H     0.79867   0.73293   0.34003   0.00000  Uiso   1.00
H1095  H     0.84745   0.74322   0.38750   0.00000  Uiso   1.00
H1096  H     0.78109   0.75743   0.39077   0.00000  Uiso   1.00
H1097  H     0.81922   0.92345   0.61250   0.00000  Uiso   1.00
H1098  H     0.86799   0.93374   0.65997   0.00000  Uiso   1.00
H1099  H     0.88558   0.90924   0.60924   0.00000  Uiso   1.00
H1100  H     0.81074   0.77111   0.61515   0.00000  Uiso   1.00
H1101  H     0.85593   0.89556   0.38485   0.00000  Uiso   1.00
H1102  H     0.70721   0.79009   0.38948   0.00000  Uiso   1.00
H1103  H     0.71636   0.75527   0.43809   0.00000  Uiso   1.00
H1104  H     0.99822   0.74781   0.39070   0.00000  Uiso   1.00
H1105  H     0.96078   0.77838   0.45045   0.00000  Uiso   1.00
H1106  H     0.96703   0.82070   0.41363   0.00000  Uiso   1.00
N1107  N     0.83335   0.83334   0.61736   0.00000  Uiso   1.00
N1108  N     0.83332   0.83332   0.38264   0.00000  Uiso   1.00
O1109  O     0.83333   0.77322   0.53958   0.00000  Uiso   1.00
O1110  O     0.83334   0.89345   0.46042   0.00000  Uiso   1.00
O1111  O     0.83333   0.77321   0.46039   0.00000  Uiso   1.00
O1112  O     0.83334   0.89346   0.53961   0.00000  Uiso   1.00
O1113  O     0.75828   0.83334   0.53046   0.00000  Uiso   1.00
O1114  O     0.90839   0.83333   0.46954   0.00000  Uiso   1.00
O1115  O     0.75828   0.83333   0.45127   0.00000  Uiso   1.00
O1116  O     0.90839   0.83334   0.54873   0.00000  Uiso   1.00
C1117  C     0.16758   0.08755   0.83235   0.00000  Uiso   1.00
C1118  C     0.12470   0.02355   0.84264   0.00000  Uiso   1.00
C1119  C     0.16613   0.29057   0.83617   0.00000  Uiso   1.00
C1120  C     0.16720   0.04276   0.83050   0.00000  Uiso   1.00
C1121  C     0.15498   0.13128   0.68613   0.00000  Uiso   1.00
C1122  C     0.17835   0.20205   0.98054   0.00000  Uiso   1.00
C1123  C     0.15433   0.13208   0.97056   0.00000  Uiso   1.00
C1124  C     0.17901   0.20125   0.69611   0.00000  Uiso   1.00
C1125  C     0.32119   0.13318   0.77244   0.00000  Uiso   1.00
C1126  C     0.02178   0.10494   0.74644   0.00000  Uiso   1.00
C1127  C     0.01214   0.20015   0.89423   0.00000  Uiso   1.00
C1128  C     0.16575   0.24578   0.83432   0.00000  Uiso   1.00
C1129  C     0.31155   0.22839   0.92023   0.00000  Uiso   1.00
C1130  C     0.25670   0.03937   0.80981   0.00000  Uiso   1.00
C1131  C     0.07664   0.29397   0.85686   0.00000  Uiso   1.00
C1132  C     0.14505   0.08930   0.70262   0.00000  Uiso   1.00
C1133  C     0.18828   0.24404   0.96405   0.00000  Uiso   1.00
C1134  C     0.06822   0.16532   0.82129   0.00000  Uiso   1.00
C1135  C     0.26512   0.16801   0.84538   0.00000  Uiso   1.00
C1136  C     0.01328   0.15927   0.81572   0.00000  Uiso   1.00
C1137  C     0.32005   0.17406   0.85095   0.00000  Uiso   1.00
C1138  C     0.20983   0.01935   0.82137   0.00000  Uiso   1.00
C1139  C     0.12350   0.31399   0.84530   0.00000  Uiso   1.00
C1140  C     0.20863   0.30979   0.82403   0.00000  Uiso   1.00
Cu1141 Cu    0.16667   0.16667   0.88022   0.00000  Uiso   1.00
Cu1142 Cu    0.16667   0.16666   0.78645   0.00000  Uiso   1.00
H1143  H     0.24084   0.29109   0.81658   0.00000  Uiso   1.00
H1144  H     0.28364   0.24473   0.89524   0.00000  Uiso   1.00
H1145  H     0.29279   0.20991   0.94385   0.00000  Uiso   1.00
H1146  H     0.00178   0.25219   0.94263   0.00000  Uiso   1.00
H1147  H     0.03297   0.17930   0.91970   0.00000  Uiso   1.00
H1148  H     0.03922   0.22162   0.88288   0.00000  Uiso   1.00
H1149  H     0.27052   0.06369   0.83736   0.00000  Uiso   1.00
H1150  H     0.28783   0.01657   0.80742   0.00000  Uiso   1.00
H1151  H     0.24758   0.05314   0.77547   0.00000  Uiso   1.00
H1152  H     0.06280   0.26965   0.82930   0.00000  Uiso   1.00
H1153  H     0.08576   0.28018   0.89119   0.00000  Uiso   1.00
H1154  H     0.09250   0.04224   0.85009   0.00000  Uiso   1.00
H1155  H     0.04551   0.31676   0.85927   0.00000  Uiso   1.00
H1156  H     0.13200   0.06627   0.67336   0.00000  Uiso   1.00
H1157  H     0.18078   0.07655   0.72083   0.00000  Uiso   1.00
H1158  H     0.11443   0.09076   0.72410   0.00000  Uiso   1.00
H1159  H     0.15255   0.25678   0.94583   0.00000  Uiso   1.00
H1160  H     0.20132   0.26707   0.99331   0.00000  Uiso   1.00
H1161  H     0.21891   0.24258   0.94257   0.00000  Uiso   1.00
H1162  H     0.14407   0.10444   0.94848   0.00000  Uiso   1.00
H1163  H     0.18926   0.22889   0.71819   0.00000  Uiso   1.00
H1164  H     0.04055   0.12342   0.72281   0.00000  Uiso   1.00
H1165  H     0.04969   0.08860   0.77143   0.00000  Uiso   1.00
H1166  H     0.33155   0.08114   0.72403   0.00000  Uiso   1.00
H1167  H     0.29411   0.11171   0.78379   0.00000  Uiso   1.00
H1168  H     0.30036   0.15403   0.74696   0.00000  Uiso   1.00
N1169  N     0.16668   0.16668   0.95069   0.00000  Uiso   1.00
N1170  N     0.16665   0.16666   0.71597   0.00000  Uiso   1.00
O1171  O     0.16666   0.10655   0.87291   0.00000  Uiso   1.00
O1172  O     0.16667   0.22678   0.79375   0.00000  Uiso   1.00
O1173  O     0.16666   0.10654   0.79372   0.00000  Uiso   1.00
O1174  O     0.16667   0.22679   0.87294   0.00000  Uiso   1.00
O1175  O     0.09161   0.16667   0.86379   0.00000  Uiso   1.00
O1176  O     0.24172   0.16666   0.80288   0.00000  Uiso   1.00
O1177  O     0.09161   0.16666   0.78460   0.00000  Uiso   1.00
O1178  O     0.24172   0.16667   0.88207   0.00000  Uiso   1.00
C1179  C     0.50091   0.08755   0.83235   0.00000  Uiso   1.00
C1180  C     0.45803   0.02355   0.84264   0.00000  Uiso   1.00
C1181  C     0.49946   0.29057   0.83617   0.00000  Uiso   1.00
C1182  C     0.50054   0.04276   0.83050   0.00000  Uiso   1.00
C1183  C     0.48832   0.13128   0.68613   0.00000  Uiso   1.00
C1184  C     0.51168   0.20205   0.98054   0.00000  Uiso   1.00
C1185  C     0.48766   0.13208   0.97056   0.00000  Uiso   1.00
C1186  C     0.51234   0.20125   0.69611   0.00000  Uiso   1.00
C1187  C     0.65453   0.13318   0.77244   0.00000  Uiso   1.00
C1188  C     0.35511   0.10494   0.74644   0.00000  Uiso   1.00
C1189  C     0.34547   0.20015   0.89423   0.00000  Uiso   1.00
C1190  C     0.49909   0.24578   0.83432   0.00000  Uiso   1.00
C1191  C     0.64489   0.22839   0.92023   0.00000  Uiso   1.00
C1192  C     0.59003   0.03937   0.80981   0.00000  Uiso   1.00
C1193  C     0.40997   0.29397   0.85686   0.00000  Uiso   1.00
C1194  C     0.47839   0.08930   0.70262   0.00000  Uiso   1.00
C1195  C     0.52161   0.24404   0.96405   0.00000  Uiso   1.00
C1196  C     0.40155   0.16532   0.82129   0.00000  Uiso   1.00
C1197  C     0.59845   0.16801   0.84538   0.00000  Uiso   1.00
C1198  C     0.34662   0.15927   0.81572   0.00000  Uiso   1.00
C1199  C     0.65338   0.17406   0.85095   0.00000  Uiso   1.00
C1200  C     0.54316   0.01935   0.82137   0.00000  Uiso   1.00
C1201  C     0.45684   0.31399   0.84530   0.00000  Uiso   1.00
C1202  C     0.54197   0.30979   0.82403   0.00000  Uiso   1.00
Cu1203 Cu    0.50000   0.16667   0.88022   0.00000  Uiso   1.00
Cu1204 Cu    0.50000   0.16666   0.78645   0.00000  Uiso   1.00
H1205  H     0.57417   0.29109   0.81658   0.00000  Uiso   1.00
H1206  H     0.61697   0.24473   0.89524   0.00000  Uiso   1.00
H1207  H     0.62612   0.20991   0.94385   0.00000  Uiso   1.00
H1208  H     0.33512   0.25219   0.94263   0.00000  Uiso   1.00
H1209  H     0.36630   0.17930   0.91970   0.00000  Uiso   1.00
H1210  H     0.37255   0.22162   0.88288   0.00000  Uiso   1.00
H1211  H     0.60386   0.06369   0.83736   0.00000  Uiso   1.00
H1212  H     0.62117   0.01657   0.80742   0.00000  Uiso   1.00
H1213  H     0.58091   0.05314   0.77547   0.00000  Uiso   1.00
H1214  H     0.39613   0.26965   0.82930   0.00000  Uiso   1.00
H1215  H     0.41909   0.28018   0.89119   0.00000  Uiso   1.00
H1216  H     0.42583   0.04224   0.85009   0.00000  Uiso   1.00
H1217  H     0.37885   0.31676   0.85927   0.00000  Uiso   1.00
H1218  H     0.46534   0.06627   0.67336   0.00000  Uiso   1.00
H1219  H     0.51411   0.07655   0.72083   0.00000  Uiso   1.00
H1220  H     0.44776   0.09076   0.72410   0.00000  Uiso   1.00
H1221  H     0.48588   0.25678   0.94583   0.00000  Uiso   1.00
H1222  H     0.53465   0.26707   0.99331   0.00000  Uiso   1.00
H1223  H     0.55224   0.24258   0.94257   0.00000  Uiso   1.00
H1224  H     0.47740   0.10444   0.94848   0.00000  Uiso   1.00
H1225  H     0.52260   0.22889   0.71819   0.00000  Uiso   1.00
H1226  H     0.37388   0.12342   0.72281   0.00000  Uiso   1.00
H1227  H     0.38303   0.08860   0.77143   0.00000  Uiso   1.00
H1228  H     0.66488   0.08114   0.72403   0.00000  Uiso   1.00
H1229  H     0.62745   0.11171   0.78379   0.00000  Uiso   1.00
H1230  H     0.63370   0.15403   0.74696   0.00000  Uiso   1.00
N1231  N     0.50001   0.16668   0.95069   0.00000  Uiso   1.00
N1232  N     0.49999   0.16666   0.71597   0.00000  Uiso   1.00
O1233  O     0.50000   0.10655   0.87291   0.00000  Uiso   1.00
O1234  O     0.50000   0.22678   0.79375   0.00000  Uiso   1.00
O1235  O     0.50000   0.10654   0.79372   0.00000  Uiso   1.00
O1236  O     0.50000   0.22679   0.87294   0.00000  Uiso   1.00
O1237  O     0.42495   0.16667   0.86379   0.00000  Uiso   1.00
O1238  O     0.57505   0.16666   0.80288   0.00000  Uiso   1.00
O1239  O     0.42494   0.16666   0.78460   0.00000  Uiso   1.00
O1240  O     0.57506   0.16667   0.88207   0.00000  Uiso   1.00
C1241  C     0.83425   0.08755   0.83235   0.00000  Uiso   1.00
C1242  C     0.79137   0.02355   0.84264   0.00000  Uiso   1.00
C1243  C     0.83280   0.29057   0.83617   0.00000  Uiso   1.00
C1244  C     0.83387   0.04276   0.83050   0.00000  Uiso   1.00
C1245  C     0.82165   0.13128   0.68613   0.00000  Uiso   1.00
C1246  C     0.84502   0.20205   0.98054   0.00000  Uiso   1.00
C1247  C     0.82099   0.13208   0.97056   0.00000  Uiso   1.00
C1248  C     0.84567   0.20125   0.69611   0.00000  Uiso   1.00
C1249  C     0.98786   0.13318   0.77244   0.00000  Uiso   1.00
C1250  C     0.68845   0.10494   0.74644   0.00000  Uiso   1.00
C1251  C     0.67881   0.20015   0.89423   0.00000  Uiso   1.00
C1252  C     0.83242   0.24578   0.83432   0.00000  Uiso   1.00
C1253  C     0.97822   0.22839   0.92023   0.00000  Uiso   1.00
C1254  C     0.92337   0.03937   0.80981   0.00000  Uiso   1.00
C1255  C     0.74330   0.29397   0.85686   0.00000  Uiso   1.00
C1256  C     0.81172   0.08930   0.70262   0.00000  Uiso   1.00
C1257  C     0.85495   0.24404   0.96405   0.00000  Uiso   1.00
C1258  C     0.73488   0.16532   0.82129   0.00000  Uiso   1.00
C1259  C     0.93178   0.16801   0.84538   0.00000  Uiso   1.00
C1260  C     0.67995   0.15927   0.81572   0.00000  Uiso   1.00
C1261  C     0.98672   0.17406   0.85095   0.00000  Uiso   1.00
C1262  C     0.87650   0.01935   0.82137   0.00000  Uiso   1.00
C1263  C     0.79017   0.31399   0.84530   0.00000  Uiso   1.00
C1264  C     0.87530   0.30979   0.82403   0.00000  Uiso   1.00
Cu1265 Cu    0.83333   0.16667   0.88022   0.00000  Uiso   1.00
Cu1266 Cu    0.83333   0.16666   0.78645   0.00000  Uiso   1.00
H1267  H     0.90750   0.29109   0.81658   0.00000  Uiso   1.00
H1268  H     0.95030   0.24473   0.89524   0.00000  Uiso   1.00
H1269  H     0.95946   0.20991   0.94385   0.00000  Uiso   1.00
H1270  H     0.66845   0.25219   0.94263   0.00000  Uiso   1.00
H1271  H     0.69964   0.17930   0.91970   0.00000  Uiso   1.00
H1272  H     0.70588   0.22162   0.88288   0.00000  Uiso   1.00
H1273  H     0.93719   0.06369   0.83736   0.00000  Uiso   1.00
H1274  H     0.95450   0.01657   0.80742   0.00000  Uiso   1.00
H1275  H     0.91425   0.05314   0.77547   0.00000  Uiso   1.00
H1276  H     0.72946   0.26965   0.82930   0.00000  Uiso   1.00
H1277  H     0.75243   0.28018   0.89119   0.00000  Uiso   1.00
H1278  H     0.75916   0.04224   0.85009   0.00000  Uiso   1.00
H1279  H     0.71218   0.31676   0.85927   0.00000  Uiso   1.00
H1280  H     0.79867   0.06627   0.67336   0.00000  Uiso   1.00
H1281  H     0.84745   0.07655   0.72083   0.00000  Uiso   1.00
H1282  H     0.78109   0.09076   0.72410   0.00000  Uiso   1.00
H1283  H     0.81922   0.25678   0.94583   0.00000  Uiso   1.00
H1284  H     0.86799   0.26707   0.99331   0.00000  Uiso   1.00
H1285  H     0.88558   0.24258   0.94257   0.00000  Uiso   1.00
H1286  H     0.81074   0.10444   0.94848   0.00000  Uiso   1.00
H1287  H     0.85593   0.22889   0.71819   0.00000  Uiso   1.00
H1288  H     0.70721   0.12342   0.72281   0.00000  Uiso   1.00
H1289  H     0.71636   0.08860   0.77143   0.00000  Uiso   1.00
H1290  H     0.99822   0.08114   0.72403   0.00000  Uiso   1.00
H1291  H     0.96078   0.11171   0.78379   0.00000  Uiso   1.00
H1292  H     0.96703   0.15403   0.74696   0.00000  Uiso   1.00
N1293  N     0.83335   0.16668   0.95069   0.00000  Uiso   1.00
N1294  N     0.83332   0.16666   0.71597   0.00000  Uiso   1.00
O1295  O     0.83333   0.10655   0.87291   0.00000  Uiso   1.00
O1296  O     0.83334   0.22678   0.79375   0.00000  Uiso   1.00
O1297  O     0.83333   0.10654   0.79372   0.00000  Uiso   1.00
O1298  O     0.83334   0.22679   0.87294   0.00000  Uiso   1.00
O1299  O     0.75828   0.16667   0.86379   0.00000  Uiso   1.00
O1300  O     0.90839   0.16666   0.80288   0.00000  Uiso   1.00
O1301  O     0.75828   0.16666   0.78460   0.00000  Uiso   1.00
O1302  O     0.90839   0.16667   0.88207   0.00000  Uiso   1.00
C1303  C     0.16758   0.42088   0.83235   0.00000  Uiso   1.00
C1304  C     0.12470   0.35688   0.84264   0.00000  Uiso   1.00
C1305  C     0.16613   0.62391   0.83617   0.00000  Uiso   1.00
C1306  C     0.16720   0.37610   0.83050   0.00000  Uiso   1.00
C1307  C     0.15498   0.46462   0.68613   0.00000  Uiso   1.00
C1308  C     0.17835   0.53538   0.98054   0.00000  Uiso   1.00
C1309  C     0.15433   0.46541   0.97056   0.00000  Uiso   1.00
C1310  C     0.17901   0.53459   0.69611   0.00000  Uiso   1.00
C1311  C     0.32119   0.46651   0.77244   0.00000  Uiso   1.00
C1312  C     0.02178   0.43827   0.74644   0.00000  Uiso   1.00
C1313  C     0.01214   0.53349   0.89423   0.00000  Uiso   1.00
C1314  C     0.16575   0.57912   0.83432   0.00000  Uiso   1.00
C1315  C     0.31155   0.56173   0.92023   0.00000  Uiso   1.00
C1316  C     0.25670   0.37270   0.80981   0.00000  Uiso   1.00
C1317  C     0.07664   0.62730   0.85686   0.00000  Uiso   1.00
C1318  C     0.14505   0.42263   0.70262   0.00000  Uiso   1.00
C1319  C     0.18828   0.57737   0.96405   0.00000  Uiso   1.00
C1320  C     0.06822   0.49865   0.82129   0.00000  Uiso   1.00
C1321  C     0.26512   0.50135   0.84538   0.00000  Uiso   1.00
C1322  C     0.01328   0.49260   0.81572   0.00000  Uiso   1.00
C1323  C     0.32005   0.50740   0.85095   0.00000  Uiso   1.00
C1324  C     0.20983   0.35268   0.82137   0.00000  Uiso   1.00
C1325  C     0.12350   0.64732   0.84530   0.00000  Uiso   1.00
C1326  C     0.20863   0.64312   0.82403   0.00000  Uiso   1.00
Cu1327 Cu    0.16667   0.50001   0.88022   0.00000  Uiso   1.00
Cu1328 Cu    0.16667   0.49999   0.78645   0.00000  Uiso   1.00
H1329  H     0.24084   0.62443   0.81658   0.00000  Uiso   1.00
H1330  H     0.28364   0.57807   0.89524   0.00000  Uiso   1.00
H1331  H     0.29279   0.54324   0.94385   0.00000  Uiso   1.00
H1332  H     0.00178   0.58553   0.94263   0.00000  Uiso   1.00
H1333  H     0.03297   0.51263   0.91970   0.00000  Uiso   1.00
H1334  H     0.03922   0.55496   0.88288   0.00000  Uiso   1.00
H1335  H     0.27052   0.39703   0.83736   0.00000  Uiso   1.00
H1336  H     0.28783   0.34991   0.80742   0.00000  Uiso   1.00
H1337  H     0.24758   0.38648   0.77547   0.00000  Uiso   1.00
H1338  H     0.06280   0.60299   0.82930   0.00000  Uiso   1.00
H1339  H     0.08576   0.61351   0.89119   0.00000  Uiso   1.00
H1340  H     0.09250   0.37557   0.85009   0.00000  Uiso   1.00
H1341  H     0.04551   0.65010   0.85927   0.00000  Uiso   1.00
H1342  H     0.13200   0.39960   0.67336   0.00000  Uiso   1.00
H1343  H     0.18078   0.40988   0.72083   0.00000  Uiso   1.00
H1344  H     0.11443   0.42409   0.72410   0.00000  Uiso   1.00
H1345  H     0.15255   0.59012   0.94583   0.00000  Uiso   1.00
H1346  H     0.20132   0.60041   0.99331   0.00000  Uiso   1.00
H1347  H     0.21891   0.57591   0.94257   0.00000  Uiso   1.00
H1348  H     0.14407   0.43778   0.94848   0.00000  Uiso   1.00
H1349  H     0.18926   0.56222   0.71819   0.00000  Uiso   1.00
H1350  H     0.04055   0.45676   0.72281   0.00000  Uiso   1.00
H1351  H     0.04969   0.42193   0.77143   0.00000  Uiso   1.00
H1352  H     0.33155   0.41447   0.72403   0.00000  Uiso   1.00
H1353  H     0.29411   0.44504   0.78379   0.00000  Uiso   1.00
H1354  H     0.30036   0.48737   0.74696   0.00000  Uiso   1.00
N1355  N     0.16668   0.50001   0.95069   0.00000  Uiso   1.00
N1356  N     0.16665   0.49999   0.71597   0.00000  Uiso   1.00
O1357  O     0.16666   0.43989   0.87291   0.00000  Uiso   1.00
O1358  O     0.16667   0.56011   0.79375   0.00000  Uiso   1.00
O1359  O     0.16666   0.43988   0.79372   0.00000  Uiso   1.00
O1360  O     0.16667   0.56012   0.87294   0.00000  Uiso   1.00
O1361  O     0.09161   0.50000   0.86379   0.00000  Uiso   1.00
O1362  O     0.24172   0.50000   0.80288   0.00000  Uiso   1.00
O1363  O     0.09161   0.49999   0.78460   0.00000  Uiso   1.00
O1364  O     0.24172   0.50001   0.88207   0.00000  Uiso   1.00
C1365  C     0.50091   0.42088   0.83235   0.00000  Uiso   1.00
C1366  C     0.45803   0.35688   0.84264   0.00000  Uiso   1.00
C1367  C     0.49946   0.62391   0.83617   0.00000  Uiso   1.00
C1368  C     0.50054   0.37610   0.83050   0.00000  Uiso   1.00
C1369  C     0.48832   0.46462   0.68613   0.00000  Uiso   1.00
C1370  C     0.51168   0.53538   0.98054   0.00000  Uiso   1.00
C1371  C     0.48766   0.46541   0.97056   0.00000  Uiso   1.00
C1372  C     0.51234   0.53459   0.69611   0.00000  Uiso   1.00
C1373  C     0.65453   0.46651   0.77244   0.00000  Uiso   1.00
C1374  C     0.35511   0.43827   0.74644   0.00000  Uiso   1.00
C1375  C     0.34547   0.53349   0.89423   0.00000  Uiso   1.00
C1376  C     0.49909   0.57912   0.83432   0.00000  Uiso   1.00
C1377  C     0.64489   0.56173   0.92023   0.00000  Uiso   1.00
C1378  C     0.59003   0.37270   0.80981   0.00000  Uiso   1.00
C1379  C     0.40997   0.62730   0.85686   0.00000  Uiso   1.00
C1380  C     0.47839   0.42263   0.70262   0.00000  Uiso   1.00
C1381  C     0.52161   0.57737   0.96405   0.00000  Uiso   1.00
C1382  C     0.40155   0.49865   0.82129   0.00000  Uiso   1.00
C1383  C     0.59845   0.50135   0.84538   0.00000  Uiso   1.00
C1384  C     0.34662   0.49260   0.81572   0.00000  Uiso   1.00
C1385  C     0.65338   0.50740   0.85095   0.00000  Uiso   1.00
C1386  C     0.54316   0.35268   0.82137   0.00000  Uiso   1.00
C1387  C     0.45684   0.64732   0.84530   0.00000  Uiso   1.00
C1388  C     0.54197   0.64312   0.82403   0.00000  Uiso   1.00
Cu1389 Cu    0.50000   0.50001   0.88022   0.00000  Uiso   1.00
Cu1390 Cu    0.50000   0.49999   0.78645   0.00000  Uiso   1.00
H1391  H     0.57417   0.62443   0.81658   0.00000  Uiso   1.00
H1392  H     0.61697   0.57807   0.89524   0.00000  Uiso   1.00
H1393  H     0.62612   0.54324   0.94385   0.00000  Uiso   1.00
H1394  H     0.33512   0.58553   0.94263   0.00000  Uiso   1.00
H1395  H     0.36630   0.51263   0.91970   0.00000  Uiso   1.00
H1396  H     0.37255   0.55496   0.88288   0.00000  Uiso   1.00
H1397  H     0.60386   0.39703   0.83736   0.00000  Uiso   1.00
H1398  H     0.62117   0.34991   0.80742   0.00000  Uiso   1.00
H1399  H     0.58091   0.38648   0.77547   0.00000  Uiso   1.00
H1400  H     0.39613   0.60299   0.82930   0.00000  Uiso   1.00
H1401  H     0.41909   0.61351   0.89119   0.00000  Uiso   1.00
H1402  H     0.42583   0.37557   0.85009   0.00000  Uiso   1.00
H1403  H     0.37885   0.65010   0.85927   0.00000  Uiso   1.00
H1404  H     0.46534   0.39960   0.67336   0.00000  Uiso   1.00
H1405  H     0.51411   0.40988   0.72083   0.00000  Uiso   1.00
H1406  H     0.44776   0.42409   0.72410   0.00000  Uiso   1.00
H1407  H     0.48588   0.59012   0.94583   0.00000  Uiso   1.00
H1408  H     0.53465   0.60041   0.99331   0.00000  Uiso   1.00
H1409  H     0.55224   0.57591   0.94257   0.00000  Uiso   1.00
H1410  H     0.47740   0.43778   0.94848   0.00000  Uiso   1.00
H1411  H     0.52260   0.56222   0.71819   0.00000  Uiso   1.00
H1412  H     0.37388   0.45676   0.72281   0.00000  Uiso   1.00
H1413  H     0.38303   0.42193   0.77143   0.00000  Uiso   1.00
H1414  H     0.66488   0.41447   0.72403   0.00000  Uiso   1.00
H1415  H     0.62745   0.44504   0.78379   0.00000  Uiso   1.00
H1416  H     0.63370   0.48737   0.74696   0.00000  Uiso   1.00
N1417  N     0.50001   0.50001   0.95069   0.00000  Uiso   1.00
N1418  N     0.49999   0.49999   0.71597   0.00000  Uiso   1.00
O1419  O     0.50000   0.43989   0.87291   0.00000  Uiso   1.00
O1420  O     0.50000   0.56011   0.79375   0.00000  Uiso   1.00
O1421  O     0.50000   0.43988   0.79372   0.00000  Uiso   1.00
O1422  O     0.50000   0.56012   0.87294   0.00000  Uiso   1.00
O1423  O     0.42495   0.50000   0.86379   0.00000  Uiso   1.00
O1424  O     0.57505   0.50000   0.80288   0.00000  Uiso   1.00
O1425  O     0.42494   0.49999   0.78460   0.00000  Uiso   1.00
O1426  O     0.57506   0.50001   0.88207   0.00000  Uiso   1.00
C1427  C     0.83425   0.42088   0.83235   0.00000  Uiso   1.00
C1428  C     0.79137   0.35688   0.84264   0.00000  Uiso   1.00
C1429  C     0.83280   0.62391   0.83617   0.00000  Uiso   1.00
C1430  C     0.83387   0.37610   0.83050   0.00000  Uiso   1.00
C1431  C     0.82165   0.46462   0.68613   0.00000  Uiso   1.00
C1432  C     0.84502   0.53538   0.98054   0.00000  Uiso   1.00
C1433  C     0.82099   0.46541   0.97056   0.00000  Uiso   1.00
C1434  C     0.84567   0.53459   0.69611   0.00000  Uiso   1.00
C1435  C     0.98786   0.46651   0.77244   0.00000  Uiso   1.00
C1436  C     0.68845   0.43827   0.74644   0.00000  Uiso   1.00
C1437  C     0.67881   0.53349   0.89423   0.00000  Uiso   1.00
C1438  C     0.83242   0.57912   0.83432   0.00000  Uiso   1.00
C1439  C     0.97822   0.56173   0.92023   0.00000  Uiso   1.00
C1440  C     0.92337   0.37270   0.80981   0.00000  Uiso   1.00
C1441  C     0.74330   0.62730   0.85686   0.00000  Uiso   1.00
C1442  C     0.81172   0.42263   0.70262   0.00000  Uiso   1.00
C1443  C     0.85495   0.57737   0.96405   0.00000  Uiso   1.00
C1444  C     0.73488   0.49865   0.82129   0.00000  Uiso   1.00
C1445  C     0.93178   0.50135   0.84538   0.00000  Uiso   1.00
C1446  C     0.67995   0.49260   0.81572   0.00000  Uiso   1.00
C1447  C     0.98672   0.50740   0.85095   0.00000  Uiso   1.00
C1448  C     0.87650   0.35268   0.82137   0.00000  Uiso   1.00
C1449  C     0.79017   0.64732   0.84530   0.00000  Uiso   1.00
C1450  C     0.87530   0.64312   0.82403   0.00000  Uiso   1.00
Cu1451 Cu    0.83333   0.50001   0.88022   0.00000  Uiso   1.00
Cu1452 Cu    0.83333   0.49999   0.78645   0.00000  Uiso   1.00
H1453  H     0.90750   0.62443   0.81658   0.00000  Uiso   1.00
H1454  H     0.95030   0.57807   0.89524   0.00000  Uiso   1.00
H1455  H     0.95946   0.54324   0.94385   0.00000  Uiso   1.00
H1456  H     0.66845   0.58553   0.94263   0.00000  Uiso   1.00
H1457  H     0.69964   0.51263   0.91970   0.00000  Uiso   1.00
H1458  H     0.70588   0.55496   0.88288   0.00000  Uiso   1.00
H1459  H     0.93719   0.39703   0.83736   0.00000  Uiso   1.00
H1460  H     0.95450   0.34991   0.80742   0.00000  Uiso   1.00
H1461  H     0.91425   0.38648   0.77547   0.00000  Uiso   1.00
H1462  H     0.72946   0.60299   0.82930   0.00000  Uiso   1.00
H1463  H     0.75243   0.61351   0.89119   0.00000  Uiso   1.00
H1464  H     0.75916   0.37557   0.85009   0.00000  Uiso   1.00
H1465  H     0.71218   0.65010   0.85927   0.00000  Uiso   1.00
H1466  H     0.79867   0.39960   0.67336   0.00000  Uiso   1.00
H1467  H     0.84745   0.40988   0.72083   0.00000  Uiso   1.00
H1468  H     0.78109   0.42409   0.72410   0.00000  Uiso   1.00
H1469  H     0.81922   0.59012   0.94583   0.00000  Uiso   1.00
H1470  H     0.86799   0.60041   0.99331   0.00000  Uiso   1.00
H1471  H     0.88558   0.57591   0.94257   0.00000  Uiso   1.00
H1472  H     0.81074   0.43778   0.94848   0.00000  Uiso   1.00
H1473  H     0.85593   0.56222   0.71819   0.00000  Uiso   1.00
H1474  H     0.70721   0.45676   0.72281   0.00000  Uiso   1.00
H1475  H     0.71636   0.42193   0.77143   0.00000  Uiso   1.00
H1476  H     0.99822   0.41447   0.72403   0.00000  Uiso   1.00
H1477  H     0.96078   0.44504   0.78379   0.00000  Uiso   1.00
H1478  H     0.96703   0.48737   0.74696   0.00000  Uiso   1.00
N1479  N     0.83335   0.50001   0.95069   0.00000  Uiso   1.00
N1480  N     0.83332   0.49999   0.71597   0.00000  Uiso   1.00
O1481  O     0.83333   0.43989   0.87291   0.00000  Uiso   1.00
O1482  O     0.83334   0.56011   0.79375   0.00000  Uiso   1.00
O1483  O     0.83333   0.43988   0.79372   0.00000  Uiso   1.00
O1484  O     0.83334   0.56012   0.87294   0.00000  Uiso   1.00
O1485  O     0.75828   0.50000   0.86379   0.00000  Uiso   1.00
O1486  O     0.90839   0.50000   0.80288   0.00000  Uiso   1.00
O1487  O     0.75828   0.49999   0.78460   0.00000  Uiso   1.00
O1488  O     0.90839   0.50001   0.88207   0.00000  Uiso   1.00
C1489  C     0.16758   0.75422   0.83235   0.00000  Uiso   1.00
C1490  C     0.12470   0.69022   0.84264   0.00000  Uiso   1.00
C1491  C     0.16613   0.95724   0.83617   0.00000  Uiso   1.00
C1492  C     0.16720   0.70943   0.83050   0.00000  Uiso   1.00
C1493  C     0.15498   0.79795   0.68613   0.00000  Uiso   1.00
C1494  C     0.17835   0.86872   0.98054   0.00000  Uiso   1.00
C1495  C     0.15433   0.79875   0.97056   0.00000  Uiso   1.00
C1496  C     0.17901   0.86792   0.69611   0.00000  Uiso   1.00
C1497  C     0.32119   0.79985   0.77244   0.00000  Uiso   1.00
C1498  C     0.02178   0.77161   0.74644   0.00000  Uiso   1.00
C1499  C     0.01214   0.86682   0.89423   0.00000  Uiso   1.00
C1500  C     0.16575   0.91245   0.83432   0.00000  Uiso   1.00
C1501  C     0.31155   0.89506   0.92023   0.00000  Uiso   1.00
C1502  C     0.25670   0.70604   0.80981   0.00000  Uiso   1.00
C1503  C     0.07664   0.96063   0.85686   0.00000  Uiso   1.00
C1504  C     0.14505   0.75597   0.70262   0.00000  Uiso   1.00
C1505  C     0.18828   0.91070   0.96405   0.00000  Uiso   1.00
C1506  C     0.06822   0.83199   0.82129   0.00000  Uiso   1.00
C1507  C     0.26512   0.83468   0.84538   0.00000  Uiso   1.00
C1508  C     0.01328   0.82594   0.81572   0.00000  Uiso   1.00
C1509  C     0.32005   0.84073   0.85095   0.00000  Uiso   1.00
C1510  C     0.20983   0.68601   0.82137   0.00000  Uiso   1.00
C1511  C     0.12350   0.98065   0.84530   0.00000  Uiso   1.00
C1512  C     0.20863   0.97645   0.82403   0.00000  Uiso   1.00
Cu1513 Cu    0.16667   0.83334   0.88022   0.00000  Uiso   1.00
Cu1514 Cu    0.16667   0.83333   0.78645   0.00000  Uiso   1.00
H1515  H     0.24084   0.95776   0.81658   0.00000  Uiso   1.00
H1516  H     0.28364   0.91140   0.89524   0.00000  Uiso   1.00
H1517  H     0.29279   0.87658   0.94385   0.00000  Uiso   1.00
H1518  H     0.00178   0.91886   0.94263   0.00000  Uiso   1.00
H1519  H     0.03297   0.84597   0.91970   0.00000  Uiso   1.00
H1520  H     0.03922   0.88829   0.88288   0.00000  Uiso   1.00
H1521  H     0.27052   0.73036   0.83736   0.00000  Uiso   1.00
H1522  H     0.28783   0.68324   0.80742   0.00000  Uiso   1.00
H1523  H     0.24758   0.71981   0.77547   0.00000  Uiso   1.00
H1524  H     0.06280   0.93632   0.82930   0.00000  Uiso   1.00
H1525  H     0.08576   0.94684   0.89119   0.00000  Uiso   1.00
H1526  H     0.09250   0.70891   0.85009   0.00000  Uiso   1.00
H1527  H     0.04551   0.98343   0.85927   0.00000  Uiso   1.00
H1528  H     0.13200   0.73293   0.67336   0.00000  Uiso   1.00
H1529  H     0.18078   0.74322   0.72083   0.00000  Uiso   1.00
H1530  H     0.11443   0.75743   0.72410   0.00000  Uiso   1.00
H1531  H     0.15255   0.92345   0.94583   0.00000  Uiso   1.00
H1532  H     0.20132   0.93374   0.99331   0.00000  Uiso   1.00
H1533  H     0.21891   0.90924   0.94257   0.00000  Uiso   1.00
H1534  H     0.14407   0.77111   0.94848   0.00000  Uiso   1.00
H1535  H     0.18926   0.89556   0.71819   0.00000  Uiso   1.00
H1536  H     0.04055   0.79009   0.72281   0.00000  Uiso   1.00
H1537  H     0.04969   0.75527   0.77143   0.00000  Uiso   1.00
H1538  H     0.33155   0.74781   0.72403   0.00000  Uiso   1.00
H1539  H     0.29411   0.77838   0.78379   0.00000  Uiso   1.00
H1540  H     0.30036   0.82070   0.74696   0.00000  Uiso   1.00
N1541  N     0.16668   0.83334   0.95069   0.00000  Uiso   1.00
N1542  N     0.16665   0.83332   0.71597   0.00000  Uiso   1.00
O1543  O     0.16666   0.77322   0.87291   0.00000  Uiso   1.00
O1544  O     0.16667   0.89345   0.79375   0.00000  Uiso   1.00
O1545  O     0.16666   0.77321   0.79372   0.00000  Uiso   1.00
O1546  O     0.16667   0.89346   0.87294   0.00000  Uiso   1.00
O1547  O     0.09161   0.83334   0.86379   0.00000  Uiso   1.00
O1548  O     0.24172   0.83333   0.80288   0.00000  Uiso   1.00
O1549  O     0.09161   0.83333   0.78460   0.00000  Uiso   1.00
O1550  O     0.24172   0.83334   0.88207   0.00000  Uiso   1.00
C1551  C     0.50091   0.75422   0.83235   0.00000  Uiso   1.00
C1552  C     0.45803   0.69022   0.84264   0.00000  Uiso   1.00
C1553  C     0.49946   0.95724   0.83617   0.00000  Uiso   1.00
C1554  C     0.50054   0.70943   0.83050   0.00000  Uiso   1.00
C1555  C     0.48832   0.79795   0.68613   0.00000  Uiso   1.00
C1556  C     0.51168   0.86872   0.98054   0.00000  Uiso   1.00
C1557  C     0.48766   0.79875   0.97056   0.00000  Uiso   1.00
C1558  C     0.51234   0.86792   0.69611   0.00000  Uiso   1.00
C1559  C     0.65453   0.79985   0.77244   0.00000  Uiso   1.00
C1560  C     0.35511   0.77161   0.74644   0.00000  Uiso   1.00
C1561  C     0.34547   0.86682   0.89423   0.00000  Uiso   1.00
C1562  C     0.49909   0.91245   0.83432   0.00000  Uiso   1.00
C1563  C     0.64489   0.89506   0.92023   0.00000  Uiso   1.00
C1564  C     0.59003   0.70604   0.80981   0.00000  Uiso   1.00
C1565  C     0.40997   0.96063   0.85686   0.00000  Uiso   1.00
C1566  C     0.47839   0.75597   0.70262   0.00000  Uiso   1.00
C1567  C     0.52161   0.91070   0.96405   0.00000  Uiso   1.00
C1568  C     0.40155   0.83199   0.82129   0.00000  Uiso   1.00
C1569  C     0.59845   0.83468   0.84538   0.00000  Uiso   1.00
C1570  C     0.34662   0.82594   0.81572   0.00000  Uiso   1.00
C1571  C     0.65338   0.84073   0.85095   0.00000  Uiso   1.00
C1572  C     0.54316   0.68601   0.82137   0.00000  Uiso   1.00
C1573  C     0.45684   0.98065   0.84530   0.00000  Uiso   1.00
C1574  C     0.54197   0.97645   0.82403   0.00000  Uiso   1.00
Cu1575 Cu    0.50000   0.83334   0.88022   0.00000  Uiso   1.00
Cu1576 Cu    0.50000   0.83333   0.78645   0.00000  Uiso   1.00
H1577  H     0.57417   0.95776   0.81658   0.00000  Uiso   1.00
H1578  H     0.61697   0.91140   0.89524   0.00000  Uiso   1.00
H1579  H     0.62612   0.87658   0.94385   0.00000  Uiso   1.00
H1580  H     0.33512   0.91886   0.94263   0.00000  Uiso   1.00
H1581  H     0.36630   0.84597   0.91970   0.00000  Uiso   1.00
H1582  H     0.37255   0.88829   0.88288   0.00000  Uiso   1.00
H1583  H     0.60386   0.73036   0.83736   0.00000  Uiso   1.00
H1584  H     0.62117   0.68324   0.80742   0.00000  Uiso   1.00
H1585  H     0.58091   0.71981   0.77547   0.00000  Uiso   1.00
H1586  H     0.39613   0.93632   0.82930   0.00000  Uiso   1.00
H1587  H     0.41909   0.94684   0.89119   0.00000  Uiso   1.00
H1588  H     0.42583   0.70891   0.85009   0.00000  Uiso   1.00
H1589  H     0.37885   0.98343   0.85927   0.00000  Uiso   1.00
H1590  H     0.46534   0.73293   0.67336   0.00000  Uiso   1.00
H1591  H     0.51411   0.74322   0.72083   0.00000  Uiso   1.00
H1592  H     0.44776   0.75743   0.72410   0.00000  Uiso   1.00
H1593  H     0.48588   0.92345   0.94583   0.00000  Uiso   1.00
H1594  H     0.53465   0.93374   0.99331   0.00000  Uiso   1.00
H1595  H     0.55224   0.90924   0.94257   0.00000  Uiso   1.00
H1596  H     0.47740   0.77111   0.94848   0.00000  Uiso   1.00
H1597  H     0.52260   0.89556   0.71819   0.00000  Uiso   1.00
H1598  H     0.37388   0.79009   0.72281   0.00000  Uiso   1.00
H1599  H     0.38303   0.75527   0.77143   0.00000  Uiso   1.00
H1600  H     0.66488   0.74781   0.72403   0.00000  Uiso   1.00
H1601  H     0.62745   0.77838   0.78379   0.00000  Uiso   1.00
H1602  H     0.63370   0.82070   0.74696   0.00000  Uiso   1.00
N1603  N     0.50001   0.83334   0.95069   0.00000  Uiso   1.00
N1604  N     0.49999   0.83332   0.71597   0.00000  Uiso   1.00
O1605  O     0.50000   0.77322   0.87291   0.00000  Uiso   1.00
O1606  O     0.50000   0.89345   0.79375   0.00000  Uiso   1.00
O1607  O     0.50000   0.77321   0.79372   0.00000  Uiso   1.00
O1608  O     0.50000   0.89346   0.87294   0.00000  Uiso   1.00
O1609  O     0.42495   0.83334   0.86379   0.00000  Uiso   1.00
O1610  O     0.57505   0.83333   0.80288   0.00000  Uiso   1.00
O1611  O     0.42494   0.83333   0.78460   0.00000  Uiso   1.00
O1612  O     0.57506   0.83334   0.88207   0.00000  Uiso   1.00
C1613  C     0.83425   0.75422   0.83235   0.00000  Uiso   1.00
C1614  C     0.79137   0.69022   0.84264   0.00000  Uiso   1.00
C1615  C     0.83280   0.95724   0.83617   0.00000  Uiso   1.00
C1616  C     0.83387   0.70943   0.83050   0.00000  Uiso   1.00
C1617  C     0.82165   0.79795   0.68613   0.00000  Uiso   1.00
C1618  C     0.84502   0.86872   0.98054   0.00000  Uiso   1.00
C1619  C     0.82099   0.79875   0.97056   0.00000  Uiso   1.00
C1620  C     0.84567   0.86792   0.69611   0.00000  Uiso   1.00
C1621  C     0.98786   0.79985   0.77244   0.00000  Uiso   1.00
C1622  C     0.68845   0.77161   0.74644   0.00000  Uiso   1.00
C1623  C     0.67881   0.86682   0.89423   0.00000  Uiso   1.00
C1624  C     0.83242   0.91245   0.83432   0.00000  Uiso   1.00
C1625  C     0.97822   0.89506   0.92023   0.00000  Uiso   1.00
C1626  C     0.92337   0.70604   0.80981   0.00000  Uiso   1.00
C1627  C     0.74330   0.96063   0.85686   0.00000  Uiso   1.00
C1628  C     0.81172   0.75597   0.70262   0.00000  Uiso   1.00
C1629  C     0.85495   0.91070   0.96405   0.00000  Uiso   1.00
C1630  C     0.73488   0.83199   0.82129   0.00000  Uiso   1.00
C1631  C     0.93178   0.83468   0.84538   0.00000  Uiso   1.00
C1632  C     0.67995   0.82594   0.81572   0.00000  Uiso   1.00
C1633  C     0.98672   0.84073   0.85095   0.00000  Uiso   1.00
C1634  C     0.87650   0.68601   0.82137   0.00000  Uiso   1.00
C1635  C     0.79017   0.98065   0.84530   0.00000  Uiso   1.00
C1636  C     0.87530   0.97645   0.82403   0.00000  Uiso   1.00
Cu1637 Cu    0.83333   0.83334   0.88022   0.00000  Uiso   1.00
Cu1638 Cu    0.83333   0.83333   0.78645   0.00000  Uiso   1.00
H1639  H     0.90750   0.95776   0.81658   0.00000  Uiso   1.00
H1640  H     0.95030   0.91140   0.89524   0.00000  Uiso   1.00
H1641  H     0.95946   0.87658   0.94385   0.00000  Uiso   1.00
H1642  H     0.66845   0.91886   0.94263   0.00000  Uiso   1.00
H1643  H     0.69964   0.84597   0.91970   0.00000  Uiso   1.00
H1644  H     0.70588   0.88829   0.88288   0.00000  Uiso   1.00
H1645  H     0.93719   0.73036   0.83736   0.00000  Uiso   1.00
H1646  H     0.95450   0.68324   0.80742   0.00000  Uiso   1.00
H1647  H     0.91425   0.71981   0.77547   0.00000  Uiso   1.00
H1648  H     0.72946   0.93632   0.82930   0.00000  Uiso   1.00
H1649  H     0.75243   0.94684   0.89119   0.00000  Uiso   1.00
H1650  H     0.75916   0.70891   0.85009   0.00000  Uiso   1.00
H1651  H     0.71218   0.98343   0.85927   0.00000  Uiso   1.00
H1652  H     0.79867   0.73293   0.67336   0.00000  Uiso   1.00
H1653  H     0.84745   0.74322   0.72083   0.00000  Uiso   1.00
H1654  H     0.78109   0.75743   0.72410   0.00000  Uiso   1.00
H1655  H     0.81922   0.92345   0.94583   0.00000  Uiso   1.00
H1656  H     0.86799   0.93374   0.99331   0.00000  Uiso   1.00
H1657  H     0.88558   0.90924   0.94257   0.00000  Uiso   1.00
H1658  H     0.81074   0.77111   0.94848   0.00000  Uiso   1.00
H1659  H     0.85593   0.89556   0.71819   0.00000  Uiso   1.00
H1660  H     0.70721   0.79009   0.72281   0.00000  Uiso   1.00
H1661  H     0.71636   0.75527   0.77143   0.00000  Uiso   1.00
H1662  H     0.99822   0.74781   0.72403   0.00000  Uiso   1.00
H1663  H     0.96078   0.77838   0.78379   0.00000  Uiso   1.00
H1664  H     0.96703   0.82070   0.74696   0.00000  Uiso   1.00
N1665  N     0.83335   0.83334   0.95069   0.00000  Uiso   1.00
N1666  N     0.83332   0.83332   0.71597   0.00000  Uiso   1.00
O1667  O     0.83333   0.77322   0.87291   0.00000  Uiso   1.00
O1668  O     0.83334   0.89345   0.79375   0.00000  Uiso   1.00
O1669  O     0.83333   0.77321   0.79372   0.00000  Uiso   1.00
O1670  O     0.83334   0.89346   0.87294   0.00000  Uiso   1.00
O1671  O     0.75828   0.83334   0.86379   0.00000  Uiso   1.00
O1672  O     0.90839   0.83333   0.80288   0.00000  Uiso   1.00
O1673  O     0.75828   0.83333   0.78460   0.00000  Uiso   1.00
O1674  O     0.90839   0.83334   0.88207   0.00000  Uiso   1.00
loop_
_geom_bond_atom_site_label_1
_geom_bond_atom_site_label_2
_geom_bond_distance
_geom_bond_site_symmetry_2
_ccdc_geom_bond_type
C1     O57     1.304   .     A
C1     C4      1.443   .     S
C1     O55     1.297   .     A
C2     C4      1.396   .     A
C2     H38     1.085   .     S
C2     C395    1.391   1_545 S
C3     C23     1.408   .     A
C3     C24     1.396   .     A
C3     C12     1.443   .     S
C4     C22     1.408   .     A
C5     N54     1.399   .     A
C5     C16     1.501   .     S
C5     C1123   1.416   1_554 S
C6     N53     1.399   .     A
C6     C17     1.501   .     S
C6     C566    1.416   .     S
C7     N53     1.350   .     A
C7     H46     1.079   .     S
C7     C563    1.416   .     S
C8     H47     1.079   .     S
C8     N54     1.350   .     A
C8     C1122   1.416   1_554 S
C9     H51     1.102   .     S
C9     H52     1.112   .     S
C9     C72     1.524   .     S
C9     C82     1.541   .     S
C10    H48     1.109   .     S
C10    H49     1.111   .     S
C10    C133    1.524   1_455 S
C10    H174    1.111   1_455 S
C11    H31     1.112   .     S
C11    H32     1.102   .     S
C11    C137    1.524   1_455 S
C11    C145    1.541   1_455 S
C12    O58     1.304   .     A
C12    O56     1.297   .     A
C13    H28     1.111   .     S
C13    H29     1.109   .     S
C13    C73     1.524   .     S
C13    H92     1.111   .     S
C14    H34     1.111   .     S
C14    C22     1.502   .     S
C14    H33     1.110   .     S
C14    H35     1.107   .     S
C15    C23     1.502   .     S
C15    H39     1.111   .     S
C15    H37     1.107   .     S
C15    H36     1.110   .     S
C16    H40     1.111   .     S
C16    H42     1.097   .     S
C16    H41     1.107   .     S
C17    H43     1.107   .     S
C17    H45     1.097   .     S
C17    H44     1.111   .     S
C18    O61     1.313   .     A
C18    O59     1.294   .     A
C18    C20     1.463   .     S
C19    O60     1.294   .     A
C19    C21     1.463   .     S
C19    O62     1.313   .     A
C20    C133    1.541   1_455 S
C20    C145    1.386   1_455 S
C21    C73     1.541   .     S
C21    C82     1.386   .     S
C22    C396    1.391   1_545 S
C23    C188    1.391   .     S
C24    H27     1.085   .     S
C24    C208    1.391   .     S
Cu25   O59     1.987   .     S
Cu25   O62     1.994   .     S
Cu25   O58     1.963   .     S
Cu25   Cu26    2.717   .     S
Cu25   O55     1.938   .     S
Cu25   N53     2.042   .     S
Cu26   N54     2.042   .     S
Cu26   O61     1.994   .     S
Cu26   O57     1.963   .     S
Cu26   O60     1.987   .     S
Cu26   O56     1.938   .     S
H30    C137    1.111   1_455 S
H50    C72     1.111   .     S
C63    O119    1.304   .     A
C63    C66     1.443   .     S
C63    O117    1.297   .     A
C64    C66     1.396   .     A
C64    H100    1.085   .     S
C64    C457    1.391   1_545 S
C65    C85     1.408   .     A
C65    C86     1.396   .     A
C65    C74     1.443   .     S
C66    C84     1.408   .     A
C67    N116    1.399   .     A
C67    C78     1.501   .     S
C67    C1185   1.416   1_554 S
C68    N115    1.399   .     A
C68    C79     1.501   .     S
C68    C628    1.416   .     S
C69    N115    1.350   .     A
C69    H108    1.079   .     S
C69    C625    1.416   .     S
C70    H109    1.079   .     S
C70    N116    1.350   .     A
C70    C1184   1.416   1_554 S
C71    H113    1.102   .     S
C71    H114    1.112   .     S
C71    C134    1.524   .     S
C71    C144    1.541   .     S
C72    H110    1.109   .     S
C72    H111    1.111   .     S
C73    H93     1.112   .     S
C73    H94     1.102   .     S
C74    O120    1.304   .     A
C74    O118    1.297   .     A
C75    H90     1.111   .     S
C75    H91     1.109   .     S
C75    C135    1.524   .     S
C75    H154    1.111   .     S
C76    H96     1.111   .     S
C76    C84     1.502   .     S
C76    H95     1.110   .     S
C76    H97     1.107   .     S
C77    C85     1.502   .     S
C77    H101    1.111   .     S
C77    H99     1.107   .     S
C77    H98     1.110   .     S
C78    H102    1.111   .     S
C78    H104    1.097   .     S
C78    H103    1.107   .     S
C79    H105    1.107   .     S
C79    H107    1.097   .     S
C79    H106    1.111   .     S
C80    O123    1.313   .     A
C80    O121    1.294   .     A
C80    C82     1.463   .     S
C81    O122    1.294   .     A
C81    C83     1.463   .     S
C81    O124    1.313   .     A
C83    C135    1.541   .     S
C83    C144    1.386   .     S
C84    C458    1.391   1_545 S
C85    C250    1.391   .     S
C86    H89     1.085   .     S
C86    C270    1.391   .     S
Cu87   O121    1.987   .     S
Cu87   O124    1.994   .     S
Cu87   O120    1.963   .     S
Cu87   Cu88    2.717   .     S
Cu87   O117    1.938   .     S
Cu87   N115    2.042   .     S
Cu88   N116    2.042   .     S
Cu88   O123    1.994   .     S
Cu88   O119    1.963   .     S
Cu88   O122    1.987   .     S
Cu88   O118    1.938   .     S
H112   C134    1.111   .     S
C125   O181    1.304   .     A
C125   C128    1.443   .     S
C125   O179    1.297   .     A
C126   C128    1.396   .     A
C126   H162    1.085   .     S
C126   C519    1.391   1_545 S
C127   C147    1.408   .     A
C127   C148    1.396   .     A
C127   C136    1.443   .     S
C128   C146    1.408   .     A
C129   N178    1.399   .     A
C129   C140    1.501   .     S
C129   C1247   1.416   1_554 S
C130   N177    1.399   .     A
C130   C141    1.501   .     S
C130   C690    1.416   .     S
C131   N177    1.350   .     A
C131   H170    1.079   .     S
C131   C687    1.416   .     S
C132   H171    1.079   .     S
C132   N178    1.350   .     A
C132   C1246   1.416   1_554 S
C133   H175    1.102   .     S
C133   H176    1.112   .     S
C133   C10     1.524   1_655 S
C133   C20     1.541   1_655 S
C134   H172    1.109   .     S
C134   H173    1.111   .     S
C135   H155    1.112   .     S
C135   H156    1.102   .     S
C136   O182    1.304   .     A
C136   O180    1.297   .     A
C137   H152    1.111   .     S
C137   H153    1.109   .     S
C137   C11     1.524   1_655 S
C137   H30     1.111   1_655 S
C138   H158    1.111   .     S
C138   C146    1.502   .     S
C138   H157    1.110   .     S
C138   H159    1.107   .     S
C139   C147    1.502   .     S
C139   H163    1.111   .     S
C139   H161    1.107   .     S
C139   H160    1.110   .     S
C140   H164    1.111   .     S
C140   H166    1.097   .     S
C140   H165    1.107   .     S
C141   H167    1.107   .     S
C141   H169    1.097   .     S
C141   H168    1.111   .     S
C142   O185    1.313   .     A
C142   O183    1.294   .     A
C142   C144    1.463   .     S
C143   O184    1.294   .     A
C143   C145    1.463   .     S
C143   O186    1.313   .     A
C145   C11     1.541   1_655 S
C145   C20     1.386   1_655 S
C146   C520    1.391   1_545 S
C147   C312    1.391   .     S
C148   H151    1.085   .     S
C148   C332    1.391   .     S
Cu149  O183    1.987   .     S
Cu149  O186    1.994   .     S
Cu149  O182    1.963   .     S
Cu149  Cu150   2.717   .     S
Cu149  O179    1.938   .     S
Cu149  N177    2.042   .     S
Cu150  N178    2.042   .     S
Cu150  O185    1.994   .     S
Cu150  O181    1.963   .     S
Cu150  O184    1.987   .     S
Cu150  O180    1.938   .     S
H174   C10     1.111   1_655 S
C187   O243    1.304   .     A
C187   C190    1.443   .     S
C187   O241    1.297   .     A
C188   C190    1.396   .     A
C188   H224    1.085   .     S
C189   C209    1.408   .     A
C189   C210    1.396   .     A
C189   C198    1.443   .     S
C190   C208    1.408   .     A
C191   N240    1.399   .     A
C191   C202    1.501   .     S
C191   C1309   1.416   1_554 S
C192   N239    1.399   .     A
C192   C203    1.501   .     S
C192   C752    1.416   .     S
C193   N239    1.350   .     A
C193   H232    1.079   .     S
C193   C749    1.416   .     S
C194   H233    1.079   .     S
C194   N240    1.350   .     A
C194   C1308   1.416   1_554 S
C195   H237    1.102   .     S
C195   H238    1.112   .     S
C195   C258    1.524   .     S
C195   C268    1.541   .     S
C196   H234    1.109   .     S
C196   H235    1.111   .     S
C196   C319    1.524   1_455 S
C196   H360    1.111   1_455 S
C197   H217    1.112   .     S
C197   H218    1.102   .     S
C197   C323    1.524   1_455 S
C197   C331    1.541   1_455 S
C198   O244    1.304   .     A
C198   O242    1.297   .     A
C199   H214    1.111   .     S
C199   H215    1.109   .     S
C199   C259    1.524   .     S
C199   H278    1.111   .     S
C200   H220    1.111   .     S
C200   C208    1.502   .     S
C200   H219    1.110   .     S
C200   H221    1.107   .     S
C201   C209    1.502   .     S
C201   H225    1.111   .     S
C201   H223    1.107   .     S
C201   H222    1.110   .     S
C202   H226    1.111   .     S
C202   H228    1.097   .     S
C202   H227    1.107   .     S
C203   H229    1.107   .     S
C203   H231    1.097   .     S
C203   H230    1.111   .     S
C204   O247    1.313   .     A
C204   O245    1.294   .     A
C204   C206    1.463   .     S
C205   O246    1.294   .     A
C205   C207    1.463   .     S
C205   O248    1.313   .     A
C206   C319    1.541   1_455 S
C206   C331    1.386   1_455 S
C207   C259    1.541   .     S
C207   C268    1.386   .     S
C209   C374    1.391   .     S
C210   H213    1.085   .     S
C210   C394    1.391   .     S
Cu211  O245    1.987   .     S
Cu211  O248    1.994   .     S
Cu211  O244    1.963   .     S
Cu211  Cu212   2.717   .     S
Cu211  O241    1.938   .     S
Cu211  N239    2.042   .     S
Cu212  N240    2.042   .     S
Cu212  O247    1.994   .     S
Cu212  O243    1.963   .     S
Cu212  O246    1.987   .     S
Cu212  O242    1.938   .     S
H216   C323    1.111   1_455 S
H236   C258    1.111   .     S
C249   O305    1.304   .     A
C249   C252    1.443   .     S
C249   O303    1.297   .     A
C250   C252    1.396   .     A
C250   H286    1.085   .     S
C251   C271    1.408   .     A
C251   C272    1.396   .     A
C251   C260    1.443   .     S
C252   C270    1.408   .     A
C253   N302    1.399   .     A
C253   C264    1.501   .     S
C253   C1371   1.416   1_554 S
C254   N301    1.399   .     A
C254   C265    1.501   .     S
C254   C814    1.416   .     S
C255   N301    1.350   .     A
C255   H294    1.079   .     S
C255   C811    1.416   .     S
C256   H295    1.079   .     S
C256   N302    1.350   .     A
C256   C1370   1.416   1_554 S
C257   H299    1.102   .     S
C257   H300    1.112   .     S
C257   C320    1.524   .     S
C257   C330    1.541   .     S
C258   H296    1.109   .     S
C258   H297    1.111   .     S
C259   H279    1.112   .     S
C259   H280    1.102   .     S
C260   O306    1.304   .     A
C260   O304    1.297   .     A
C261   H276    1.111   .     S
C261   H277    1.109   .     S
C261   C321    1.524   .     S
C261   H340    1.111   .     S
C262   H282    1.111   .     S
C262   C270    1.502   .     S
C262   H281    1.110   .     S
C262   H283    1.107   .     S
C263   C271    1.502   .     S
C263   H287    1.111   .     S
C263   H285    1.107   .     S
C263   H284    1.110   .     S
C264   H288    1.111   .     S
C264   H290    1.097   .     S
C264   H289    1.107   .     S
C265   H291    1.107   .     S
C265   H293    1.097   .     S
C265   H292    1.111   .     S
C266   O309    1.313   .     A
C266   O307    1.294   .     A
C266   C268    1.463   .     S
C267   O308    1.294   .     A
C267   C269    1.463   .     S
C267   O310    1.313   .     A
C269   C321    1.541   .     S
C269   C330    1.386   .     S
C271   C436    1.391   .     S
C272   H275    1.085   .     S
C272   C456    1.391   .     S
Cu273  O307    1.987   .     S
Cu273  O310    1.994   .     S
Cu273  O306    1.963   .     S
Cu273  Cu274   2.717   .     S
Cu273  O303    1.938   .     S
Cu273  N301    2.042   .     S
Cu274  N302    2.042   .     S
Cu274  O309    1.994   .     S
Cu274  O305    1.963   .     S
Cu274  O308    1.987   .     S
Cu274  O304    1.938   .     S
H298   C320    1.111   .     S
C311   O367    1.304   .     A
C311   C314    1.443   .     S
C311   O365    1.297   .     A
C312   C314    1.396   .     A
C312   H348    1.085   .     S
C313   C333    1.408   .     A
C313   C334    1.396   .     A
C313   C322    1.443   .     S
C314   C332    1.408   .     A
C315   N364    1.399   .     A
C315   C326    1.501   .     S
C315   C1433   1.416   1_554 S
C316   N363    1.399   .     A
C316   C327    1.501   .     S
C316   C876    1.416   .     S
C317   N363    1.350   .     A
C317   H356    1.079   .     S
C317   C873    1.416   .     S
C318   H357    1.079   .     S
C318   N364    1.350   .     A
C318   C1432   1.416   1_554 S
C319   H361    1.102   .     S
C319   H362    1.112   .     S
C319   C196    1.524   1_655 S
C319   C206    1.541   1_655 S
C320   H358    1.109   .     S
C320   H359    1.111   .     S
C321   H341    1.112   .     S
C321   H342    1.102   .     S
C322   O368    1.304   .     A
C322   O366    1.297   .     A
C323   H338    1.111   .     S
C323   H339    1.109   .     S
C323   C197    1.524   1_655 S
C323   H216    1.111   1_655 S
C324   H344    1.111   .     S
C324   C332    1.502   .     S
C324   H343    1.110   .     S
C324   H345    1.107   .     S
C325   C333    1.502   .     S
C325   H349    1.111   .     S
C325   H347    1.107   .     S
C325   H346    1.110   .     S
C326   H350    1.111   .     S
C326   H352    1.097   .     S
C326   H351    1.107   .     S
C327   H353    1.107   .     S
C327   H355    1.097   .     S
C327   H354    1.111   .     S
C328   O371    1.313   .     A
C328   O369    1.294   .     A
C328   C330    1.463   .     S
C329   O370    1.294   .     A
C329   C331    1.463   .     S
C329   O372    1.313   .     A
C331   C197    1.541   1_655 S
C331   C206    1.386   1_655 S
C333   C498    1.391   .     S
C334   H337    1.085   .     S
C334   C518    1.391   .     S
Cu335  O369    1.987   .     S
Cu335  O372    1.994   .     S
Cu335  O368    1.963   .     S
Cu335  Cu336   2.717   .     S
Cu335  O365    1.938   .     S
Cu335  N363    2.042   .     S
Cu336  N364    2.042   .     S
Cu336  O371    1.994   .     S
Cu336  O367    1.963   .     S
Cu336  O370    1.987   .     S
Cu336  O366    1.938   .     S
H360   C196    1.111   1_655 S
C373   O429    1.304   .     A
C373   C376    1.443   .     S
C373   O427    1.297   .     A
C374   C376    1.396   .     A
C374   H410    1.085   .     S
C375   C395    1.408   .     A
C375   C396    1.396   .     A
C375   C384    1.443   .     S
C376   C394    1.408   .     A
C377   N426    1.399   .     A
C377   C388    1.501   .     S
C377   C1495   1.416   1_554 S
C378   N425    1.399   .     A
C378   C389    1.501   .     S
C378   C938    1.416   .     S
C379   N425    1.350   .     A
C379   H418    1.079   .     S
C379   C935    1.416   .     S
C380   H419    1.079   .     S
C380   N426    1.350   .     A
C380   C1494   1.416   1_554 S
C381   H423    1.102   .     S
C381   H424    1.112   .     S
C381   C444    1.524   .     S
C381   C454    1.541   .     S
C382   H420    1.109   .     S
C382   H421    1.111   .     S
C382   C505    1.524   1_455 S
C382   H546    1.111   1_455 S
C383   H403    1.112   .     S
C383   H404    1.102   .     S
C383   C509    1.524   1_455 S
C383   C517    1.541   1_455 S
C384   O430    1.304   .     A
C384   O428    1.297   .     A
C385   H400    1.111   .     S
C385   H401    1.109   .     S
C385   C445    1.524   .     S
C385   H464    1.111   .     S
C386   H406    1.111   .     S
C386   C394    1.502   .     S
C386   H405    1.110   .     S
C386   H407    1.107   .     S
C387   C395    1.502   .     S
C387   H411    1.111   .     S
C387   H409    1.107   .     S
C387   H408    1.110   .     S
C388   H412    1.111   .     S
C388   H414    1.097   .     S
C388   H413    1.107   .     S
C389   H415    1.107   .     S
C389   H417    1.097   .     S
C389   H416    1.111   .     S
C390   O433    1.313   .     A
C390   O431    1.294   .     A
C390   C392    1.463   .     S
C391   O432    1.294   .     A
C391   C393    1.463   .     S
C391   O434    1.313   .     A
C392   C505    1.541   1_455 S
C392   C517    1.386   1_455 S
C393   C445    1.541   .     S
C393   C454    1.386   .     S
C395   C2      1.391   1_565 S
C396   H399    1.085   .     S
C396   C22     1.391   1_565 S
Cu397  O431    1.987   .     S
Cu397  O434    1.994   .     S
Cu397  O430    1.963   .     S
Cu397  Cu398   2.717   .     S
Cu397  O427    1.938   .     S
Cu397  N425    2.042   .     S
Cu398  N426    2.042   .     S
Cu398  O433    1.994   .     S
Cu398  O429    1.963   .     S
Cu398  O432    1.987   .     S
Cu398  O428    1.938   .     S
H402   C509    1.111   1_455 S
H422   C444    1.111   .     S
C435   O491    1.304   .     A
C435   C438    1.443   .     S
C435   O489    1.297   .     A
C436   C438    1.396   .     A
C436   H472    1.085   .     S
C437   C457    1.408   .     A
C437   C458    1.396   .     A
C437   C446    1.443   .     S
C438   C456    1.408   .     A
C439   N488    1.399   .     A
C439   C450    1.501   .     S
C439   C1557   1.416   1_554 S
C440   N487    1.399   .     A
C440   C451    1.501   .     S
C440   C1000   1.416   .     S
C441   N487    1.350   .     A
C441   H480    1.079   .     S
C441   C997    1.416   .     S
C442   H481    1.079   .     S
C442   N488    1.350   .     A
C442   C1556   1.416   1_554 S
C443   H485    1.102   .     S
C443   H486    1.112   .     S
C443   C506    1.524   .     S
C443   C516    1.541   .     S
C444   H482    1.109   .     S
C444   H483    1.111   .     S
C445   H465    1.112   .     S
C445   H466    1.102   .     S
C446   O492    1.304   .     A
C446   O490    1.297   .     A
C447   H462    1.111   .     S
C447   H463    1.109   .     S
C447   C507    1.524   .     S
C447   H526    1.111   .     S
C448   H468    1.111   .     S
C448   C456    1.502   .     S
C448   H467    1.110   .     S
C448   H469    1.107   .     S
C449   C457    1.502   .     S
C449   H473    1.111   .     S
C449   H471    1.107   .     S
C449   H470    1.110   .     S
C450   H474    1.111   .     S
C450   H476    1.097   .     S
C450   H475    1.107   .     S
C451   H477    1.107   .     S
C451   H479    1.097   .     S
C451   H478    1.111   .     S
C452   O495    1.313   .     A
C452   O493    1.294   .     A
C452   C454    1.463   .     S
C453   O494    1.294   .     A
C453   C455    1.463   .     S
C453   O496    1.313   .     A
C455   C507    1.541   .     S
C455   C516    1.386   .     S
C457   C64     1.391   1_565 S
C458   H461    1.085   .     S
C458   C84     1.391   1_565 S
Cu459  O493    1.987   .     S
Cu459  O496    1.994   .     S
Cu459  O492    1.963   .     S
Cu459  Cu460   2.717   .     S
Cu459  O489    1.938   .     S
Cu459  N487    2.042   .     S
Cu460  N488    2.042   .     S
Cu460  O495    1.994   .     S
Cu460  O491    1.963   .     S
Cu460  O494    1.987   .     S
Cu460  O490    1.938   .     S
H484   C506    1.111   .     S
C497   O553    1.304   .     A
C497   C500    1.443   .     S
C497   O551    1.297   .     A
C498   C500    1.396   .     A
C498   H534    1.085   .     S
C499   C519    1.408   .     A
C499   C520    1.396   .     A
C499   C508    1.443   .     S
C500   C518    1.408   .     A
C501   N550    1.399   .     A
C501   C512    1.501   .     S
C501   C1619   1.416   1_554 S
C502   N549    1.399   .     A
C502   C513    1.501   .     S
C502   C1062   1.416   .     S
C503   N549    1.350   .     A
C503   H542    1.079   .     S
C503   C1059   1.416   .     S
C504   H543    1.079   .     S
C504   N550    1.350   .     A
C504   C1618   1.416   1_554 S
C505   H547    1.102   .     S
C505   H548    1.112   .     S
C505   C382    1.524   1_655 S
C505   C392    1.541   1_655 S
C506   H544    1.109   .     S
C506   H545    1.111   .     S
C507   H527    1.112   .     S
C507   H528    1.102   .     S
C508   O554    1.304   .     A
C508   O552    1.297   .     A
C509   H524    1.111   .     S
C509   H525    1.109   .     S
C509   C383    1.524   1_655 S
C509   H402    1.111   1_655 S
C510   H530    1.111   .     S
C510   C518    1.502   .     S
C510   H529    1.110   .     S
C510   H531    1.107   .     S
C511   C519    1.502   .     S
C511   H535    1.111   .     S
C511   H533    1.107   .     S
C511   H532    1.110   .     S
C512   H536    1.111   .     S
C512   H538    1.097   .     S
C512   H537    1.107   .     S
C513   H539    1.107   .     S
C513   H541    1.097   .     S
C513   H540    1.111   .     S
C514   O557    1.313   .     A
C514   O555    1.294   .     A
C514   C516    1.463   .     S
C515   O556    1.294   .     A
C515   C517    1.463   .     S
C515   O558    1.313   .     A
C517   C383    1.541   1_655 S
C517   C392    1.386   1_655 S
C519   C126    1.391   1_565 S
C520   H523    1.085   .     S
C520   C146    1.391   1_565 S
Cu521  O555    1.987   .     S
Cu521  O558    1.994   .     S
Cu521  O554    1.963   .     S
Cu521  Cu522   2.717   .     S
Cu521  O551    1.938   .     S
Cu521  N549    2.042   .     S
Cu522  N550    2.042   .     S
Cu522  O557    1.994   .     S
Cu522  O553    1.963   .     S
Cu522  O556    1.987   .     S
Cu522  O552    1.938   .     S
H546   C382    1.111   1_655 S
C559   O615    1.304   .     A
C559   C562    1.443   .     S
C559   O613    1.297   .     A
C560   C562    1.396   .     A
C560   H596    1.085   .     S
C560   C953    1.391   1_545 S
C561   C581    1.408   .     A
C561   C582    1.396   .     A
C561   C570    1.443   .     S
C562   C580    1.408   .     A
C563   N612    1.399   .     A
C563   C574    1.501   .     S
C564   N611    1.399   .     A
C564   C575    1.501   .     S
C564   C1124   1.416   .     S
C565   N611    1.350   .     A
C565   H604    1.079   .     S
C565   C1121   1.416   .     S
C566   H605    1.079   .     S
C566   N612    1.350   .     A
C567   H609    1.102   .     S
C567   H610    1.112   .     S
C567   C630    1.524   .     S
C567   C640    1.541   .     S
C568   H606    1.109   .     S
C568   H607    1.111   .     S
C568   C691    1.524   1_455 S
C568   H732    1.111   1_455 S
C569   H589    1.112   .     S
C569   H590    1.102   .     S
C569   C695    1.524   1_455 S
C569   C703    1.541   1_455 S
C570   O616    1.304   .     A
C570   O614    1.297   .     A
C571   H586    1.111   .     S
C571   H587    1.109   .     S
C571   C631    1.524   .     S
C571   H650    1.111   .     S
C572   H592    1.111   .     S
C572   C580    1.502   .     S
C572   H591    1.110   .     S
C572   H593    1.107   .     S
C573   C581    1.502   .     S
C573   H597    1.111   .     S
C573   H595    1.107   .     S
C573   H594    1.110   .     S
C574   H598    1.111   .     S
C574   H600    1.097   .     S
C574   H599    1.107   .     S
C575   H601    1.107   .     S
C575   H603    1.097   .     S
C575   H602    1.111   .     S
C576   O619    1.313   .     A
C576   O617    1.294   .     A
C576   C578    1.463   .     S
C577   O618    1.294   .     A
C577   C579    1.463   .     S
C577   O620    1.313   .     A
C578   C691    1.541   1_455 S
C578   C703    1.386   1_455 S
C579   C631    1.541   .     S
C579   C640    1.386   .     S
C580   C954    1.391   1_545 S
C581   C746    1.391   .     S
C582   H585    1.085   .     S
C582   C766    1.391   .     S
Cu583  O617    1.987   .     S
Cu583  O620    1.994   .     S
Cu583  O616    1.963   .     S
Cu583  Cu584   2.717   .     S
Cu583  O613    1.938   .     S
Cu583  N611    2.042   .     S
Cu584  N612    2.042   .     S
Cu584  O619    1.994   .     S
Cu584  O615    1.963   .     S
Cu584  O618    1.987   .     S
Cu584  O614    1.938   .     S
H588   C695    1.111   1_455 S
H608   C630    1.111   .     S
C621   O677    1.304   .     A
C621   C624    1.443   .     S
C621   O675    1.297   .     A
C622   C624    1.396   .     A
C622   H658    1.085   .     S
C622   C1015   1.391   1_545 S
C623   C643    1.408   .     A
C623   C644    1.396   .     A
C623   C632    1.443   .     S
C624   C642    1.408   .     A
C625   N674    1.399   .     A
C625   C636    1.501   .     S
C626   N673    1.399   .     A
C626   C637    1.501   .     S
C626   C1186   1.416   .     S
C627   N673    1.350   .     A
C627   H666    1.079   .     S
C627   C1183   1.416   .     S
C628   H667    1.079   .     S
C628   N674    1.350   .     A
C629   H671    1.102   .     S
C629   H672    1.112   .     S
C629   C692    1.524   .     S
C629   C702    1.541   .     S
C630   H668    1.109   .     S
C630   H669    1.111   .     S
C631   H651    1.112   .     S
C631   H652    1.102   .     S
C632   O678    1.304   .     A
C632   O676    1.297   .     A
C633   H648    1.111   .     S
C633   H649    1.109   .     S
C633   C693    1.524   .     S
C633   H712    1.111   .     S
C634   H654    1.111   .     S
C634   C642    1.502   .     S
C634   H653    1.110   .     S
C634   H655    1.107   .     S
C635   C643    1.502   .     S
C635   H659    1.111   .     S
C635   H657    1.107   .     S
C635   H656    1.110   .     S
C636   H660    1.111   .     S
C636   H662    1.097   .     S
C636   H661    1.107   .     S
C637   H663    1.107   .     S
C637   H665    1.097   .     S
C637   H664    1.111   .     S
C638   O681    1.313   .     A
C638   O679    1.294   .     A
C638   C640    1.463   .     S
C639   O680    1.294   .     A
C639   C641    1.463   .     S
C639   O682    1.313   .     A
C641   C693    1.541   .     S
C641   C702    1.386   .     S
C642   C1016   1.391   1_545 S
C643   C808    1.391   .     S
C644   H647    1.085   .     S
C644   C828    1.391   .     S
Cu645  O679    1.987   .     S
Cu645  O682    1.994   .     S
Cu645  O678    1.963   .     S
Cu645  Cu646   2.717   .     S
Cu645  O675    1.938   .     S
Cu645  N673    2.042   .     S
Cu646  N674    2.042   .     S
Cu646  O681    1.994   .     S
Cu646  O677    1.963   .     S
Cu646  O680    1.987   .     S
Cu646  O676    1.938   .     S
H670   C692    1.111   .     S
C683   O739    1.304   .     A
C683   C686    1.443   .     S
C683   O737    1.297   .     A
C684   C686    1.396   .     A
C684   H720    1.085   .     S
C684   C1077   1.391   1_545 S
C685   C705    1.408   .     A
C685   C706    1.396   .     A
C685   C694    1.443   .     S
C686   C704    1.408   .     A
C687   N736    1.399   .     A
C687   C698    1.501   .     S
C688   N735    1.399   .     A
C688   C699    1.501   .     S
C688   C1248   1.416   .     S
C689   N735    1.350   .     A
C689   H728    1.079   .     S
C689   C1245   1.416   .     S
C690   H729    1.079   .     S
C690   N736    1.350   .     A
C691   H733    1.102   .     S
C691   H734    1.112   .     S
C691   C568    1.524   1_655 S
C691   C578    1.541   1_655 S
C692   H730    1.109   .     S
C692   H731    1.111   .     S
C693   H713    1.112   .     S
C693   H714    1.102   .     S
C694   O740    1.304   .     A
C694   O738    1.297   .     A
C695   H710    1.111   .     S
C695   H711    1.109   .     S
C695   C569    1.524   1_655 S
C695   H588    1.111   1_655 S
C696   H716    1.111   .     S
C696   C704    1.502   .     S
C696   H715    1.110   .     S
C696   H717    1.107   .     S
C697   C705    1.502   .     S
C697   H721    1.111   .     S
C697   H719    1.107   .     S
C697   H718    1.110   .     S
C698   H722    1.111   .     S
C698   H724    1.097   .     S
C698   H723    1.107   .     S
C699   H725    1.107   .     S
C699   H727    1.097   .     S
C699   H726    1.111   .     S
C700   O743    1.313   .     A
C700   O741    1.294   .     A
C700   C702    1.463   .     S
C701   O742    1.294   .     A
C701   C703    1.463   .     S
C701   O744    1.313   .     A
C703   C569    1.541   1_655 S
C703   C578    1.386   1_655 S
C704   C1078   1.391   1_545 S
C705   C870    1.391   .     S
C706   H709    1.085   .     S
C706   C890    1.391   .     S
Cu707  O741    1.987   .     S
Cu707  O744    1.994   .     S
Cu707  O740    1.963   .     S
Cu707  Cu708   2.717   .     S
Cu707  O737    1.938   .     S
Cu707  N735    2.042   .     S
Cu708  N736    2.042   .     S
Cu708  O743    1.994   .     S
Cu708  O739    1.963   .     S
Cu708  O742    1.987   .     S
Cu708  O738    1.938   .     S
H732   C568    1.111   1_655 S
C745   O801    1.304   .     A
C745   C748    1.443   .     S
C745   O799    1.297   .     A
C746   C748    1.396   .     A
C746   H782    1.085   .     S
C747   C767    1.408   .     A
C747   C768    1.396   .     A
C747   C756    1.443   .     S
C748   C766    1.408   .     A
C749   N798    1.399   .     A
C749   C760    1.501   .     S
C750   N797    1.399   .     A
C750   C761    1.501   .     S
C750   C1310   1.416   .     S
C751   N797    1.350   .     A
C751   H790    1.079   .     S
C751   C1307   1.416   .     S
C752   H791    1.079   .     S
C752   N798    1.350   .     A
C753   H795    1.102   .     S
C753   H796    1.112   .     S
C753   C816    1.524   .     S
C753   C826    1.541   .     S
C754   H792    1.109   .     S
C754   H793    1.111   .     S
C754   C877    1.524   1_455 S
C754   H918    1.111   1_455 S
C755   H775    1.112   .     S
C755   H776    1.102   .     S
C755   C881    1.524   1_455 S
C755   C889    1.541   1_455 S
C756   O802    1.304   .     A
C756   O800    1.297   .     A
C757   H772    1.111   .     S
C757   H773    1.109   .     S
C757   C817    1.524   .     S
C757   H836    1.111   .     S
C758   H778    1.111   .     S
C758   C766    1.502   .     S
C758   H777    1.110   .     S
C758   H779    1.107   .     S
C759   C767    1.502   .     S
C759   H783    1.111   .     S
C759   H781    1.107   .     S
C759   H780    1.110   .     S
C760   H784    1.111   .     S
C760   H786    1.097   .     S
C760   H785    1.107   .     S
C761   H787    1.107   .     S
C761   H789    1.097   .     S
C761   H788    1.111   .     S
C762   O805    1.313   .     A
C762   O803    1.294   .     A
C762   C764    1.463   .     S
C763   O804    1.294   .     A
C763   C765    1.463   .     S
C763   O806    1.313   .     A
C764   C877    1.541   1_455 S
C764   C889    1.386   1_455 S
C765   C817    1.541   .     S
C765   C826    1.386   .     S
C767   C932    1.391   .     S
C768   H771    1.085   .     S
C768   C952    1.391   .     S
Cu769  O803    1.987   .     S
Cu769  O806    1.994   .     S
Cu769  O802    1.963   .     S
Cu769  Cu770   2.717   .     S
Cu769  O799    1.938   .     S
Cu769  N797    2.042   .     S
Cu770  N798    2.042   .     S
Cu770  O805    1.994   .     S
Cu770  O801    1.963   .     S
Cu770  O804    1.987   .     S
Cu770  O800    1.938   .     S
H774   C881    1.111   1_455 S
H794   C816    1.111   .     S
C807   O863    1.304   .     A
C807   C810    1.443   .     S
C807   O861    1.297   .     A
C808   C810    1.396   .     A
C808   H844    1.085   .     S
C809   C829    1.408   .     A
C809   C830    1.396   .     A
C809   C818    1.443   .     S
C810   C828    1.408   .     A
C811   N860    1.399   .     A
C811   C822    1.501   .     S
C812   N859    1.399   .     A
C812   C823    1.501   .     S
C812   C1372   1.416   .     S
C813   N859    1.350   .     A
C813   H852    1.079   .     S
C813   C1369   1.416   .     S
C814   H853    1.079   .     S
C814   N860    1.350   .     A
C815   H857    1.102   .     S
C815   H858    1.112   .     S
C815   C878    1.524   .     S
C815   C888    1.541   .     S
C816   H854    1.109   .     S
C816   H855    1.111   .     S
C817   H837    1.112   .     S
C817   H838    1.102   .     S
C818   O864    1.304   .     A
C818   O862    1.297   .     A
C819   H834    1.111   .     S
C819   H835    1.109   .     S
C819   C879    1.524   .     S
C819   H898    1.111   .     S
C820   H840    1.111   .     S
C820   C828    1.502   .     S
C820   H839    1.110   .     S
C820   H841    1.107   .     S
C821   C829    1.502   .     S
C821   H845    1.111   .     S
C821   H843    1.107   .     S
C821   H842    1.110   .     S
C822   H846    1.111   .     S
C822   H848    1.097   .     S
C822   H847    1.107   .     S
C823   H849    1.107   .     S
C823   H851    1.097   .     S
C823   H850    1.111   .     S
C824   O867    1.313   .     A
C824   O865    1.294   .     A
C824   C826    1.463   .     S
C825   O866    1.294   .     A
C825   C827    1.463   .     S
C825   O868    1.313   .     A
C827   C879    1.541   .     S
C827   C888    1.386   .     S
C829   C994    1.391   .     S
C830   H833    1.085   .     S
C830   C1014   1.391   .     S
Cu831  O865    1.987   .     S
Cu831  O868    1.994   .     S
Cu831  O864    1.963   .     S
Cu831  Cu832   2.717   .     S
Cu831  O861    1.938   .     S
Cu831  N859    2.042   .     S
Cu832  N860    2.042   .     S
Cu832  O867    1.994   .     S
Cu832  O863    1.963   .     S
Cu832  O866    1.987   .     S
Cu832  O862    1.938   .     S
H856   C878    1.111   .     S
C869   O925    1.304   .     A
C869   C872    1.443   .     S
C869   O923    1.297   .     A
C870   C872    1.396   .     A
C870   H906    1.085   .     S
C871   C891    1.408   .     A
C871   C892    1.396   .     A
C871   C880    1.443   .     S
C872   C890    1.408   .     A
C873   N922    1.399   .     A
C873   C884    1.501   .     S
C874   N921    1.399   .     A
C874   C885    1.501   .     S
C874   C1434   1.416   .     S
C875   N921    1.350   .     A
C875   H914    1.079   .     S
C875   C1431   1.416   .     S
C876   H915    1.079   .     S
C876   N922    1.350   .     A
C877   H919    1.102   .     S
C877   H920    1.112   .     S
C877   C754    1.524   1_655 S
C877   C764    1.541   1_655 S
C878   H916    1.109   .     S
C878   H917    1.111   .     S
C879   H899    1.112   .     S
C879   H900    1.102   .     S
C880   O926    1.304   .     A
C880   O924    1.297   .     A
C881   H896    1.111   .     S
C881   H897    1.109   .     S
C881   C755    1.524   1_655 S
C881   H774    1.111   1_655 S
C882   H902    1.111   .     S
C882   C890    1.502   .     S
C882   H901    1.110   .     S
C882   H903    1.107   .     S
C883   C891    1.502   .     S
C883   H907    1.111   .     S
C883   H905    1.107   .     S
C883   H904    1.110   .     S
C884   H908    1.111   .     S
C884   H910    1.097   .     S
C884   H909    1.107   .     S
C885   H911    1.107   .     S
C885   H913    1.097   .     S
C885   H912    1.111   .     S
C886   O929    1.313   .     A
C886   O927    1.294   .     A
C886   C888    1.463   .     S
C887   O928    1.294   .     A
C887   C889    1.463   .     S
C887   O930    1.313   .     A
C889   C755    1.541   1_655 S
C889   C764    1.386   1_655 S
C891   C1056   1.391   .     S
C892   H895    1.085   .     S
C892   C1076   1.391   .     S
Cu893  O927    1.987   .     S
Cu893  O930    1.994   .     S
Cu893  O926    1.963   .     S
Cu893  Cu894   2.717   .     S
Cu893  O923    1.938   .     S
Cu893  N921    2.042   .     S
Cu894  N922    2.042   .     S
Cu894  O929    1.994   .     S
Cu894  O925    1.963   .     S
Cu894  O928    1.987   .     S
Cu894  O924    1.938   .     S
H918   C754    1.111   1_655 S
C931   O987    1.304   .     A
C931   C934    1.443   .     S
C931   O985    1.297   .     A
C932   C934    1.396   .     A
C932   H968    1.085   .     S
C933   C953    1.408   .     A
C933   C954    1.396   .     A
C933   C942    1.443   .     S
C934   C952    1.408   .     A
C935   N984    1.399   .     A
C935   C946    1.501   .     S
C936   N983    1.399   .     A
C936   C947    1.501   .     S
C936   C1496   1.416   .     S
C937   N983    1.350   .     A
C937   H976    1.079   .     S
C937   C1493   1.416   .     S
C938   H977    1.079   .     S
C938   N984    1.350   .     A
C939   H981    1.102   .     S
C939   H982    1.112   .     S
C939   C1002   1.524   .     S
C939   C1012   1.541   .     S
C940   H978    1.109   .     S
C940   H979    1.111   .     S
C940   C1063   1.524   1_455 S
C940   H1104   1.111   1_455 S
C941   H961    1.112   .     S
C941   H962    1.102   .     S
C941   C1067   1.524   1_455 S
C941   C1075   1.541   1_455 S
C942   O988    1.304   .     A
C942   O986    1.297   .     A
C943   H958    1.111   .     S
C943   H959    1.109   .     S
C943   C1003   1.524   .     S
C943   H1022   1.111   .     S
C944   H964    1.111   .     S
C944   C952    1.502   .     S
C944   H963    1.110   .     S
C944   H965    1.107   .     S
C945   C953    1.502   .     S
C945   H969    1.111   .     S
C945   H967    1.107   .     S
C945   H966    1.110   .     S
C946   H970    1.111   .     S
C946   H972    1.097   .     S
C946   H971    1.107   .     S
C947   H973    1.107   .     S
C947   H975    1.097   .     S
C947   H974    1.111   .     S
C948   O991    1.313   .     A
C948   O989    1.294   .     A
C948   C950    1.463   .     S
C949   O990    1.294   .     A
C949   C951    1.463   .     S
C949   O992    1.313   .     A
C950   C1063   1.541   1_455 S
C950   C1075   1.386   1_455 S
C951   C1003   1.541   .     S
C951   C1012   1.386   .     S
C953   C560    1.391   1_565 S
C954   H957    1.085   .     S
C954   C580    1.391   1_565 S
Cu955  O989    1.987   .     S
Cu955  O992    1.994   .     S
Cu955  O988    1.963   .     S
Cu955  Cu956   2.717   .     S
Cu955  O985    1.938   .     S
Cu955  N983    2.042   .     S
Cu956  N984    2.042   .     S
Cu956  O991    1.994   .     S
Cu956  O987    1.963   .     S
Cu956  O990    1.987   .     S
Cu956  O986    1.938   .     S
H960   C1067   1.111   1_455 S
H980   C1002   1.111   .     S
C993   O1049   1.304   .     A
C993   C996    1.443   .     S
C993   O1047   1.297   .     A
C994   C996    1.396   .     A
C994   H1030   1.085   .     S
C995   C1015   1.408   .     A
C995   C1016   1.396   .     A
C995   C1004   1.443   .     S
C996   C1014   1.408   .     A
C997   N1046   1.399   .     A
C997   C1008   1.501   .     S
C998   N1045   1.399   .     A
C998   C1009   1.501   .     S
C998   C1558   1.416   .     S
C999   N1045   1.350   .     A
C999   H1038   1.079   .     S
C999   C1555   1.416   .     S
C1000  H1039   1.079   .     S
C1000  N1046   1.350   .     A
C1001  H1043   1.102   .     S
C1001  H1044   1.112   .     S
C1001  C1064   1.524   .     S
C1001  C1074   1.541   .     S
C1002  H1040   1.109   .     S
C1002  H1041   1.111   .     S
C1003  H1023   1.112   .     S
C1003  H1024   1.102   .     S
C1004  O1050   1.304   .     A
C1004  O1048   1.297   .     A
C1005  H1020   1.111   .     S
C1005  H1021   1.109   .     S
C1005  C1065   1.524   .     S
C1005  H1084   1.111   .     S
C1006  H1026   1.111   .     S
C1006  C1014   1.502   .     S
C1006  H1025   1.110   .     S
C1006  H1027   1.107   .     S
C1007  C1015   1.502   .     S
C1007  H1031   1.111   .     S
C1007  H1029   1.107   .     S
C1007  H1028   1.110   .     S
C1008  H1032   1.111   .     S
C1008  H1034   1.097   .     S
C1008  H1033   1.107   .     S
C1009  H1035   1.107   .     S
C1009  H1037   1.097   .     S
C1009  H1036   1.111   .     S
C1010  O1053   1.313   .     A
C1010  O1051   1.294   .     A
C1010  C1012   1.463   .     S
C1011  O1052   1.294   .     A
C1011  C1013   1.463   .     S
C1011  O1054   1.313   .     A
C1013  C1065   1.541   .     S
C1013  C1074   1.386   .     S
C1015  C622    1.391   1_565 S
C1016  H1019   1.085   .     S
C1016  C642    1.391   1_565 S
Cu1017 O1051   1.987   .     S
Cu1017 O1054   1.994   .     S
Cu1017 O1050   1.963   .     S
Cu1017 Cu1018  2.717   .     S
Cu1017 O1047   1.938   .     S
Cu1017 N1045   2.042   .     S
Cu1018 N1046   2.042   .     S
Cu1018 O1053   1.994   .     S
Cu1018 O1049   1.963   .     S
Cu1018 O1052   1.987   .     S
Cu1018 O1048   1.938   .     S
H1042  C1064   1.111   .     S
C1055  O1111   1.304   .     A
C1055  C1058   1.443   .     S
C1055  O1109   1.297   .     A
C1056  C1058   1.396   .     A
C1056  H1092   1.085   .     S
C1057  C1077   1.408   .     A
C1057  C1078   1.396   .     A
C1057  C1066   1.443   .     S
C1058  C1076   1.408   .     A
C1059  N1108   1.399   .     A
C1059  C1070   1.501   .     S
C1060  N1107   1.399   .     A
C1060  C1071   1.501   .     S
C1060  C1620   1.416   .     S
C1061  N1107   1.350   .     A
C1061  H1100   1.079   .     S
C1061  C1617   1.416   .     S
C1062  H1101   1.079   .     S
C1062  N1108   1.350   .     A
C1063  H1105   1.102   .     S
C1063  H1106   1.112   .     S
C1063  C940    1.524   1_655 S
C1063  C950    1.541   1_655 S
C1064  H1102   1.109   .     S
C1064  H1103   1.111   .     S
C1065  H1085   1.112   .     S
C1065  H1086   1.102   .     S
C1066  O1112   1.304   .     A
C1066  O1110   1.297   .     A
C1067  H1082   1.111   .     S
C1067  H1083   1.109   .     S
C1067  C941    1.524   1_655 S
C1067  H960    1.111   1_655 S
C1068  H1088   1.111   .     S
C1068  C1076   1.502   .     S
C1068  H1087   1.110   .     S
C1068  H1089   1.107   .     S
C1069  C1077   1.502   .     S
C1069  H1093   1.111   .     S
C1069  H1091   1.107   .     S
C1069  H1090   1.110   .     S
C1070  H1094   1.111   .     S
C1070  H1096   1.097   .     S
C1070  H1095   1.107   .     S
C1071  H1097   1.107   .     S
C1071  H1099   1.097   .     S
C1071  H1098   1.111   .     S
C1072  O1115   1.313   .     A
C1072  O1113   1.294   .     A
C1072  C1074   1.463   .     S
C1073  O1114   1.294   .     A
C1073  C1075   1.463   .     S
C1073  O1116   1.313   .     A
C1075  C941    1.541   1_655 S
C1075  C950    1.386   1_655 S
C1077  C684    1.391   1_565 S
C1078  H1081   1.085   .     S
C1078  C704    1.391   1_565 S
Cu1079 O1113   1.987   .     S
Cu1079 O1116   1.994   .     S
Cu1079 O1112   1.963   .     S
Cu1079 Cu1080  2.717   .     S
Cu1079 O1109   1.938   .     S
Cu1079 N1107   2.042   .     S
Cu1080 N1108   2.042   .     S
Cu1080 O1115   1.994   .     S
Cu1080 O1111   1.963   .     S
Cu1080 O1114   1.987   .     S
Cu1080 O1110   1.938   .     S
H1104  C940    1.111   1_655 S
C1117  O1173   1.304   .     A
C1117  C1120   1.443   .     S
C1117  O1171   1.297   .     A
C1118  C1120   1.396   .     A
C1118  H1154   1.085   .     S
C1118  C1511   1.391   1_545 S
C1119  C1139   1.408   .     A
C1119  C1140   1.396   .     A
C1119  C1128   1.443   .     S
C1120  C1138   1.408   .     A
C1121  N1170   1.399   .     A
C1121  C1132   1.501   .     S
C1122  N1169   1.399   .     A
C1122  C1133   1.501   .     S
C1122  C8      1.416   1_556 S
C1123  N1169   1.350   .     A
C1123  H1162   1.079   .     S
C1123  C5      1.416   1_556 S
C1124  H1163   1.079   .     S
C1124  N1170   1.350   .     A
C1125  H1167   1.102   .     S
C1125  H1168   1.112   .     S
C1125  C1188   1.524   .     S
C1125  C1198   1.541   .     S
C1126  H1164   1.109   .     S
C1126  H1165   1.111   .     S
C1126  C1249   1.524   1_455 S
C1126  H1290   1.111   1_455 S
C1127  H1147   1.112   .     S
C1127  H1148   1.102   .     S
C1127  C1253   1.524   1_455 S
C1127  C1261   1.541   1_455 S
C1128  O1174   1.304   .     A
C1128  O1172   1.297   .     A
C1129  H1144   1.111   .     S
C1129  H1145   1.109   .     S
C1129  C1189   1.524   .     S
C1129  H1208   1.111   .     S
C1130  H1150   1.111   .     S
C1130  C1138   1.502   .     S
C1130  H1149   1.110   .     S
C1130  H1151   1.107   .     S
C1131  C1139   1.502   .     S
C1131  H1155   1.111   .     S
C1131  H1153   1.107   .     S
C1131  H1152   1.110   .     S
C1132  H1156   1.111   .     S
C1132  H1158   1.097   .     S
C1132  H1157   1.107   .     S
C1133  H1159   1.107   .     S
C1133  H1161   1.097   .     S
C1133  H1160   1.111   .     S
C1134  O1177   1.313   .     A
C1134  O1175   1.294   .     A
C1134  C1136   1.463   .     S
C1135  O1176   1.294   .     A
C1135  C1137   1.463   .     S
C1135  O1178   1.313   .     A
C1136  C1249   1.541   1_455 S
C1136  C1261   1.386   1_455 S
C1137  C1189   1.541   .     S
C1137  C1198   1.386   .     S
C1138  C1512   1.391   1_545 S
C1139  C1304   1.391   .     S
C1140  H1143   1.085   .     S
C1140  C1324   1.391   .     S
Cu1141 O1175   1.987   .     S
Cu1141 O1178   1.994   .     S
Cu1141 O1174   1.963   .     S
Cu1141 Cu1142  2.717   .     S
Cu1141 O1171   1.938   .     S
Cu1141 N1169   2.042   .     S
Cu1142 N1170   2.042   .     S
Cu1142 O1177   1.994   .     S
Cu1142 O1173   1.963   .     S
Cu1142 O1176   1.987   .     S
Cu1142 O1172   1.938   .     S
H1146  C1253   1.111   1_455 S
H1166  C1188   1.111   .     S
C1179  O1235   1.304   .     A
C1179  C1182   1.443   .     S
C1179  O1233   1.297   .     A
C1180  C1182   1.396   .     A
C1180  H1216   1.085   .     S
C1180  C1573   1.391   1_545 S
C1181  C1201   1.408   .     A
C1181  C1202   1.396   .     A
C1181  C1190   1.443   .     S
C1182  C1200   1.408   .     A
C1183  N1232   1.399   .     A
C1183  C1194   1.501   .     S
C1184  N1231   1.399   .     A
C1184  C1195   1.501   .     S
C1184  C70     1.416   1_556 S
C1185  N1231   1.350   .     A
C1185  H1224   1.079   .     S
C1185  C67     1.416   1_556 S
C1186  H1225   1.079   .     S
C1186  N1232   1.350   .     A
C1187  H1229   1.102   .     S
C1187  H1230   1.112   .     S
C1187  C1250   1.524   .     S
C1187  C1260   1.541   .     S
C1188  H1226   1.109   .     S
C1188  H1227   1.111   .     S
C1189  H1209   1.112   .     S
C1189  H1210   1.102   .     S
C1190  O1236   1.304   .     A
C1190  O1234   1.297   .     A
C1191  H1206   1.111   .     S
C1191  H1207   1.109   .     S
C1191  C1251   1.524   .     S
C1191  H1270   1.111   .     S
C1192  H1212   1.111   .     S
C1192  C1200   1.502   .     S
C1192  H1211   1.110   .     S
C1192  H1213   1.107   .     S
C1193  C1201   1.502   .     S
C1193  H1217   1.111   .     S
C1193  H1215   1.107   .     S
C1193  H1214   1.110   .     S
C1194  H1218   1.111   .     S
C1194  H1220   1.097   .     S
C1194  H1219   1.107   .     S
C1195  H1221   1.107   .     S
C1195  H1223   1.097   .     S
C1195  H1222   1.111   .     S
C1196  O1239   1.313   .     A
C1196  O1237   1.294   .     A
C1196  C1198   1.463   .     S
C1197  O1238   1.294   .     A
C1197  C1199   1.463   .     S
C1197  O1240   1.313   .     A
C1199  C1251   1.541   .     S
C1199  C1260   1.386   .     S
C1200  C1574   1.391   1_545 S
C1201  C1366   1.391   .     S
C1202  H1205   1.085   .     S
C1202  C1386   1.391   .     S
Cu1203 O1237   1.987   .     S
Cu1203 O1240   1.994   .     S
Cu1203 O1236   1.963   .     S
Cu1203 Cu1204  2.717   .     S
Cu1203 O1233   1.938   .     S
Cu1203 N1231   2.042   .     S
Cu1204 N1232   2.042   .     S
Cu1204 O1239   1.994   .     S
Cu1204 O1235   1.963   .     S
Cu1204 O1238   1.987   .     S
Cu1204 O1234   1.938   .     S
H1228  C1250   1.111   .     S
C1241  O1297   1.304   .     A
C1241  C1244   1.443   .     S
C1241  O1295   1.297   .     A
C1242  C1244   1.396   .     A
C1242  H1278   1.085   .     S
C1242  C1635   1.391   1_545 S
C1243  C1263   1.408   .     A
C1243  C1264   1.396   .     A
C1243  C1252   1.443   .     S
C1244  C1262   1.408   .     A
C1245  N1294   1.399   .     A
C1245  C1256   1.501   .     S
C1246  N1293   1.399   .     A
C1246  C1257   1.501   .     S
C1246  C132    1.416   1_556 S
C1247  N1293   1.350   .     A
C1247  H1286   1.079   .     S
C1247  C129    1.416   1_556 S
C1248  H1287   1.079   .     S
C1248  N1294   1.350   .     A
C1249  H1291   1.102   .     S
C1249  H1292   1.112   .     S
C1249  C1126   1.524   1_655 S
C1249  C1136   1.541   1_655 S
C1250  H1288   1.109   .     S
C1250  H1289   1.111   .     S
C1251  H1271   1.112   .     S
C1251  H1272   1.102   .     S
C1252  O1298   1.304   .     A
C1252  O1296   1.297   .     A
C1253  H1268   1.111   .     S
C1253  H1269   1.109   .     S
C1253  C1127   1.524   1_655 S
C1253  H1146   1.111   1_655 S
C1254  H1274   1.111   .     S
C1254  C1262   1.502   .     S
C1254  H1273   1.110   .     S
C1254  H1275   1.107   .     S
C1255  C1263   1.502   .     S
C1255  H1279   1.111   .     S
C1255  H1277   1.107   .     S
C1255  H1276   1.110   .     S
C1256  H1280   1.111   .     S
C1256  H1282   1.097   .     S
C1256  H1281   1.107   .     S
C1257  H1283   1.107   .     S
C1257  H1285   1.097   .     S
C1257  H1284   1.111   .     S
C1258  O1301   1.313   .     A
C1258  O1299   1.294   .     A
C1258  C1260   1.463   .     S
C1259  O1300   1.294   .     A
C1259  C1261   1.463   .     S
C1259  O1302   1.313   .     A
C1261  C1127   1.541   1_655 S
C1261  C1136   1.386   1_655 S
C1262  C1636   1.391   1_545 S
C1263  C1428   1.391   .     S
C1264  H1267   1.085   .     S
C1264  C1448   1.391   .     S
Cu1265 O1299   1.987   .     S
Cu1265 O1302   1.994   .     S
Cu1265 O1298   1.963   .     S
Cu1265 Cu1266  2.717   .     S
Cu1265 O1295   1.938   .     S
Cu1265 N1293   2.042   .     S
Cu1266 N1294   2.042   .     S
Cu1266 O1301   1.994   .     S
Cu1266 O1297   1.963   .     S
Cu1266 O1300   1.987   .     S
Cu1266 O1296   1.938   .     S
H1290  C1126   1.111   1_655 S
C1303  O1359   1.304   .     A
C1303  C1306   1.443   .     S
C1303  O1357   1.297   .     A
C1304  C1306   1.396   .     A
C1304  H1340   1.085   .     S
C1305  C1325   1.408   .     A
C1305  C1326   1.396   .     A
C1305  C1314   1.443   .     S
C1306  C1324   1.408   .     A
C1307  N1356   1.399   .     A
C1307  C1318   1.501   .     S
C1308  N1355   1.399   .     A
C1308  C1319   1.501   .     S
C1308  C194    1.416   1_556 S
C1309  N1355   1.350   .     A
C1309  H1348   1.079   .     S
C1309  C191    1.416   1_556 S
C1310  H1349   1.079   .     S
C1310  N1356   1.350   .     A
C1311  H1353   1.102   .     S
C1311  H1354   1.112   .     S
C1311  C1374   1.524   .     S
C1311  C1384   1.541   .     S
C1312  H1350   1.109   .     S
C1312  H1351   1.111   .     S
C1312  C1435   1.524   1_455 S
C1312  H1476   1.111   1_455 S
C1313  H1333   1.112   .     S
C1313  H1334   1.102   .     S
C1313  C1439   1.524   1_455 S
C1313  C1447   1.541   1_455 S
C1314  O1360   1.304   .     A
C1314  O1358   1.297   .     A
C1315  H1330   1.111   .     S
C1315  H1331   1.109   .     S
C1315  C1375   1.524   .     S
C1315  H1394   1.111   .     S
C1316  H1336   1.111   .     S
C1316  C1324   1.502   .     S
C1316  H1335   1.110   .     S
C1316  H1337   1.107   .     S
C1317  C1325   1.502   .     S
C1317  H1341   1.111   .     S
C1317  H1339   1.107   .     S
C1317  H1338   1.110   .     S
C1318  H1342   1.111   .     S
C1318  H1344   1.097   .     S
C1318  H1343   1.107   .     S
C1319  H1345   1.107   .     S
C1319  H1347   1.097   .     S
C1319  H1346   1.111   .     S
C1320  O1363   1.313   .     A
C1320  O1361   1.294   .     A
C1320  C1322   1.463   .     S
C1321  O1362   1.294   .     A
C1321  C1323   1.463   .     S
C1321  O1364   1.313   .     A
C1322  C1435   1.541   1_455 S
C1322  C1447   1.386   1_455 S
C1323  C1375   1.541   .     S
C1323  C1384   1.386   .     S
C1325  C1490   1.391   .     S
C1326  H1329   1.085   .     S
C1326  C1510   1.391   .     S
Cu1327 O1361   1.987   .     S
Cu1327 O1364   1.994   .     S
Cu1327 O1360   1.963   .     S
Cu1327 Cu1328  2.717   .     S
Cu1327 O1357   1.938   .     S
Cu1327 N1355   2.042   .     S
Cu1328 N1356   2.042   .     S
Cu1328 O1363   1.994   .     S
Cu1328 O1359   1.963   .     S
Cu1328 O1362   1.987   .     S
Cu1328 O1358   1.938   .     S
H1332  C1439   1.111   1_455 S
H1352  C1374   1.111   .     S
C1365  O1421   1.304   .     A
C1365  C1368   1.443   .     S
C1365  O1419   1.297   .     A
C1366  C1368   1.396   .     A
C1366  H1402   1.085   .     S
C1367  C1387   1.408   .     A
C1367  C1388   1.396   .     A
C1367  C1376   1.443   .     S
C1368  C1386   1.408   .     A
C1369  N1418   1.399   .     A
C1369  C1380   1.501   .     S
C1370  N1417   1.399   .     A
C1370  C1381   1.501   .     S
C1370  C256    1.416   1_556 S
C1371  N1417   1.350   .     A
C1371  H1410   1.079   .     S
C1371  C253    1.416   1_556 S
C1372  H1411   1.079   .     S
C1372  N1418   1.350   .     A
C1373  H1415   1.102   .     S
C1373  H1416   1.112   .     S
C1373  C1436   1.524   .     S
C1373  C1446   1.541   .     S
C1374  H1412   1.109   .     S
C1374  H1413   1.111   .     S
C1375  H1395   1.112   .     S
C1375  H1396   1.102   .     S
C1376  O1422   1.304   .     A
C1376  O1420   1.297   .     A
C1377  H1392   1.111   .     S
C1377  H1393   1.109   .     S
C1377  C1437   1.524   .     S
C1377  H1456   1.111   .     S
C1378  H1398   1.111   .     S
C1378  C1386   1.502   .     S
C1378  H1397   1.110   .     S
C1378  H1399   1.107   .     S
C1379  C1387   1.502   .     S
C1379  H1403   1.111   .     S
C1379  H1401   1.107   .     S
C1379  H1400   1.110   .     S
C1380  H1404   1.111   .     S
C1380  H1406   1.097   .     S
C1380  H1405   1.107   .     S
C1381  H1407   1.107   .     S
C1381  H1409   1.097   .     S
C1381  H1408   1.111   .     S
C1382  O1425   1.313   .     A
C1382  O1423   1.294   .     A
C1382  C1384   1.463   .     S
C1383  O1424   1.294   .     A
C1383  C1385   1.463   .     S
C1383  O1426   1.313   .     A
C1385  C1437   1.541   .     S
C1385  C1446   1.386   .     S
C1387  C1552   1.391   .     S
C1388  H1391   1.085   .     S
C1388  C1572   1.391   .     S
Cu1389 O1423   1.987   .     S
Cu1389 O1426   1.994   .     S
Cu1389 O1422   1.963   .     S
Cu1389 Cu1390  2.717   .     S
Cu1389 O1419   1.938   .     S
Cu1389 N1417   2.042   .     S
Cu1390 N1418   2.042   .     S
Cu1390 O1425   1.994   .     S
Cu1390 O1421   1.963   .     S
Cu1390 O1424   1.987   .     S
Cu1390 O1420   1.938   .     S
H1414  C1436   1.111   .     S
C1427  O1483   1.304   .     A
C1427  C1430   1.443   .     S
C1427  O1481   1.297   .     A
C1428  C1430   1.396   .     A
C1428  H1464   1.085   .     S
C1429  C1449   1.408   .     A
C1429  C1450   1.396   .     A
C1429  C1438   1.443   .     S
C1430  C1448   1.408   .     A
C1431  N1480   1.399   .     A
C1431  C1442   1.501   .     S
C1432  N1479   1.399   .     A
C1432  C1443   1.501   .     S
C1432  C318    1.416   1_556 S
C1433  N1479   1.350   .     A
C1433  H1472   1.079   .     S
C1433  C315    1.416   1_556 S
C1434  H1473   1.079   .     S
C1434  N1480   1.350   .     A
C1435  H1477   1.102   .     S
C1435  H1478   1.112   .     S
C1435  C1312   1.524   1_655 S
C1435  C1322   1.541   1_655 S
C1436  H1474   1.109   .     S
C1436  H1475   1.111   .     S
C1437  H1457   1.112   .     S
C1437  H1458   1.102   .     S
C1438  O1484   1.304   .     A
C1438  O1482   1.297   .     A
C1439  H1454   1.111   .     S
C1439  H1455   1.109   .     S
C1439  C1313   1.524   1_655 S
C1439  H1332   1.111   1_655 S
C1440  H1460   1.111   .     S
C1440  C1448   1.502   .     S
C1440  H1459   1.110   .     S
C1440  H1461   1.107   .     S
C1441  C1449   1.502   .     S
C1441  H1465   1.111   .     S
C1441  H1463   1.107   .     S
C1441  H1462   1.110   .     S
C1442  H1466   1.111   .     S
C1442  H1468   1.097   .     S
C1442  H1467   1.107   .     S
C1443  H1469   1.107   .     S
C1443  H1471   1.097   .     S
C1443  H1470   1.111   .     S
C1444  O1487   1.313   .     A
C1444  O1485   1.294   .     A
C1444  C1446   1.463   .     S
C1445  O1486   1.294   .     A
C1445  C1447   1.463   .     S
C1445  O1488   1.313   .     A
C1447  C1313   1.541   1_655 S
C1447  C1322   1.386   1_655 S
C1449  C1614   1.391   .     S
C1450  H1453   1.085   .     S
C1450  C1634   1.391   .     S
Cu1451 O1485   1.987   .     S
Cu1451 O1488   1.994   .     S
Cu1451 O1484   1.963   .     S
Cu1451 Cu1452  2.717   .     S
Cu1451 O1481   1.938   .     S
Cu1451 N1479   2.042   .     S
Cu1452 N1480   2.042   .     S
Cu1452 O1487   1.994   .     S
Cu1452 O1483   1.963   .     S
Cu1452 O1486   1.987   .     S
Cu1452 O1482   1.938   .     S
H1476  C1312   1.111   1_655 S
C1489  O1545   1.304   .     A
C1489  C1492   1.443   .     S
C1489  O1543   1.297   .     A
C1490  C1492   1.396   .     A
C1490  H1526   1.085   .     S
C1491  C1511   1.408   .     A
C1491  C1512   1.396   .     A
C1491  C1500   1.443   .     S
C1492  C1510   1.408   .     A
C1493  N1542   1.399   .     A
C1493  C1504   1.501   .     S
C1494  N1541   1.399   .     A
C1494  C1505   1.501   .     S
C1494  C380    1.416   1_556 S
C1495  N1541   1.350   .     A
C1495  H1534   1.079   .     S
C1495  C377    1.416   1_556 S
C1496  H1535   1.079   .     S
C1496  N1542   1.350   .     A
C1497  H1539   1.102   .     S
C1497  H1540   1.112   .     S
C1497  C1560   1.524   .     S
C1497  C1570   1.541   .     S
C1498  H1536   1.109   .     S
C1498  H1537   1.111   .     S
C1498  C1621   1.524   1_455 S
C1498  H1662   1.111   1_455 S
C1499  H1519   1.112   .     S
C1499  H1520   1.102   .     S
C1499  C1625   1.524   1_455 S
C1499  C1633   1.541   1_455 S
C1500  O1546   1.304   .     A
C1500  O1544   1.297   .     A
C1501  H1516   1.111   .     S
C1501  H1517   1.109   .     S
C1501  C1561   1.524   .     S
C1501  H1580   1.111   .     S
C1502  H1522   1.111   .     S
C1502  C1510   1.502   .     S
C1502  H1521   1.110   .     S
C1502  H1523   1.107   .     S
C1503  C1511   1.502   .     S
C1503  H1527   1.111   .     S
C1503  H1525   1.107   .     S
C1503  H1524   1.110   .     S
C1504  H1528   1.111   .     S
C1504  H1530   1.097   .     S
C1504  H1529   1.107   .     S
C1505  H1531   1.107   .     S
C1505  H1533   1.097   .     S
C1505  H1532   1.111   .     S
C1506  O1549   1.313   .     A
C1506  O1547   1.294   .     A
C1506  C1508   1.463   .     S
C1507  O1548   1.294   .     A
C1507  C1509   1.463   .     S
C1507  O1550   1.313   .     A
C1508  C1621   1.541   1_455 S
C1508  C1633   1.386   1_455 S
C1509  C1561   1.541   .     S
C1509  C1570   1.386   .     S
C1511  C1118   1.391   1_565 S
C1512  H1515   1.085   .     S
C1512  C1138   1.391   1_565 S
Cu1513 O1547   1.987   .     S
Cu1513 O1550   1.994   .     S
Cu1513 O1546   1.963   .     S
Cu1513 Cu1514  2.717   .     S
Cu1513 O1543   1.938   .     S
Cu1513 N1541   2.042   .     S
Cu1514 N1542   2.042   .     S
Cu1514 O1549   1.994   .     S
Cu1514 O1545   1.963   .     S
Cu1514 O1548   1.987   .     S
Cu1514 O1544   1.938   .     S
H1518  C1625   1.111   1_455 S
H1538  C1560   1.111   .     S
C1551  O1607   1.304   .     A
C1551  C1554   1.443   .     S
C1551  O1605   1.297   .     A
C1552  C1554   1.396   .     A
C1552  H1588   1.085   .     S
C1553  C1573   1.408   .     A
C1553  C1574   1.396   .     A
C1553  C1562   1.443   .     S
C1554  C1572   1.408   .     A
C1555  N1604   1.399   .     A
C1555  C1566   1.501   .     S
C1556  N1603   1.399   .     A
C1556  C1567   1.501   .     S
C1556  C442    1.416   1_556 S
C1557  N1603   1.350   .     A
C1557  H1596   1.079   .     S
C1557  C439    1.416   1_556 S
C1558  H1597   1.079   .     S
C1558  N1604   1.350   .     A
C1559  H1601   1.102   .     S
C1559  H1602   1.112   .     S
C1559  C1622   1.524   .     S
C1559  C1632   1.541   .     S
C1560  H1598   1.109   .     S
C1560  H1599   1.111   .     S
C1561  H1581   1.112   .     S
C1561  H1582   1.102   .     S
C1562  O1608   1.304   .     A
C1562  O1606   1.297   .     A
C1563  H1578   1.111   .     S
C1563  H1579   1.109   .     S
C1563  C1623   1.524   .     S
C1563  H1642   1.111   .     S
C1564  H1584   1.111   .     S
C1564  C1572   1.502   .     S
C1564  H1583   1.110   .     S
C1564  H1585   1.107   .     S
C1565  C1573   1.502   .     S
C1565  H1589   1.111   .     S
C1565  H1587   1.107   .     S
C1565  H1586   1.110   .     S
C1566  H1590   1.111   .     S
C1566  H1592   1.097   .     S
C1566  H1591   1.107   .     S
C1567  H1593   1.107   .     S
C1567  H1595   1.097   .     S
C1567  H1594   1.111   .     S
C1568  O1611   1.313   .     A
C1568  O1609   1.294   .     A
C1568  C1570   1.463   .     S
C1569  O1610   1.294   .     A
C1569  C1571   1.463   .     S
C1569  O1612   1.313   .     A
C1571  C1623   1.541   .     S
C1571  C1632   1.386   .     S
C1573  C1180   1.391   1_565 S
C1574  H1577   1.085   .     S
C1574  C1200   1.391   1_565 S
Cu1575 O1609   1.987   .     S
Cu1575 O1612   1.994   .     S
Cu1575 O1608   1.963   .     S
Cu1575 Cu1576  2.717   .     S
Cu1575 O1605   1.938   .     S
Cu1575 N1603   2.042   .     S
Cu1576 N1604   2.042   .     S
Cu1576 O1611   1.994   .     S
Cu1576 O1607   1.963   .     S
Cu1576 O1610   1.987   .     S
Cu1576 O1606   1.938   .     S
H1600  C1622   1.111   .     S
C1613  O1669   1.304   .     A
C1613  C1616   1.443   .     S
C1613  O1667   1.297   .     A
C1614  C1616   1.396   .     A
C1614  H1650   1.085   .     S
C1615  C1635   1.408   .     A
C1615  C1636   1.396   .     A
C1615  C1624   1.443   .     S
C1616  C1634   1.408   .     A
C1617  N1666   1.399   .     A
C1617  C1628   1.501   .     S
C1618  N1665   1.399   .     A
C1618  C1629   1.501   .     S
C1618  C504    1.416   1_556 S
C1619  N1665   1.350   .     A
C1619  H1658   1.079   .     S
C1619  C501    1.416   1_556 S
C1620  H1659   1.079   .     S
C1620  N1666   1.350   .     A
C1621  H1663   1.102   .     S
C1621  H1664   1.112   .     S
C1621  C1498   1.524   1_655 S
C1621  C1508   1.541   1_655 S
C1622  H1660   1.109   .     S
C1622  H1661   1.111   .     S
C1623  H1643   1.112   .     S
C1623  H1644   1.102   .     S
C1624  O1670   1.304   .     A
C1624  O1668   1.297   .     A
C1625  H1640   1.111   .     S
C1625  H1641   1.109   .     S
C1625  C1499   1.524   1_655 S
C1625  H1518   1.111   1_655 S
C1626  H1646   1.111   .     S
C1626  C1634   1.502   .     S
C1626  H1645   1.110   .     S
C1626  H1647   1.107   .     S
C1627  C1635   1.502   .     S
C1627  H1651   1.111   .     S
C1627  H1649   1.107   .     S
C1627  H1648   1.110   .     S
C1628  H1652   1.111   .     S
C1628  H1654   1.097   .     S
C1628  H1653   1.107   .     S
C1629  H1655   1.107   .     S
C1629  H1657   1.097   .     S
C1629  H1656   1.111   .     S
C1630  O1673   1.313   .     A
C1630  O1671   1.294   .     A
C1630  C1632   1.463   .     S
C1631  O1672   1.294   .     A
C1631  C1633   1.463   .     S
C1631  O1674   1.313   .     A
C1633  C1499   1.541   1_655 S
C1633  C1508   1.386   1_655 S
C1635  C1242   1.391   1_565 S
C1636  H1639   1.085   .     S
C1636  C1262   1.391   1_565 S
Cu1637 O1671   1.987   .     S
Cu1637 O1674   1.994   .     S
Cu1637 O1670   1.963   .     S
Cu1637 Cu1638  2.717   .     S
Cu1637 O1667   1.938   .     S
Cu1637 N1665   2.042   .     S
Cu1638 N1666   2.042   .     S
Cu1638 O1673   1.994   .     S
Cu1638 O1669   1.963   .     S
Cu1638 O1672   1.987   .     S
Cu1638 O1668   1.938   .     S
H1662  C1498   1.111   1_655 S
