data_str_m3_o2_o5_pcu_sym.8
_audit_creation_date              2020-01-03
_audit_creation_method            'Materials Studio'
_symmetry_space_group_name_H-M    'P1'
_symmetry_Int_Tables_number       1
_symmetry_cell_setting            triclinic
loop_
_symmetry_equiv_pos_as_xyz
  x,y,z
_cell_length_a                    29.9044
_cell_length_b                    28.3817
_cell_length_c                    26.7444
_cell_angle_alpha                 89.9972
_cell_angle_beta                  90.0280
_cell_angle_gamma                 90.0184
loop_
_atom_site_label
_atom_site_type_symbol
_atom_site_fract_x
_atom_site_fract_y
_atom_site_fract_z
_atom_site_U_iso_or_equiv
_atom_site_adp_type
_atom_site_occupancy
C1     C     0.16394   0.25000   0.16671   0.00000  Uiso   1.00
C2     C     0.21498   0.44735   0.14448   0.00000  Uiso   1.00
C3     C     0.24997   0.25000   0.07286   0.00000  Uiso   1.00
C4     C     0.25005   0.25000   0.26048   0.00000  Uiso   1.00
C5     C     0.24998   0.02668   0.16668   0.00000  Uiso   1.00
C6     C     0.24999   0.47331   0.16668   0.00000  Uiso   1.00
C7     C     0.25003   0.25000   0.02179   0.00000  Uiso   1.00
C8     C     0.25006   0.24999   0.31155   0.00000  Uiso   1.00
C9     C     0.04656   0.27836   0.13265   0.00000  Uiso   1.00
C10    C     0.45313   0.23776   0.12255   0.00000  Uiso   1.00
C11    C     0.45263   0.26186   0.20983   0.00000  Uiso   1.00
C12    C     0.33588   0.25002   0.16641   0.00000  Uiso   1.00
C13    C     0.04655   0.22157   0.20077   0.00000  Uiso   1.00
C14    C     0.09309   0.27883   0.13251   0.00000  Uiso   1.00
C15    C     0.40691   0.23776   0.12141   0.00000  Uiso   1.00
C16    C     0.40611   0.26234   0.20969   0.00000  Uiso   1.00
C17    C     0.09309   0.22120   0.20099   0.00000  Uiso   1.00
C18    C     0.11595   0.25000   0.16674   0.00000  Uiso   1.00
C19    C     0.38359   0.25010   0.16552   0.00000  Uiso   1.00
C20    C     0.02376   0.24990   0.16665   0.00000  Uiso   1.00
C21    C     0.47568   0.24973   0.16640   0.00000  Uiso   1.00
C22    C     0.23047   0.10221   0.12829   0.00000  Uiso   1.00
C23    C     0.28429   0.39779   0.18857   0.00000  Uiso   1.00
C24    C     0.26951   0.10222   0.20505   0.00000  Uiso   1.00
C25    C     0.21571   0.39776   0.14477   0.00000  Uiso   1.00
C26    C     0.23021   0.05262   0.12748   0.00000  Uiso   1.00
C27    C     0.28500   0.44738   0.18886   0.00000  Uiso   1.00
C28    C     0.26975   0.05263   0.20587   0.00000  Uiso   1.00
H29    H     0.21509   0.12152   0.09796   0.00000  Uiso   1.00
H30    H     0.31324   0.46510   0.20579   0.00000  Uiso   1.00
H31    H     0.28482   0.03492   0.23749   0.00000  Uiso   1.00
H32    H     0.18674   0.46505   0.12756   0.00000  Uiso   1.00
H33    H     0.09558   0.32395   0.07767   0.00000  Uiso   1.00
H34    H     0.35371   0.23060   0.07922   0.00000  Uiso   1.00
H35    H     0.40298   0.28144   0.27956   0.00000  Uiso   1.00
H36    H     0.09560   0.17622   0.25596   0.00000  Uiso   1.00
H37    H     0.31139   0.37848   0.20583   0.00000  Uiso   1.00
H38    H     0.28490   0.12154   0.23539   0.00000  Uiso   1.00
H39    H     0.18861   0.37844   0.12751   0.00000  Uiso   1.00
H40    H     0.02805   0.30018   0.10659   0.00000  Uiso   1.00
H41    H     0.47160   0.22832   0.08914   0.00000  Uiso   1.00
H42    H     0.47093   0.27127   0.24340   0.00000  Uiso   1.00
H43    H     0.02803   0.19970   0.22677   0.00000  Uiso   1.00
H44    H     0.21514   0.03491   0.09587   0.00000  Uiso   1.00
N45    N     0.25000   0.12624   0.16667   0.00000  Uiso   1.00
N46    N     0.25000   0.37376   0.16667   0.00000  Uiso   1.00
O47    O     0.18453   0.28974   0.16667   0.00000  Uiso   1.00
O48    O     0.38641   0.22608   0.07672   0.00000  Uiso   1.00
O49    O     0.38194   0.27407   0.25197   0.00000  Uiso   1.00
O50    O     0.11687   0.19400   0.23466   0.00000  Uiso   1.00
O51    O     0.31547   0.21026   0.16666   0.00000  Uiso   1.00
O52    O     0.31547   0.28974   0.16666   0.00000  Uiso   1.00
O53    O     0.18453   0.21026   0.16667   0.00000  Uiso   1.00
O54    O     0.25000   0.28973   0.09511   0.00000  Uiso   1.00
O55    O     0.25000   0.21027   0.23822   0.00000  Uiso   1.00
O56    O     0.25000   0.28973   0.23822   0.00000  Uiso   1.00
O57    O     0.25000   0.21027   0.09511   0.00000  Uiso   1.00
O58    O     0.11685   0.30610   0.09890   0.00000  Uiso   1.00
Zn59   Zn    0.25000   0.30307   0.16667   0.00000  Uiso   1.00
Zn60   Zn    0.25000   0.19693   0.16667   0.00000  Uiso   1.00
C61    C     0.66394   0.25000   0.16671   0.00000  Uiso   1.00
C62    C     0.71498   0.44735   0.14448   0.00000  Uiso   1.00
C63    C     0.74997   0.25000   0.07286   0.00000  Uiso   1.00
C64    C     0.75005   0.25000   0.26048   0.00000  Uiso   1.00
C65    C     0.74998   0.02668   0.16668   0.00000  Uiso   1.00
C66    C     0.74999   0.47331   0.16668   0.00000  Uiso   1.00
C67    C     0.75003   0.25000   0.02179   0.00000  Uiso   1.00
C68    C     0.75006   0.24999   0.31155   0.00000  Uiso   1.00
C69    C     0.54656   0.27836   0.13265   0.00000  Uiso   1.00
C70    C     0.95313   0.23776   0.12255   0.00000  Uiso   1.00
C71    C     0.95263   0.26186   0.20983   0.00000  Uiso   1.00
C72    C     0.83588   0.25002   0.16641   0.00000  Uiso   1.00
C73    C     0.54655   0.22157   0.20077   0.00000  Uiso   1.00
C74    C     0.59309   0.27883   0.13251   0.00000  Uiso   1.00
C75    C     0.90691   0.23776   0.12141   0.00000  Uiso   1.00
C76    C     0.90611   0.26234   0.20969   0.00000  Uiso   1.00
C77    C     0.59309   0.22120   0.20099   0.00000  Uiso   1.00
C78    C     0.61595   0.25000   0.16674   0.00000  Uiso   1.00
C79    C     0.88359   0.25010   0.16552   0.00000  Uiso   1.00
C80    C     0.52376   0.24990   0.16665   0.00000  Uiso   1.00
C81    C     0.97568   0.24973   0.16640   0.00000  Uiso   1.00
C82    C     0.73047   0.10221   0.12829   0.00000  Uiso   1.00
C83    C     0.78429   0.39779   0.18857   0.00000  Uiso   1.00
C84    C     0.76951   0.10222   0.20505   0.00000  Uiso   1.00
C85    C     0.71571   0.39776   0.14477   0.00000  Uiso   1.00
C86    C     0.73021   0.05262   0.12748   0.00000  Uiso   1.00
C87    C     0.78500   0.44738   0.18886   0.00000  Uiso   1.00
C88    C     0.76975   0.05263   0.20587   0.00000  Uiso   1.00
H89    H     0.71509   0.12152   0.09796   0.00000  Uiso   1.00
H90    H     0.81324   0.46510   0.20579   0.00000  Uiso   1.00
H91    H     0.78482   0.03492   0.23749   0.00000  Uiso   1.00
H92    H     0.68674   0.46505   0.12756   0.00000  Uiso   1.00
H93    H     0.59558   0.32395   0.07767   0.00000  Uiso   1.00
H94    H     0.85371   0.23060   0.07922   0.00000  Uiso   1.00
H95    H     0.90298   0.28144   0.27956   0.00000  Uiso   1.00
H96    H     0.59560   0.17622   0.25596   0.00000  Uiso   1.00
H97    H     0.81139   0.37848   0.20583   0.00000  Uiso   1.00
H98    H     0.78490   0.12154   0.23539   0.00000  Uiso   1.00
H99    H     0.68861   0.37844   0.12751   0.00000  Uiso   1.00
H100   H     0.52805   0.30018   0.10659   0.00000  Uiso   1.00
H101   H     0.97160   0.22832   0.08914   0.00000  Uiso   1.00
H102   H     0.97093   0.27127   0.24340   0.00000  Uiso   1.00
H103   H     0.52803   0.19970   0.22677   0.00000  Uiso   1.00
H104   H     0.71514   0.03491   0.09587   0.00000  Uiso   1.00
N105   N     0.75000   0.12624   0.16667   0.00000  Uiso   1.00
N106   N     0.75000   0.37376   0.16667   0.00000  Uiso   1.00
O107   O     0.68453   0.28974   0.16667   0.00000  Uiso   1.00
O108   O     0.88641   0.22608   0.07672   0.00000  Uiso   1.00
O109   O     0.88194   0.27407   0.25197   0.00000  Uiso   1.00
O110   O     0.61687   0.19400   0.23466   0.00000  Uiso   1.00
O111   O     0.81547   0.21026   0.16666   0.00000  Uiso   1.00
O112   O     0.81547   0.28974   0.16666   0.00000  Uiso   1.00
O113   O     0.68453   0.21026   0.16667   0.00000  Uiso   1.00
O114   O     0.75000   0.28973   0.09511   0.00000  Uiso   1.00
O115   O     0.75000   0.21027   0.23822   0.00000  Uiso   1.00
O116   O     0.75000   0.28973   0.23822   0.00000  Uiso   1.00
O117   O     0.75000   0.21027   0.09511   0.00000  Uiso   1.00
O118   O     0.61685   0.30610   0.09890   0.00000  Uiso   1.00
Zn119  Zn    0.75000   0.30307   0.16667   0.00000  Uiso   1.00
Zn120  Zn    0.75000   0.19693   0.16667   0.00000  Uiso   1.00
C121   C     0.16394   0.75000   0.16671   0.00000  Uiso   1.00
C122   C     0.21498   0.94735   0.14448   0.00000  Uiso   1.00
C123   C     0.24997   0.75000   0.07286   0.00000  Uiso   1.00
C124   C     0.25005   0.75000   0.26048   0.00000  Uiso   1.00
C125   C     0.24998   0.52668   0.16668   0.00000  Uiso   1.00
C126   C     0.24999   0.97331   0.16668   0.00000  Uiso   1.00
C127   C     0.25003   0.75000   0.02179   0.00000  Uiso   1.00
C128   C     0.25006   0.74999   0.31155   0.00000  Uiso   1.00
C129   C     0.04656   0.77836   0.13265   0.00000  Uiso   1.00
C130   C     0.45313   0.73776   0.12255   0.00000  Uiso   1.00
C131   C     0.45263   0.76186   0.20983   0.00000  Uiso   1.00
C132   C     0.33588   0.75002   0.16641   0.00000  Uiso   1.00
C133   C     0.04655   0.72157   0.20077   0.00000  Uiso   1.00
C134   C     0.09309   0.77883   0.13251   0.00000  Uiso   1.00
C135   C     0.40691   0.73776   0.12141   0.00000  Uiso   1.00
C136   C     0.40611   0.76234   0.20969   0.00000  Uiso   1.00
C137   C     0.09309   0.72120   0.20099   0.00000  Uiso   1.00
C138   C     0.11595   0.75000   0.16674   0.00000  Uiso   1.00
C139   C     0.38359   0.75010   0.16552   0.00000  Uiso   1.00
C140   C     0.02376   0.74990   0.16665   0.00000  Uiso   1.00
C141   C     0.47568   0.74973   0.16640   0.00000  Uiso   1.00
C142   C     0.23047   0.60221   0.12829   0.00000  Uiso   1.00
C143   C     0.28429   0.89779   0.18857   0.00000  Uiso   1.00
C144   C     0.26951   0.60222   0.20505   0.00000  Uiso   1.00
C145   C     0.21571   0.89776   0.14477   0.00000  Uiso   1.00
C146   C     0.23021   0.55262   0.12748   0.00000  Uiso   1.00
C147   C     0.28500   0.94738   0.18886   0.00000  Uiso   1.00
C148   C     0.26975   0.55263   0.20587   0.00000  Uiso   1.00
H149   H     0.21509   0.62152   0.09796   0.00000  Uiso   1.00
H150   H     0.31324   0.96510   0.20579   0.00000  Uiso   1.00
H151   H     0.28482   0.53492   0.23749   0.00000  Uiso   1.00
H152   H     0.18674   0.96505   0.12756   0.00000  Uiso   1.00
H153   H     0.09558   0.82395   0.07767   0.00000  Uiso   1.00
H154   H     0.35371   0.73060   0.07922   0.00000  Uiso   1.00
H155   H     0.40298   0.78144   0.27956   0.00000  Uiso   1.00
H156   H     0.09560   0.67622   0.25596   0.00000  Uiso   1.00
H157   H     0.31139   0.87848   0.20583   0.00000  Uiso   1.00
H158   H     0.28490   0.62154   0.23539   0.00000  Uiso   1.00
H159   H     0.18861   0.87844   0.12751   0.00000  Uiso   1.00
H160   H     0.02805   0.80018   0.10659   0.00000  Uiso   1.00
H161   H     0.47160   0.72832   0.08914   0.00000  Uiso   1.00
H162   H     0.47093   0.77127   0.24340   0.00000  Uiso   1.00
H163   H     0.02803   0.69970   0.22677   0.00000  Uiso   1.00
H164   H     0.21514   0.53491   0.09587   0.00000  Uiso   1.00
N165   N     0.25000   0.62624   0.16667   0.00000  Uiso   1.00
N166   N     0.25000   0.87376   0.16667   0.00000  Uiso   1.00
O167   O     0.18453   0.78974   0.16667   0.00000  Uiso   1.00
O168   O     0.38641   0.72608   0.07672   0.00000  Uiso   1.00
O169   O     0.38194   0.77407   0.25197   0.00000  Uiso   1.00
O170   O     0.11687   0.69400   0.23466   0.00000  Uiso   1.00
O171   O     0.31547   0.71026   0.16666   0.00000  Uiso   1.00
O172   O     0.31547   0.78974   0.16666   0.00000  Uiso   1.00
O173   O     0.18453   0.71026   0.16667   0.00000  Uiso   1.00
O174   O     0.25000   0.78973   0.09511   0.00000  Uiso   1.00
O175   O     0.25000   0.71027   0.23822   0.00000  Uiso   1.00
O176   O     0.25000   0.78973   0.23822   0.00000  Uiso   1.00
O177   O     0.25000   0.71027   0.09511   0.00000  Uiso   1.00
O178   O     0.11685   0.80610   0.09890   0.00000  Uiso   1.00
Zn179  Zn    0.25000   0.80307   0.16667   0.00000  Uiso   1.00
Zn180  Zn    0.25000   0.69693   0.16667   0.00000  Uiso   1.00
C181   C     0.66394   0.75000   0.16671   0.00000  Uiso   1.00
C182   C     0.71498   0.94735   0.14448   0.00000  Uiso   1.00
C183   C     0.74997   0.75000   0.07286   0.00000  Uiso   1.00
C184   C     0.75005   0.75000   0.26048   0.00000  Uiso   1.00
C185   C     0.74998   0.52668   0.16668   0.00000  Uiso   1.00
C186   C     0.74999   0.97331   0.16668   0.00000  Uiso   1.00
C187   C     0.75003   0.75000   0.02179   0.00000  Uiso   1.00
C188   C     0.75006   0.74999   0.31155   0.00000  Uiso   1.00
C189   C     0.54656   0.77836   0.13265   0.00000  Uiso   1.00
C190   C     0.95313   0.73776   0.12255   0.00000  Uiso   1.00
C191   C     0.95263   0.76186   0.20983   0.00000  Uiso   1.00
C192   C     0.83588   0.75002   0.16641   0.00000  Uiso   1.00
C193   C     0.54655   0.72157   0.20077   0.00000  Uiso   1.00
C194   C     0.59309   0.77883   0.13251   0.00000  Uiso   1.00
C195   C     0.90691   0.73776   0.12141   0.00000  Uiso   1.00
C196   C     0.90611   0.76234   0.20969   0.00000  Uiso   1.00
C197   C     0.59309   0.72120   0.20099   0.00000  Uiso   1.00
C198   C     0.61595   0.75000   0.16674   0.00000  Uiso   1.00
C199   C     0.88359   0.75010   0.16552   0.00000  Uiso   1.00
C200   C     0.52376   0.74990   0.16665   0.00000  Uiso   1.00
C201   C     0.97568   0.74973   0.16640   0.00000  Uiso   1.00
C202   C     0.73047   0.60221   0.12829   0.00000  Uiso   1.00
C203   C     0.78429   0.89779   0.18857   0.00000  Uiso   1.00
C204   C     0.76951   0.60222   0.20505   0.00000  Uiso   1.00
C205   C     0.71571   0.89776   0.14477   0.00000  Uiso   1.00
C206   C     0.73021   0.55262   0.12748   0.00000  Uiso   1.00
C207   C     0.78500   0.94738   0.18886   0.00000  Uiso   1.00
C208   C     0.76975   0.55263   0.20587   0.00000  Uiso   1.00
H209   H     0.71509   0.62152   0.09796   0.00000  Uiso   1.00
H210   H     0.81324   0.96510   0.20579   0.00000  Uiso   1.00
H211   H     0.78482   0.53492   0.23749   0.00000  Uiso   1.00
H212   H     0.68674   0.96505   0.12756   0.00000  Uiso   1.00
H213   H     0.59558   0.82395   0.07767   0.00000  Uiso   1.00
H214   H     0.85371   0.73060   0.07922   0.00000  Uiso   1.00
H215   H     0.90298   0.78144   0.27956   0.00000  Uiso   1.00
H216   H     0.59560   0.67622   0.25596   0.00000  Uiso   1.00
H217   H     0.81139   0.87848   0.20583   0.00000  Uiso   1.00
H218   H     0.78490   0.62154   0.23539   0.00000  Uiso   1.00
H219   H     0.68861   0.87844   0.12751   0.00000  Uiso   1.00
H220   H     0.52805   0.80018   0.10659   0.00000  Uiso   1.00
H221   H     0.97160   0.72832   0.08914   0.00000  Uiso   1.00
H222   H     0.97093   0.77127   0.24340   0.00000  Uiso   1.00
H223   H     0.52803   0.69970   0.22677   0.00000  Uiso   1.00
H224   H     0.71514   0.53491   0.09587   0.00000  Uiso   1.00
N225   N     0.75000   0.62624   0.16667   0.00000  Uiso   1.00
N226   N     0.75000   0.87376   0.16667   0.00000  Uiso   1.00
O227   O     0.68453   0.78974   0.16667   0.00000  Uiso   1.00
O228   O     0.88641   0.72608   0.07672   0.00000  Uiso   1.00
O229   O     0.88194   0.77407   0.25197   0.00000  Uiso   1.00
O230   O     0.61687   0.69400   0.23466   0.00000  Uiso   1.00
O231   O     0.81547   0.71026   0.16666   0.00000  Uiso   1.00
O232   O     0.81547   0.78974   0.16666   0.00000  Uiso   1.00
O233   O     0.68453   0.71026   0.16667   0.00000  Uiso   1.00
O234   O     0.75000   0.78973   0.09511   0.00000  Uiso   1.00
O235   O     0.75000   0.71027   0.23822   0.00000  Uiso   1.00
O236   O     0.75000   0.78973   0.23822   0.00000  Uiso   1.00
O237   O     0.75000   0.71027   0.09511   0.00000  Uiso   1.00
O238   O     0.61685   0.80610   0.09890   0.00000  Uiso   1.00
Zn239  Zn    0.75000   0.80307   0.16667   0.00000  Uiso   1.00
Zn240  Zn    0.75000   0.69693   0.16667   0.00000  Uiso   1.00
C241   C     0.16394   0.25000   0.50004   0.00000  Uiso   1.00
C242   C     0.21498   0.44735   0.47782   0.00000  Uiso   1.00
C243   C     0.24997   0.25000   0.40619   0.00000  Uiso   1.00
C244   C     0.25005   0.25000   0.59381   0.00000  Uiso   1.00
C245   C     0.24998   0.02668   0.50001   0.00000  Uiso   1.00
C246   C     0.24999   0.47331   0.50001   0.00000  Uiso   1.00
C247   C     0.25003   0.25000   0.35512   0.00000  Uiso   1.00
C248   C     0.25006   0.24999   0.64488   0.00000  Uiso   1.00
C249   C     0.04656   0.27836   0.46598   0.00000  Uiso   1.00
C250   C     0.45313   0.23776   0.45588   0.00000  Uiso   1.00
C251   C     0.45263   0.26186   0.54317   0.00000  Uiso   1.00
C252   C     0.33588   0.25002   0.49974   0.00000  Uiso   1.00
C253   C     0.04655   0.22157   0.53411   0.00000  Uiso   1.00
C254   C     0.09309   0.27883   0.46585   0.00000  Uiso   1.00
C255   C     0.40691   0.23776   0.45474   0.00000  Uiso   1.00
C256   C     0.40611   0.26234   0.54302   0.00000  Uiso   1.00
C257   C     0.09309   0.22120   0.53433   0.00000  Uiso   1.00
C258   C     0.11595   0.25000   0.50007   0.00000  Uiso   1.00
C259   C     0.38359   0.25010   0.49885   0.00000  Uiso   1.00
C260   C     0.02376   0.24990   0.49998   0.00000  Uiso   1.00
C261   C     0.47568   0.24973   0.49973   0.00000  Uiso   1.00
C262   C     0.23047   0.10221   0.46162   0.00000  Uiso   1.00
C263   C     0.28429   0.39779   0.52191   0.00000  Uiso   1.00
C264   C     0.26951   0.10222   0.53839   0.00000  Uiso   1.00
C265   C     0.21571   0.39776   0.47810   0.00000  Uiso   1.00
C266   C     0.23021   0.05262   0.46081   0.00000  Uiso   1.00
C267   C     0.28500   0.44738   0.52220   0.00000  Uiso   1.00
C268   C     0.26975   0.05263   0.53921   0.00000  Uiso   1.00
H269   H     0.21509   0.12152   0.43129   0.00000  Uiso   1.00
H270   H     0.31324   0.46510   0.53912   0.00000  Uiso   1.00
H271   H     0.28482   0.03492   0.57082   0.00000  Uiso   1.00
H272   H     0.18674   0.46505   0.46089   0.00000  Uiso   1.00
H273   H     0.09558   0.32395   0.41100   0.00000  Uiso   1.00
H274   H     0.35371   0.23060   0.41255   0.00000  Uiso   1.00
H275   H     0.40298   0.28144   0.61290   0.00000  Uiso   1.00
H276   H     0.09560   0.17622   0.58930   0.00000  Uiso   1.00
H277   H     0.31139   0.37848   0.53916   0.00000  Uiso   1.00
H278   H     0.28490   0.12154   0.56872   0.00000  Uiso   1.00
H279   H     0.18861   0.37844   0.46084   0.00000  Uiso   1.00
H280   H     0.02805   0.30018   0.43992   0.00000  Uiso   1.00
H281   H     0.47160   0.22832   0.42247   0.00000  Uiso   1.00
H282   H     0.47093   0.27127   0.57673   0.00000  Uiso   1.00
H283   H     0.02803   0.19970   0.56011   0.00000  Uiso   1.00
H284   H     0.21514   0.03491   0.42920   0.00000  Uiso   1.00
N285   N     0.25000   0.12624   0.50000   0.00000  Uiso   1.00
N286   N     0.25000   0.37376   0.50000   0.00000  Uiso   1.00
O287   O     0.18453   0.28974   0.50000   0.00000  Uiso   1.00
O288   O     0.38641   0.22608   0.41005   0.00000  Uiso   1.00
O289   O     0.38194   0.27407   0.58530   0.00000  Uiso   1.00
O290   O     0.11687   0.19400   0.56800   0.00000  Uiso   1.00
O291   O     0.31547   0.21026   0.50000   0.00000  Uiso   1.00
O292   O     0.31547   0.28974   0.50000   0.00000  Uiso   1.00
O293   O     0.18453   0.21026   0.50000   0.00000  Uiso   1.00
O294   O     0.25000   0.28973   0.42845   0.00000  Uiso   1.00
O295   O     0.25000   0.21027   0.57155   0.00000  Uiso   1.00
O296   O     0.25000   0.28973   0.57155   0.00000  Uiso   1.00
O297   O     0.25000   0.21027   0.42845   0.00000  Uiso   1.00
O298   O     0.11685   0.30610   0.43223   0.00000  Uiso   1.00
Zn299  Zn    0.25000   0.30307   0.50000   0.00000  Uiso   1.00
Zn300  Zn    0.25000   0.19693   0.50000   0.00000  Uiso   1.00
C301   C     0.66394   0.25000   0.50004   0.00000  Uiso   1.00
C302   C     0.71498   0.44735   0.47782   0.00000  Uiso   1.00
C303   C     0.74997   0.25000   0.40619   0.00000  Uiso   1.00
C304   C     0.75005   0.25000   0.59381   0.00000  Uiso   1.00
C305   C     0.74998   0.02668   0.50001   0.00000  Uiso   1.00
C306   C     0.74999   0.47331   0.50001   0.00000  Uiso   1.00
C307   C     0.75003   0.25000   0.35512   0.00000  Uiso   1.00
C308   C     0.75006   0.24999   0.64488   0.00000  Uiso   1.00
C309   C     0.54656   0.27836   0.46598   0.00000  Uiso   1.00
C310   C     0.95313   0.23776   0.45588   0.00000  Uiso   1.00
C311   C     0.95263   0.26186   0.54317   0.00000  Uiso   1.00
C312   C     0.83588   0.25002   0.49974   0.00000  Uiso   1.00
C313   C     0.54655   0.22157   0.53411   0.00000  Uiso   1.00
C314   C     0.59309   0.27883   0.46585   0.00000  Uiso   1.00
C315   C     0.90691   0.23776   0.45474   0.00000  Uiso   1.00
C316   C     0.90611   0.26234   0.54302   0.00000  Uiso   1.00
C317   C     0.59309   0.22120   0.53433   0.00000  Uiso   1.00
C318   C     0.61595   0.25000   0.50007   0.00000  Uiso   1.00
C319   C     0.88359   0.25010   0.49885   0.00000  Uiso   1.00
C320   C     0.52376   0.24990   0.49998   0.00000  Uiso   1.00
C321   C     0.97568   0.24973   0.49973   0.00000  Uiso   1.00
C322   C     0.73047   0.10221   0.46162   0.00000  Uiso   1.00
C323   C     0.78429   0.39779   0.52191   0.00000  Uiso   1.00
C324   C     0.76951   0.10222   0.53839   0.00000  Uiso   1.00
C325   C     0.71571   0.39776   0.47810   0.00000  Uiso   1.00
C326   C     0.73021   0.05262   0.46081   0.00000  Uiso   1.00
C327   C     0.78500   0.44738   0.52220   0.00000  Uiso   1.00
C328   C     0.76975   0.05263   0.53921   0.00000  Uiso   1.00
H329   H     0.71509   0.12152   0.43129   0.00000  Uiso   1.00
H330   H     0.81324   0.46510   0.53912   0.00000  Uiso   1.00
H331   H     0.78482   0.03492   0.57082   0.00000  Uiso   1.00
H332   H     0.68674   0.46505   0.46089   0.00000  Uiso   1.00
H333   H     0.59558   0.32395   0.41100   0.00000  Uiso   1.00
H334   H     0.85371   0.23060   0.41255   0.00000  Uiso   1.00
H335   H     0.90298   0.28144   0.61290   0.00000  Uiso   1.00
H336   H     0.59560   0.17622   0.58930   0.00000  Uiso   1.00
H337   H     0.81139   0.37848   0.53916   0.00000  Uiso   1.00
H338   H     0.78490   0.12154   0.56872   0.00000  Uiso   1.00
H339   H     0.68861   0.37844   0.46084   0.00000  Uiso   1.00
H340   H     0.52805   0.30018   0.43992   0.00000  Uiso   1.00
H341   H     0.97160   0.22832   0.42247   0.00000  Uiso   1.00
H342   H     0.97093   0.27127   0.57673   0.00000  Uiso   1.00
H343   H     0.52803   0.19970   0.56011   0.00000  Uiso   1.00
H344   H     0.71514   0.03491   0.42920   0.00000  Uiso   1.00
N345   N     0.75000   0.12624   0.50000   0.00000  Uiso   1.00
N346   N     0.75000   0.37376   0.50000   0.00000  Uiso   1.00
O347   O     0.68453   0.28974   0.50000   0.00000  Uiso   1.00
O348   O     0.88641   0.22608   0.41005   0.00000  Uiso   1.00
O349   O     0.88194   0.27407   0.58530   0.00000  Uiso   1.00
O350   O     0.61687   0.19400   0.56800   0.00000  Uiso   1.00
O351   O     0.81547   0.21026   0.50000   0.00000  Uiso   1.00
O352   O     0.81547   0.28974   0.50000   0.00000  Uiso   1.00
O353   O     0.68453   0.21026   0.50000   0.00000  Uiso   1.00
O354   O     0.75000   0.28973   0.42845   0.00000  Uiso   1.00
O355   O     0.75000   0.21027   0.57155   0.00000  Uiso   1.00
O356   O     0.75000   0.28973   0.57155   0.00000  Uiso   1.00
O357   O     0.75000   0.21027   0.42845   0.00000  Uiso   1.00
O358   O     0.61685   0.30610   0.43223   0.00000  Uiso   1.00
Zn359  Zn    0.75000   0.30307   0.50000   0.00000  Uiso   1.00
Zn360  Zn    0.75000   0.19693   0.50000   0.00000  Uiso   1.00
C361   C     0.16394   0.75000   0.50004   0.00000  Uiso   1.00
C362   C     0.21498   0.94735   0.47782   0.00000  Uiso   1.00
C363   C     0.24997   0.75000   0.40619   0.00000  Uiso   1.00
C364   C     0.25005   0.75000   0.59381   0.00000  Uiso   1.00
C365   C     0.24998   0.52668   0.50001   0.00000  Uiso   1.00
C366   C     0.24999   0.97331   0.50001   0.00000  Uiso   1.00
C367   C     0.25003   0.75000   0.35512   0.00000  Uiso   1.00
C368   C     0.25006   0.74999   0.64488   0.00000  Uiso   1.00
C369   C     0.04656   0.77836   0.46598   0.00000  Uiso   1.00
C370   C     0.45313   0.73776   0.45588   0.00000  Uiso   1.00
C371   C     0.45263   0.76186   0.54317   0.00000  Uiso   1.00
C372   C     0.33588   0.75002   0.49974   0.00000  Uiso   1.00
C373   C     0.04655   0.72157   0.53411   0.00000  Uiso   1.00
C374   C     0.09309   0.77883   0.46585   0.00000  Uiso   1.00
C375   C     0.40691   0.73776   0.45474   0.00000  Uiso   1.00
C376   C     0.40611   0.76234   0.54302   0.00000  Uiso   1.00
C377   C     0.09309   0.72120   0.53433   0.00000  Uiso   1.00
C378   C     0.11595   0.75000   0.50007   0.00000  Uiso   1.00
C379   C     0.38359   0.75010   0.49885   0.00000  Uiso   1.00
C380   C     0.02376   0.74990   0.49998   0.00000  Uiso   1.00
C381   C     0.47568   0.74973   0.49973   0.00000  Uiso   1.00
C382   C     0.23047   0.60221   0.46162   0.00000  Uiso   1.00
C383   C     0.28429   0.89779   0.52191   0.00000  Uiso   1.00
C384   C     0.26951   0.60222   0.53839   0.00000  Uiso   1.00
C385   C     0.21571   0.89776   0.47810   0.00000  Uiso   1.00
C386   C     0.23021   0.55262   0.46081   0.00000  Uiso   1.00
C387   C     0.28500   0.94738   0.52220   0.00000  Uiso   1.00
C388   C     0.26975   0.55263   0.53921   0.00000  Uiso   1.00
H389   H     0.21509   0.62152   0.43129   0.00000  Uiso   1.00
H390   H     0.31324   0.96510   0.53912   0.00000  Uiso   1.00
H391   H     0.28482   0.53492   0.57082   0.00000  Uiso   1.00
H392   H     0.18674   0.96505   0.46089   0.00000  Uiso   1.00
H393   H     0.09558   0.82395   0.41100   0.00000  Uiso   1.00
H394   H     0.35371   0.73060   0.41255   0.00000  Uiso   1.00
H395   H     0.40298   0.78144   0.61290   0.00000  Uiso   1.00
H396   H     0.09560   0.67622   0.58930   0.00000  Uiso   1.00
H397   H     0.31139   0.87848   0.53916   0.00000  Uiso   1.00
H398   H     0.28490   0.62154   0.56872   0.00000  Uiso   1.00
H399   H     0.18861   0.87844   0.46084   0.00000  Uiso   1.00
H400   H     0.02805   0.80018   0.43992   0.00000  Uiso   1.00
H401   H     0.47160   0.72832   0.42247   0.00000  Uiso   1.00
H402   H     0.47093   0.77127   0.57673   0.00000  Uiso   1.00
H403   H     0.02803   0.69970   0.56011   0.00000  Uiso   1.00
H404   H     0.21514   0.53491   0.42920   0.00000  Uiso   1.00
N405   N     0.25000   0.62624   0.50000   0.00000  Uiso   1.00
N406   N     0.25000   0.87376   0.50000   0.00000  Uiso   1.00
O407   O     0.18453   0.78974   0.50000   0.00000  Uiso   1.00
O408   O     0.38641   0.72608   0.41005   0.00000  Uiso   1.00
O409   O     0.38194   0.77407   0.58530   0.00000  Uiso   1.00
O410   O     0.11687   0.69400   0.56800   0.00000  Uiso   1.00
O411   O     0.31547   0.71026   0.50000   0.00000  Uiso   1.00
O412   O     0.31547   0.78974   0.50000   0.00000  Uiso   1.00
O413   O     0.18453   0.71026   0.50000   0.00000  Uiso   1.00
O414   O     0.25000   0.78973   0.42845   0.00000  Uiso   1.00
O415   O     0.25000   0.71027   0.57155   0.00000  Uiso   1.00
O416   O     0.25000   0.78973   0.57155   0.00000  Uiso   1.00
O417   O     0.25000   0.71027   0.42845   0.00000  Uiso   1.00
O418   O     0.11685   0.80610   0.43223   0.00000  Uiso   1.00
Zn419  Zn    0.25000   0.80307   0.50000   0.00000  Uiso   1.00
Zn420  Zn    0.25000   0.69693   0.50000   0.00000  Uiso   1.00
C421   C     0.66394   0.75000   0.50004   0.00000  Uiso   1.00
C422   C     0.71498   0.94735   0.47782   0.00000  Uiso   1.00
C423   C     0.74997   0.75000   0.40619   0.00000  Uiso   1.00
C424   C     0.75005   0.75000   0.59381   0.00000  Uiso   1.00
C425   C     0.74998   0.52668   0.50001   0.00000  Uiso   1.00
C426   C     0.74999   0.97331   0.50001   0.00000  Uiso   1.00
C427   C     0.75003   0.75000   0.35512   0.00000  Uiso   1.00
C428   C     0.75006   0.74999   0.64488   0.00000  Uiso   1.00
C429   C     0.54656   0.77836   0.46598   0.00000  Uiso   1.00
C430   C     0.95313   0.73776   0.45588   0.00000  Uiso   1.00
C431   C     0.95263   0.76186   0.54317   0.00000  Uiso   1.00
C432   C     0.83588   0.75002   0.49974   0.00000  Uiso   1.00
C433   C     0.54655   0.72157   0.53411   0.00000  Uiso   1.00
C434   C     0.59309   0.77883   0.46585   0.00000  Uiso   1.00
C435   C     0.90691   0.73776   0.45474   0.00000  Uiso   1.00
C436   C     0.90611   0.76234   0.54302   0.00000  Uiso   1.00
C437   C     0.59309   0.72120   0.53433   0.00000  Uiso   1.00
C438   C     0.61595   0.75000   0.50007   0.00000  Uiso   1.00
C439   C     0.88359   0.75010   0.49885   0.00000  Uiso   1.00
C440   C     0.52376   0.74990   0.49998   0.00000  Uiso   1.00
C441   C     0.97568   0.74973   0.49973   0.00000  Uiso   1.00
C442   C     0.73047   0.60221   0.46162   0.00000  Uiso   1.00
C443   C     0.78429   0.89779   0.52191   0.00000  Uiso   1.00
C444   C     0.76951   0.60222   0.53839   0.00000  Uiso   1.00
C445   C     0.71571   0.89776   0.47810   0.00000  Uiso   1.00
C446   C     0.73021   0.55262   0.46081   0.00000  Uiso   1.00
C447   C     0.78500   0.94738   0.52220   0.00000  Uiso   1.00
C448   C     0.76975   0.55263   0.53921   0.00000  Uiso   1.00
H449   H     0.71509   0.62152   0.43129   0.00000  Uiso   1.00
H450   H     0.81324   0.96510   0.53912   0.00000  Uiso   1.00
H451   H     0.78482   0.53492   0.57082   0.00000  Uiso   1.00
H452   H     0.68674   0.96505   0.46089   0.00000  Uiso   1.00
H453   H     0.59558   0.82395   0.41100   0.00000  Uiso   1.00
H454   H     0.85371   0.73060   0.41255   0.00000  Uiso   1.00
H455   H     0.90298   0.78144   0.61290   0.00000  Uiso   1.00
H456   H     0.59560   0.67622   0.58930   0.00000  Uiso   1.00
H457   H     0.81139   0.87848   0.53916   0.00000  Uiso   1.00
H458   H     0.78490   0.62154   0.56872   0.00000  Uiso   1.00
H459   H     0.68861   0.87844   0.46084   0.00000  Uiso   1.00
H460   H     0.52805   0.80018   0.43992   0.00000  Uiso   1.00
H461   H     0.97160   0.72832   0.42247   0.00000  Uiso   1.00
H462   H     0.97093   0.77127   0.57673   0.00000  Uiso   1.00
H463   H     0.52803   0.69970   0.56011   0.00000  Uiso   1.00
H464   H     0.71514   0.53491   0.42920   0.00000  Uiso   1.00
N465   N     0.75000   0.62624   0.50000   0.00000  Uiso   1.00
N466   N     0.75000   0.87376   0.50000   0.00000  Uiso   1.00
O467   O     0.68453   0.78974   0.50000   0.00000  Uiso   1.00
O468   O     0.88641   0.72608   0.41005   0.00000  Uiso   1.00
O469   O     0.88194   0.77407   0.58530   0.00000  Uiso   1.00
O470   O     0.61687   0.69400   0.56800   0.00000  Uiso   1.00
O471   O     0.81547   0.71026   0.50000   0.00000  Uiso   1.00
O472   O     0.81547   0.78974   0.50000   0.00000  Uiso   1.00
O473   O     0.68453   0.71026   0.50000   0.00000  Uiso   1.00
O474   O     0.75000   0.78973   0.42845   0.00000  Uiso   1.00
O475   O     0.75000   0.71027   0.57155   0.00000  Uiso   1.00
O476   O     0.75000   0.78973   0.57155   0.00000  Uiso   1.00
O477   O     0.75000   0.71027   0.42845   0.00000  Uiso   1.00
O478   O     0.61685   0.80610   0.43223   0.00000  Uiso   1.00
Zn479  Zn    0.75000   0.80307   0.50000   0.00000  Uiso   1.00
Zn480  Zn    0.75000   0.69693   0.50000   0.00000  Uiso   1.00
C481   C     0.16394   0.25000   0.83337   0.00000  Uiso   1.00
C482   C     0.21498   0.44735   0.81115   0.00000  Uiso   1.00
C483   C     0.24997   0.25000   0.73952   0.00000  Uiso   1.00
C484   C     0.25005   0.25000   0.92714   0.00000  Uiso   1.00
C485   C     0.24998   0.02668   0.83334   0.00000  Uiso   1.00
C486   C     0.24999   0.47331   0.83334   0.00000  Uiso   1.00
C487   C     0.25003   0.25000   0.68845   0.00000  Uiso   1.00
C488   C     0.25006   0.24999   0.97822   0.00000  Uiso   1.00
C489   C     0.04656   0.27836   0.79931   0.00000  Uiso   1.00
C490   C     0.45313   0.23776   0.78921   0.00000  Uiso   1.00
C491   C     0.45263   0.26186   0.87650   0.00000  Uiso   1.00
C492   C     0.33588   0.25002   0.83308   0.00000  Uiso   1.00
C493   C     0.04655   0.22157   0.86744   0.00000  Uiso   1.00
C494   C     0.09309   0.27883   0.79918   0.00000  Uiso   1.00
C495   C     0.40691   0.23776   0.78807   0.00000  Uiso   1.00
C496   C     0.40611   0.26234   0.87636   0.00000  Uiso   1.00
C497   C     0.09309   0.22120   0.86766   0.00000  Uiso   1.00
C498   C     0.11595   0.25000   0.83341   0.00000  Uiso   1.00
C499   C     0.38359   0.25010   0.83218   0.00000  Uiso   1.00
C500   C     0.02376   0.24990   0.83332   0.00000  Uiso   1.00
C501   C     0.47568   0.24973   0.83306   0.00000  Uiso   1.00
C502   C     0.23047   0.10221   0.79496   0.00000  Uiso   1.00
C503   C     0.28429   0.39779   0.85524   0.00000  Uiso   1.00
C504   C     0.26951   0.10222   0.87172   0.00000  Uiso   1.00
C505   C     0.21571   0.39776   0.81143   0.00000  Uiso   1.00
C506   C     0.23021   0.05262   0.79415   0.00000  Uiso   1.00
C507   C     0.28500   0.44738   0.85553   0.00000  Uiso   1.00
C508   C     0.26975   0.05263   0.87254   0.00000  Uiso   1.00
H509   H     0.21509   0.12152   0.76462   0.00000  Uiso   1.00
H510   H     0.31324   0.46510   0.87246   0.00000  Uiso   1.00
H511   H     0.28482   0.03492   0.90416   0.00000  Uiso   1.00
H512   H     0.18674   0.46505   0.79423   0.00000  Uiso   1.00
H513   H     0.09558   0.32395   0.74434   0.00000  Uiso   1.00
H514   H     0.35371   0.23060   0.74588   0.00000  Uiso   1.00
H515   H     0.40298   0.28144   0.94623   0.00000  Uiso   1.00
H516   H     0.09560   0.17622   0.92263   0.00000  Uiso   1.00
H517   H     0.31139   0.37848   0.87250   0.00000  Uiso   1.00
H518   H     0.28490   0.12154   0.90205   0.00000  Uiso   1.00
H519   H     0.18861   0.37844   0.79418   0.00000  Uiso   1.00
H520   H     0.02805   0.30018   0.77325   0.00000  Uiso   1.00
H521   H     0.47160   0.22832   0.75580   0.00000  Uiso   1.00
H522   H     0.47093   0.27127   0.91006   0.00000  Uiso   1.00
H523   H     0.02803   0.19970   0.89344   0.00000  Uiso   1.00
H524   H     0.21514   0.03491   0.76254   0.00000  Uiso   1.00
N525   N     0.25000   0.12624   0.83333   0.00000  Uiso   1.00
N526   N     0.25000   0.37376   0.83333   0.00000  Uiso   1.00
O527   O     0.18453   0.28974   0.83334   0.00000  Uiso   1.00
O528   O     0.38641   0.22608   0.74338   0.00000  Uiso   1.00
O529   O     0.38194   0.27407   0.91864   0.00000  Uiso   1.00
O530   O     0.11687   0.19400   0.90133   0.00000  Uiso   1.00
O531   O     0.31547   0.21026   0.83333   0.00000  Uiso   1.00
O532   O     0.31547   0.28974   0.83333   0.00000  Uiso   1.00
O533   O     0.18453   0.21026   0.83334   0.00000  Uiso   1.00
O534   O     0.25000   0.28973   0.76178   0.00000  Uiso   1.00
O535   O     0.25000   0.21027   0.90489   0.00000  Uiso   1.00
O536   O     0.25000   0.28973   0.90489   0.00000  Uiso   1.00
O537   O     0.25000   0.21027   0.76178   0.00000  Uiso   1.00
O538   O     0.11685   0.30610   0.76557   0.00000  Uiso   1.00
Zn539  Zn    0.25000   0.30307   0.83333   0.00000  Uiso   1.00
Zn540  Zn    0.25000   0.19693   0.83333   0.00000  Uiso   1.00
C541   C     0.66394   0.25000   0.83337   0.00000  Uiso   1.00
C542   C     0.71498   0.44735   0.81115   0.00000  Uiso   1.00
C543   C     0.74997   0.25000   0.73952   0.00000  Uiso   1.00
C544   C     0.75005   0.25000   0.92714   0.00000  Uiso   1.00
C545   C     0.74998   0.02668   0.83334   0.00000  Uiso   1.00
C546   C     0.74999   0.47331   0.83334   0.00000  Uiso   1.00
C547   C     0.75003   0.25000   0.68845   0.00000  Uiso   1.00
C548   C     0.75006   0.24999   0.97822   0.00000  Uiso   1.00
C549   C     0.54656   0.27836   0.79931   0.00000  Uiso   1.00
C550   C     0.95313   0.23776   0.78921   0.00000  Uiso   1.00
C551   C     0.95263   0.26186   0.87650   0.00000  Uiso   1.00
C552   C     0.83588   0.25002   0.83308   0.00000  Uiso   1.00
C553   C     0.54655   0.22157   0.86744   0.00000  Uiso   1.00
C554   C     0.59309   0.27883   0.79918   0.00000  Uiso   1.00
C555   C     0.90691   0.23776   0.78807   0.00000  Uiso   1.00
C556   C     0.90611   0.26234   0.87636   0.00000  Uiso   1.00
C557   C     0.59309   0.22120   0.86766   0.00000  Uiso   1.00
C558   C     0.61595   0.25000   0.83341   0.00000  Uiso   1.00
C559   C     0.88359   0.25010   0.83218   0.00000  Uiso   1.00
C560   C     0.52376   0.24990   0.83332   0.00000  Uiso   1.00
C561   C     0.97568   0.24973   0.83306   0.00000  Uiso   1.00
C562   C     0.73047   0.10221   0.79496   0.00000  Uiso   1.00
C563   C     0.78429   0.39779   0.85524   0.00000  Uiso   1.00
C564   C     0.76951   0.10222   0.87172   0.00000  Uiso   1.00
C565   C     0.71571   0.39776   0.81143   0.00000  Uiso   1.00
C566   C     0.73021   0.05262   0.79415   0.00000  Uiso   1.00
C567   C     0.78500   0.44738   0.85553   0.00000  Uiso   1.00
C568   C     0.76975   0.05263   0.87254   0.00000  Uiso   1.00
H569   H     0.71509   0.12152   0.76462   0.00000  Uiso   1.00
H570   H     0.81324   0.46510   0.87246   0.00000  Uiso   1.00
H571   H     0.78482   0.03492   0.90416   0.00000  Uiso   1.00
H572   H     0.68674   0.46505   0.79423   0.00000  Uiso   1.00
H573   H     0.59558   0.32395   0.74434   0.00000  Uiso   1.00
H574   H     0.85371   0.23060   0.74588   0.00000  Uiso   1.00
H575   H     0.90298   0.28144   0.94623   0.00000  Uiso   1.00
H576   H     0.59560   0.17622   0.92263   0.00000  Uiso   1.00
H577   H     0.81139   0.37848   0.87250   0.00000  Uiso   1.00
H578   H     0.78490   0.12154   0.90205   0.00000  Uiso   1.00
H579   H     0.68861   0.37844   0.79418   0.00000  Uiso   1.00
H580   H     0.52805   0.30018   0.77325   0.00000  Uiso   1.00
H581   H     0.97160   0.22832   0.75580   0.00000  Uiso   1.00
H582   H     0.97093   0.27127   0.91006   0.00000  Uiso   1.00
H583   H     0.52803   0.19970   0.89344   0.00000  Uiso   1.00
H584   H     0.71514   0.03491   0.76254   0.00000  Uiso   1.00
N585   N     0.75000   0.12624   0.83333   0.00000  Uiso   1.00
N586   N     0.75000   0.37376   0.83333   0.00000  Uiso   1.00
O587   O     0.68453   0.28974   0.83334   0.00000  Uiso   1.00
O588   O     0.88641   0.22608   0.74338   0.00000  Uiso   1.00
O589   O     0.88194   0.27407   0.91864   0.00000  Uiso   1.00
O590   O     0.61687   0.19400   0.90133   0.00000  Uiso   1.00
O591   O     0.81547   0.21026   0.83333   0.00000  Uiso   1.00
O592   O     0.81547   0.28974   0.83333   0.00000  Uiso   1.00
O593   O     0.68453   0.21026   0.83334   0.00000  Uiso   1.00
O594   O     0.75000   0.28973   0.76178   0.00000  Uiso   1.00
O595   O     0.75000   0.21027   0.90489   0.00000  Uiso   1.00
O596   O     0.75000   0.28973   0.90489   0.00000  Uiso   1.00
O597   O     0.75000   0.21027   0.76178   0.00000  Uiso   1.00
O598   O     0.61685   0.30610   0.76557   0.00000  Uiso   1.00
Zn599  Zn    0.75000   0.30307   0.83333   0.00000  Uiso   1.00
Zn600  Zn    0.75000   0.19693   0.83333   0.00000  Uiso   1.00
C601   C     0.16394   0.75000   0.83337   0.00000  Uiso   1.00
C602   C     0.21498   0.94735   0.81115   0.00000  Uiso   1.00
C603   C     0.24997   0.75000   0.73952   0.00000  Uiso   1.00
C604   C     0.25005   0.75000   0.92714   0.00000  Uiso   1.00
C605   C     0.24998   0.52668   0.83334   0.00000  Uiso   1.00
C606   C     0.24999   0.97331   0.83334   0.00000  Uiso   1.00
C607   C     0.25003   0.75000   0.68845   0.00000  Uiso   1.00
C608   C     0.25006   0.74999   0.97822   0.00000  Uiso   1.00
C609   C     0.04656   0.77836   0.79931   0.00000  Uiso   1.00
C610   C     0.45313   0.73776   0.78921   0.00000  Uiso   1.00
C611   C     0.45263   0.76186   0.87650   0.00000  Uiso   1.00
C612   C     0.33588   0.75002   0.83308   0.00000  Uiso   1.00
C613   C     0.04655   0.72157   0.86744   0.00000  Uiso   1.00
C614   C     0.09309   0.77883   0.79918   0.00000  Uiso   1.00
C615   C     0.40691   0.73776   0.78807   0.00000  Uiso   1.00
C616   C     0.40611   0.76234   0.87636   0.00000  Uiso   1.00
C617   C     0.09309   0.72120   0.86766   0.00000  Uiso   1.00
C618   C     0.11595   0.75000   0.83341   0.00000  Uiso   1.00
C619   C     0.38359   0.75010   0.83218   0.00000  Uiso   1.00
C620   C     0.02376   0.74990   0.83332   0.00000  Uiso   1.00
C621   C     0.47568   0.74973   0.83306   0.00000  Uiso   1.00
C622   C     0.23047   0.60221   0.79496   0.00000  Uiso   1.00
C623   C     0.28429   0.89779   0.85524   0.00000  Uiso   1.00
C624   C     0.26951   0.60222   0.87172   0.00000  Uiso   1.00
C625   C     0.21571   0.89776   0.81143   0.00000  Uiso   1.00
C626   C     0.23021   0.55262   0.79415   0.00000  Uiso   1.00
C627   C     0.28500   0.94738   0.85553   0.00000  Uiso   1.00
C628   C     0.26975   0.55263   0.87254   0.00000  Uiso   1.00
H629   H     0.21509   0.62152   0.76462   0.00000  Uiso   1.00
H630   H     0.31324   0.96510   0.87246   0.00000  Uiso   1.00
H631   H     0.28482   0.53492   0.90416   0.00000  Uiso   1.00
H632   H     0.18674   0.96505   0.79423   0.00000  Uiso   1.00
H633   H     0.09558   0.82395   0.74434   0.00000  Uiso   1.00
H634   H     0.35371   0.73060   0.74588   0.00000  Uiso   1.00
H635   H     0.40298   0.78144   0.94623   0.00000  Uiso   1.00
H636   H     0.09560   0.67622   0.92263   0.00000  Uiso   1.00
H637   H     0.31139   0.87848   0.87250   0.00000  Uiso   1.00
H638   H     0.28490   0.62154   0.90205   0.00000  Uiso   1.00
H639   H     0.18861   0.87844   0.79418   0.00000  Uiso   1.00
H640   H     0.02805   0.80018   0.77325   0.00000  Uiso   1.00
H641   H     0.47160   0.72832   0.75580   0.00000  Uiso   1.00
H642   H     0.47093   0.77127   0.91006   0.00000  Uiso   1.00
H643   H     0.02803   0.69970   0.89344   0.00000  Uiso   1.00
H644   H     0.21514   0.53491   0.76254   0.00000  Uiso   1.00
N645   N     0.25000   0.62624   0.83333   0.00000  Uiso   1.00
N646   N     0.25000   0.87376   0.83333   0.00000  Uiso   1.00
O647   O     0.18453   0.78974   0.83334   0.00000  Uiso   1.00
O648   O     0.38641   0.72608   0.74338   0.00000  Uiso   1.00
O649   O     0.38194   0.77407   0.91864   0.00000  Uiso   1.00
O650   O     0.11687   0.69400   0.90133   0.00000  Uiso   1.00
O651   O     0.31547   0.71026   0.83333   0.00000  Uiso   1.00
O652   O     0.31547   0.78974   0.83333   0.00000  Uiso   1.00
O653   O     0.18453   0.71026   0.83334   0.00000  Uiso   1.00
O654   O     0.25000   0.78973   0.76178   0.00000  Uiso   1.00
O655   O     0.25000   0.71027   0.90489   0.00000  Uiso   1.00
O656   O     0.25000   0.78973   0.90489   0.00000  Uiso   1.00
O657   O     0.25000   0.71027   0.76178   0.00000  Uiso   1.00
O658   O     0.11685   0.80610   0.76557   0.00000  Uiso   1.00
Zn659  Zn    0.25000   0.80307   0.83333   0.00000  Uiso   1.00
Zn660  Zn    0.25000   0.69693   0.83333   0.00000  Uiso   1.00
C661   C     0.66394   0.75000   0.83337   0.00000  Uiso   1.00
C662   C     0.71498   0.94735   0.81115   0.00000  Uiso   1.00
C663   C     0.74997   0.75000   0.73952   0.00000  Uiso   1.00
C664   C     0.75005   0.75000   0.92714   0.00000  Uiso   1.00
C665   C     0.74998   0.52668   0.83334   0.00000  Uiso   1.00
C666   C     0.74999   0.97331   0.83334   0.00000  Uiso   1.00
C667   C     0.75003   0.75000   0.68845   0.00000  Uiso   1.00
C668   C     0.75006   0.74999   0.97822   0.00000  Uiso   1.00
C669   C     0.54656   0.77836   0.79931   0.00000  Uiso   1.00
C670   C     0.95313   0.73776   0.78921   0.00000  Uiso   1.00
C671   C     0.95263   0.76186   0.87650   0.00000  Uiso   1.00
C672   C     0.83588   0.75002   0.83308   0.00000  Uiso   1.00
C673   C     0.54655   0.72157   0.86744   0.00000  Uiso   1.00
C674   C     0.59309   0.77883   0.79918   0.00000  Uiso   1.00
C675   C     0.90691   0.73776   0.78807   0.00000  Uiso   1.00
C676   C     0.90611   0.76234   0.87636   0.00000  Uiso   1.00
C677   C     0.59309   0.72120   0.86766   0.00000  Uiso   1.00
C678   C     0.61595   0.75000   0.83341   0.00000  Uiso   1.00
C679   C     0.88359   0.75010   0.83218   0.00000  Uiso   1.00
C680   C     0.52376   0.74990   0.83332   0.00000  Uiso   1.00
C681   C     0.97568   0.74973   0.83306   0.00000  Uiso   1.00
C682   C     0.73047   0.60221   0.79496   0.00000  Uiso   1.00
C683   C     0.78429   0.89779   0.85524   0.00000  Uiso   1.00
C684   C     0.76951   0.60222   0.87172   0.00000  Uiso   1.00
C685   C     0.71571   0.89776   0.81143   0.00000  Uiso   1.00
C686   C     0.73021   0.55262   0.79415   0.00000  Uiso   1.00
C687   C     0.78500   0.94738   0.85553   0.00000  Uiso   1.00
C688   C     0.76975   0.55263   0.87254   0.00000  Uiso   1.00
H689   H     0.71509   0.62152   0.76462   0.00000  Uiso   1.00
H690   H     0.81324   0.96510   0.87246   0.00000  Uiso   1.00
H691   H     0.78482   0.53492   0.90416   0.00000  Uiso   1.00
H692   H     0.68674   0.96505   0.79423   0.00000  Uiso   1.00
H693   H     0.59558   0.82395   0.74434   0.00000  Uiso   1.00
H694   H     0.85371   0.73060   0.74588   0.00000  Uiso   1.00
H695   H     0.90298   0.78144   0.94623   0.00000  Uiso   1.00
H696   H     0.59560   0.67622   0.92263   0.00000  Uiso   1.00
H697   H     0.81139   0.87848   0.87250   0.00000  Uiso   1.00
H698   H     0.78490   0.62154   0.90205   0.00000  Uiso   1.00
H699   H     0.68861   0.87844   0.79418   0.00000  Uiso   1.00
H700   H     0.52805   0.80018   0.77325   0.00000  Uiso   1.00
H701   H     0.97160   0.72832   0.75580   0.00000  Uiso   1.00
H702   H     0.97093   0.77127   0.91006   0.00000  Uiso   1.00
H703   H     0.52803   0.69970   0.89344   0.00000  Uiso   1.00
H704   H     0.71514   0.53491   0.76254   0.00000  Uiso   1.00
N705   N     0.75000   0.62624   0.83333   0.00000  Uiso   1.00
N706   N     0.75000   0.87376   0.83333   0.00000  Uiso   1.00
O707   O     0.68453   0.78974   0.83334   0.00000  Uiso   1.00
O708   O     0.88641   0.72608   0.74338   0.00000  Uiso   1.00
O709   O     0.88194   0.77407   0.91864   0.00000  Uiso   1.00
O710   O     0.61687   0.69400   0.90133   0.00000  Uiso   1.00
O711   O     0.81547   0.71026   0.83333   0.00000  Uiso   1.00
O712   O     0.81547   0.78974   0.83333   0.00000  Uiso   1.00
O713   O     0.68453   0.71026   0.83334   0.00000  Uiso   1.00
O714   O     0.75000   0.78973   0.76178   0.00000  Uiso   1.00
O715   O     0.75000   0.71027   0.90489   0.00000  Uiso   1.00
O716   O     0.75000   0.78973   0.90489   0.00000  Uiso   1.00
O717   O     0.75000   0.71027   0.76178   0.00000  Uiso   1.00
O718   O     0.61685   0.80610   0.76557   0.00000  Uiso   1.00
Zn719  Zn    0.75000   0.80307   0.83333   0.00000  Uiso   1.00
Zn720  Zn    0.75000   0.69693   0.83333   0.00000  Uiso   1.00
loop_
_geom_bond_atom_site_label_1
_geom_bond_atom_site_label_2
_geom_bond_distance
_geom_bond_site_symmetry_2
_ccdc_geom_bond_type
C1     C18     1.435   .     S
C1     O53     1.285   .     A
C1     O47     1.285   .     A
C2     C6      1.411   .     A
C2     H32     1.082   .     S
C2     C25     1.408   .     A
C3     O57     1.275   .     A
C3     C7      1.366   .     S
C3     O54     1.275   .     A
C4     C8      1.366   .     S
C4     O55     1.275   .     A
C4     O56     1.275   .     A
C5     C28     1.411   .     A
C5     C26     1.411   .     A
C5     C126    1.515   1_545 S
C6     C27     1.411   .     A
C6     C125    1.515   .     S
C7     C488    1.165   1_554 S
C8     C247    1.165   .     S
C9     C14     1.392   .     A
C9     C20     1.394   .     A
C9     H40     1.084   .     S
C10    H41     1.084   .     S
C10    C21     1.395   .     A
C10    C15     1.383   .     A
C11    C16     1.391   .     A
C11    H42     1.084   .     S
C11    C21     1.394   .     A
C12    C19     1.427   .     S
C12    O51     1.283   .     A
C12    O52     1.282   .     A
C13    C17     1.392   .     A
C13    H43     1.084   .     S
C13    C20     1.394   .     A
C14    C18     1.405   .     A
C14    O58     1.383   .     S
C15    C19     1.415   .     A
C15    O48     1.383   .     S
C16    C19     1.403   .     A
C16    O49     1.383   .     S
C17    O50     1.383   .     S
C17    C18     1.405   .     A
C20    C81     1.438   1_455 S
C21    C80     1.438   .     S
C22    N45     1.363   .     A
C22    H29     1.082   .     S
C22    C26     1.408   .     A
C23    C27     1.408   .     A
C23    N46     1.363   .     A
C23    H37     1.082   .     S
C24    H38     1.082   .     S
C24    N45     1.363   .     A
C24    C28     1.408   .     A
C25    N46     1.363   .     A
C25    H39     1.082   .     S
C26    H44     1.082   .     S
C27    H30     1.082   .     S
C28    H31     1.082   .     S
H33    O58     0.992   .     S
H34    O48     0.988   .     S
H35    O49     0.992   .     S
H36    O50     0.992   .     S
N45    Zn60    2.006   .     S
N46    Zn59    2.006   .     S
O47    Zn59    1.994   .     S
O51    Zn60    1.994   .     S
O52    Zn59    1.994   .     S
O53    Zn60    1.994   .     S
O54    Zn59    1.951   .     S
O55    Zn60    1.951   .     S
O56    Zn59    1.951   .     S
O57    Zn60    1.951   .     S
C61    C78     1.435   .     S
C61    O113    1.285   .     A
C61    O107    1.285   .     A
C62    C66     1.411   .     A
C62    H92     1.082   .     S
C62    C85     1.408   .     A
C63    O117    1.275   .     A
C63    C67     1.366   .     S
C63    O114    1.275   .     A
C64    C68     1.366   .     S
C64    O115    1.275   .     A
C64    O116    1.275   .     A
C65    C88     1.411   .     A
C65    C86     1.411   .     A
C65    C186    1.515   1_545 S
C66    C87     1.411   .     A
C66    C185    1.515   .     S
C67    C548    1.165   1_554 S
C68    C307    1.165   .     S
C69    C74     1.392   .     A
C69    C80     1.394   .     A
C69    H100    1.084   .     S
C70    H101    1.084   .     S
C70    C81     1.395   .     A
C70    C75     1.383   .     A
C71    C76     1.391   .     A
C71    H102    1.084   .     S
C71    C81     1.394   .     A
C72    C79     1.427   .     S
C72    O111    1.283   .     A
C72    O112    1.282   .     A
C73    C77     1.392   .     A
C73    H103    1.084   .     S
C73    C80     1.394   .     A
C74    C78     1.405   .     A
C74    O118    1.383   .     S
C75    C79     1.415   .     A
C75    O108    1.383   .     S
C76    C79     1.403   .     A
C76    O109    1.383   .     S
C77    O110    1.383   .     S
C77    C78     1.405   .     A
C81    C20     1.438   1_655 S
C82    N105    1.363   .     A
C82    H89     1.082   .     S
C82    C86     1.408   .     A
C83    C87     1.408   .     A
C83    N106    1.363   .     A
C83    H97     1.082   .     S
C84    H98     1.082   .     S
C84    N105    1.363   .     A
C84    C88     1.408   .     A
C85    N106    1.363   .     A
C85    H99     1.082   .     S
C86    H104    1.082   .     S
C87    H90     1.082   .     S
C88    H91     1.082   .     S
H93    O118    0.992   .     S
H94    O108    0.988   .     S
H95    O109    0.992   .     S
H96    O110    0.992   .     S
N105   Zn120   2.006   .     S
N106   Zn119   2.006   .     S
O107   Zn119   1.994   .     S
O111   Zn120   1.994   .     S
O112   Zn119   1.994   .     S
O113   Zn120   1.994   .     S
O114   Zn119   1.951   .     S
O115   Zn120   1.951   .     S
O116   Zn119   1.951   .     S
O117   Zn120   1.951   .     S
C121   C138    1.435   .     S
C121   O173    1.285   .     A
C121   O167    1.285   .     A
C122   C126    1.411   .     A
C122   H152    1.082   .     S
C122   C145    1.408   .     A
C123   O177    1.275   .     A
C123   C127    1.366   .     S
C123   O174    1.275   .     A
C124   C128    1.366   .     S
C124   O175    1.275   .     A
C124   O176    1.275   .     A
C125   C148    1.411   .     A
C125   C146    1.411   .     A
C126   C147    1.411   .     A
C126   C5      1.515   1_565 S
C127   C608    1.165   1_554 S
C128   C367    1.165   .     S
C129   C134    1.392   .     A
C129   C140    1.394   .     A
C129   H160    1.084   .     S
C130   H161    1.084   .     S
C130   C141    1.395   .     A
C130   C135    1.383   .     A
C131   C136    1.391   .     A
C131   H162    1.084   .     S
C131   C141    1.394   .     A
C132   C139    1.427   .     S
C132   O171    1.283   .     A
C132   O172    1.282   .     A
C133   C137    1.392   .     A
C133   H163    1.084   .     S
C133   C140    1.394   .     A
C134   C138    1.405   .     A
C134   O178    1.383   .     S
C135   C139    1.415   .     A
C135   O168    1.383   .     S
C136   C139    1.403   .     A
C136   O169    1.383   .     S
C137   O170    1.383   .     S
C137   C138    1.405   .     A
C140   C201    1.438   1_455 S
C141   C200    1.438   .     S
C142   N165    1.363   .     A
C142   H149    1.082   .     S
C142   C146    1.408   .     A
C143   C147    1.408   .     A
C143   N166    1.363   .     A
C143   H157    1.082   .     S
C144   H158    1.082   .     S
C144   N165    1.363   .     A
C144   C148    1.408   .     A
C145   N166    1.363   .     A
C145   H159    1.082   .     S
C146   H164    1.082   .     S
C147   H150    1.082   .     S
C148   H151    1.082   .     S
H153   O178    0.992   .     S
H154   O168    0.988   .     S
H155   O169    0.992   .     S
H156   O170    0.992   .     S
N165   Zn180   2.006   .     S
N166   Zn179   2.006   .     S
O167   Zn179   1.994   .     S
O171   Zn180   1.994   .     S
O172   Zn179   1.994   .     S
O173   Zn180   1.994   .     S
O174   Zn179   1.951   .     S
O175   Zn180   1.951   .     S
O176   Zn179   1.951   .     S
O177   Zn180   1.951   .     S
C181   C198    1.435   .     S
C181   O233    1.285   .     A
C181   O227    1.285   .     A
C182   C186    1.411   .     A
C182   H212    1.082   .     S
C182   C205    1.408   .     A
C183   O237    1.275   .     A
C183   C187    1.366   .     S
C183   O234    1.275   .     A
C184   C188    1.366   .     S
C184   O235    1.275   .     A
C184   O236    1.275   .     A
C185   C208    1.411   .     A
C185   C206    1.411   .     A
C186   C207    1.411   .     A
C186   C65     1.515   1_565 S
C187   C668    1.165   1_554 S
C188   C427    1.165   .     S
C189   C194    1.392   .     A
C189   C200    1.394   .     A
C189   H220    1.084   .     S
C190   H221    1.084   .     S
C190   C201    1.395   .     A
C190   C195    1.383   .     A
C191   C196    1.391   .     A
C191   H222    1.084   .     S
C191   C201    1.394   .     A
C192   C199    1.427   .     S
C192   O231    1.283   .     A
C192   O232    1.282   .     A
C193   C197    1.392   .     A
C193   H223    1.084   .     S
C193   C200    1.394   .     A
C194   C198    1.405   .     A
C194   O238    1.383   .     S
C195   C199    1.415   .     A
C195   O228    1.383   .     S
C196   C199    1.403   .     A
C196   O229    1.383   .     S
C197   O230    1.383   .     S
C197   C198    1.405   .     A
C201   C140    1.438   1_655 S
C202   N225    1.363   .     A
C202   H209    1.082   .     S
C202   C206    1.408   .     A
C203   C207    1.408   .     A
C203   N226    1.363   .     A
C203   H217    1.082   .     S
C204   H218    1.082   .     S
C204   N225    1.363   .     A
C204   C208    1.408   .     A
C205   N226    1.363   .     A
C205   H219    1.082   .     S
C206   H224    1.082   .     S
C207   H210    1.082   .     S
C208   H211    1.082   .     S
H213   O238    0.992   .     S
H214   O228    0.988   .     S
H215   O229    0.992   .     S
H216   O230    0.992   .     S
N225   Zn240   2.006   .     S
N226   Zn239   2.006   .     S
O227   Zn239   1.994   .     S
O231   Zn240   1.994   .     S
O232   Zn239   1.994   .     S
O233   Zn240   1.994   .     S
O234   Zn239   1.951   .     S
O235   Zn240   1.951   .     S
O236   Zn239   1.951   .     S
O237   Zn240   1.951   .     S
C241   C258    1.435   .     S
C241   O293    1.285   .     A
C241   O287    1.285   .     A
C242   C246    1.411   .     A
C242   H272    1.082   .     S
C242   C265    1.408   .     A
C243   O297    1.275   .     A
C243   C247    1.366   .     S
C243   O294    1.275   .     A
C244   C248    1.366   .     S
C244   O295    1.275   .     A
C244   O296    1.275   .     A
C245   C268    1.411   .     A
C245   C266    1.411   .     A
C245   C366    1.515   1_545 S
C246   C267    1.411   .     A
C246   C365    1.515   .     S
C248   C487    1.165   .     S
C249   C254    1.392   .     A
C249   C260    1.394   .     A
C249   H280    1.084   .     S
C250   H281    1.084   .     S
C250   C261    1.395   .     A
C250   C255    1.383   .     A
C251   C256    1.391   .     A
C251   H282    1.084   .     S
C251   C261    1.394   .     A
C252   C259    1.427   .     S
C252   O291    1.283   .     A
C252   O292    1.282   .     A
C253   C257    1.392   .     A
C253   H283    1.084   .     S
C253   C260    1.394   .     A
C254   C258    1.405   .     A
C254   O298    1.383   .     S
C255   C259    1.415   .     A
C255   O288    1.383   .     S
C256   C259    1.403   .     A
C256   O289    1.383   .     S
C257   O290    1.383   .     S
C257   C258    1.405   .     A
C260   C321    1.438   1_455 S
C261   C320    1.438   .     S
C262   N285    1.363   .     A
C262   H269    1.082   .     S
C262   C266    1.408   .     A
C263   C267    1.408   .     A
C263   N286    1.363   .     A
C263   H277    1.082   .     S
C264   H278    1.082   .     S
C264   N285    1.363   .     A
C264   C268    1.408   .     A
C265   N286    1.363   .     A
C265   H279    1.082   .     S
C266   H284    1.082   .     S
C267   H270    1.082   .     S
C268   H271    1.082   .     S
H273   O298    0.992   .     S
H274   O288    0.988   .     S
H275   O289    0.992   .     S
H276   O290    0.992   .     S
N285   Zn300   2.006   .     S
N286   Zn299   2.006   .     S
O287   Zn299   1.994   .     S
O291   Zn300   1.994   .     S
O292   Zn299   1.994   .     S
O293   Zn300   1.994   .     S
O294   Zn299   1.951   .     S
O295   Zn300   1.951   .     S
O296   Zn299   1.951   .     S
O297   Zn300   1.951   .     S
C301   C318    1.435   .     S
C301   O353    1.285   .     A
C301   O347    1.285   .     A
C302   C306    1.411   .     A
C302   H332    1.082   .     S
C302   C325    1.408   .     A
C303   O357    1.275   .     A
C303   C307    1.366   .     S
C303   O354    1.275   .     A
C304   C308    1.366   .     S
C304   O355    1.275   .     A
C304   O356    1.275   .     A
C305   C328    1.411   .     A
C305   C326    1.411   .     A
C305   C426    1.515   1_545 S
C306   C327    1.411   .     A
C306   C425    1.515   .     S
C308   C547    1.165   .     S
C309   C314    1.392   .     A
C309   C320    1.394   .     A
C309   H340    1.084   .     S
C310   H341    1.084   .     S
C310   C321    1.395   .     A
C310   C315    1.383   .     A
C311   C316    1.391   .     A
C311   H342    1.084   .     S
C311   C321    1.394   .     A
C312   C319    1.427   .     S
C312   O351    1.283   .     A
C312   O352    1.282   .     A
C313   C317    1.392   .     A
C313   H343    1.084   .     S
C313   C320    1.394   .     A
C314   C318    1.405   .     A
C314   O358    1.383   .     S
C315   C319    1.415   .     A
C315   O348    1.383   .     S
C316   C319    1.403   .     A
C316   O349    1.383   .     S
C317   O350    1.383   .     S
C317   C318    1.405   .     A
C321   C260    1.438   1_655 S
C322   N345    1.363   .     A
C322   H329    1.082   .     S
C322   C326    1.408   .     A
C323   C327    1.408   .     A
C323   N346    1.363   .     A
C323   H337    1.082   .     S
C324   H338    1.082   .     S
C324   N345    1.363   .     A
C324   C328    1.408   .     A
C325   N346    1.363   .     A
C325   H339    1.082   .     S
C326   H344    1.082   .     S
C327   H330    1.082   .     S
C328   H331    1.082   .     S
H333   O358    0.992   .     S
H334   O348    0.988   .     S
H335   O349    0.992   .     S
H336   O350    0.992   .     S
N345   Zn360   2.006   .     S
N346   Zn359   2.006   .     S
O347   Zn359   1.994   .     S
O351   Zn360   1.994   .     S
O352   Zn359   1.994   .     S
O353   Zn360   1.994   .     S
O354   Zn359   1.951   .     S
O355   Zn360   1.951   .     S
O356   Zn359   1.951   .     S
O357   Zn360   1.951   .     S
C361   C378    1.435   .     S
C361   O413    1.285   .     A
C361   O407    1.285   .     A
C362   C366    1.411   .     A
C362   H392    1.082   .     S
C362   C385    1.408   .     A
C363   O417    1.275   .     A
C363   C367    1.366   .     S
C363   O414    1.275   .     A
C364   C368    1.366   .     S
C364   O415    1.275   .     A
C364   O416    1.275   .     A
C365   C388    1.411   .     A
C365   C386    1.411   .     A
C366   C387    1.411   .     A
C366   C245    1.515   1_565 S
C368   C607    1.165   .     S
C369   C374    1.392   .     A
C369   C380    1.394   .     A
C369   H400    1.084   .     S
C370   H401    1.084   .     S
C370   C381    1.395   .     A
C370   C375    1.383   .     A
C371   C376    1.391   .     A
C371   H402    1.084   .     S
C371   C381    1.394   .     A
C372   C379    1.427   .     S
C372   O411    1.283   .     A
C372   O412    1.282   .     A
C373   C377    1.392   .     A
C373   H403    1.084   .     S
C373   C380    1.394   .     A
C374   C378    1.405   .     A
C374   O418    1.383   .     S
C375   C379    1.415   .     A
C375   O408    1.383   .     S
C376   C379    1.403   .     A
C376   O409    1.383   .     S
C377   O410    1.383   .     S
C377   C378    1.405   .     A
C380   C441    1.438   1_455 S
C381   C440    1.438   .     S
C382   N405    1.363   .     A
C382   H389    1.082   .     S
C382   C386    1.408   .     A
C383   C387    1.408   .     A
C383   N406    1.363   .     A
C383   H397    1.082   .     S
C384   H398    1.082   .     S
C384   N405    1.363   .     A
C384   C388    1.408   .     A
C385   N406    1.363   .     A
C385   H399    1.082   .     S
C386   H404    1.082   .     S
C387   H390    1.082   .     S
C388   H391    1.082   .     S
H393   O418    0.992   .     S
H394   O408    0.988   .     S
H395   O409    0.992   .     S
H396   O410    0.992   .     S
N405   Zn420   2.006   .     S
N406   Zn419   2.006   .     S
O407   Zn419   1.994   .     S
O411   Zn420   1.994   .     S
O412   Zn419   1.994   .     S
O413   Zn420   1.994   .     S
O414   Zn419   1.951   .     S
O415   Zn420   1.951   .     S
O416   Zn419   1.951   .     S
O417   Zn420   1.951   .     S
C421   C438    1.435   .     S
C421   O473    1.285   .     A
C421   O467    1.285   .     A
C422   C426    1.411   .     A
C422   H452    1.082   .     S
C422   C445    1.408   .     A
C423   O477    1.275   .     A
C423   C427    1.366   .     S
C423   O474    1.275   .     A
C424   C428    1.366   .     S
C424   O475    1.275   .     A
C424   O476    1.275   .     A
C425   C448    1.411   .     A
C425   C446    1.411   .     A
C426   C447    1.411   .     A
C426   C305    1.515   1_565 S
C428   C667    1.165   .     S
C429   C434    1.392   .     A
C429   C440    1.394   .     A
C429   H460    1.084   .     S
C430   H461    1.084   .     S
C430   C441    1.395   .     A
C430   C435    1.383   .     A
C431   C436    1.391   .     A
C431   H462    1.084   .     S
C431   C441    1.394   .     A
C432   C439    1.427   .     S
C432   O471    1.283   .     A
C432   O472    1.282   .     A
C433   C437    1.392   .     A
C433   H463    1.084   .     S
C433   C440    1.394   .     A
C434   C438    1.405   .     A
C434   O478    1.383   .     S
C435   C439    1.415   .     A
C435   O468    1.383   .     S
C436   C439    1.403   .     A
C436   O469    1.383   .     S
C437   O470    1.383   .     S
C437   C438    1.405   .     A
C441   C380    1.438   1_655 S
C442   N465    1.363   .     A
C442   H449    1.082   .     S
C442   C446    1.408   .     A
C443   C447    1.408   .     A
C443   N466    1.363   .     A
C443   H457    1.082   .     S
C444   H458    1.082   .     S
C444   N465    1.363   .     A
C444   C448    1.408   .     A
C445   N466    1.363   .     A
C445   H459    1.082   .     S
C446   H464    1.082   .     S
C447   H450    1.082   .     S
C448   H451    1.082   .     S
H453   O478    0.992   .     S
H454   O468    0.988   .     S
H455   O469    0.992   .     S
H456   O470    0.992   .     S
N465   Zn480   2.006   .     S
N466   Zn479   2.006   .     S
O467   Zn479   1.994   .     S
O471   Zn480   1.994   .     S
O472   Zn479   1.994   .     S
O473   Zn480   1.994   .     S
O474   Zn479   1.951   .     S
O475   Zn480   1.951   .     S
O476   Zn479   1.951   .     S
O477   Zn480   1.951   .     S
C481   C498    1.435   .     S
C481   O533    1.285   .     A
C481   O527    1.285   .     A
C482   C486    1.411   .     A
C482   H512    1.082   .     S
C482   C505    1.408   .     A
C483   O537    1.275   .     A
C483   C487    1.366   .     S
C483   O534    1.275   .     A
C484   C488    1.366   .     S
C484   O535    1.275   .     A
C484   O536    1.275   .     A
C485   C508    1.411   .     A
C485   C506    1.411   .     A
C485   C606    1.515   1_545 S
C486   C507    1.411   .     A
C486   C605    1.515   .     S
C488   C7      1.165   1_556 S
C489   C494    1.392   .     A
C489   C500    1.394   .     A
C489   H520    1.084   .     S
C490   H521    1.084   .     S
C490   C501    1.395   .     A
C490   C495    1.383   .     A
C491   C496    1.391   .     A
C491   H522    1.084   .     S
C491   C501    1.394   .     A
C492   C499    1.427   .     S
C492   O531    1.283   .     A
C492   O532    1.282   .     A
C493   C497    1.392   .     A
C493   H523    1.084   .     S
C493   C500    1.394   .     A
C494   C498    1.405   .     A
C494   O538    1.383   .     S
C495   C499    1.415   .     A
C495   O528    1.383   .     S
C496   C499    1.403   .     A
C496   O529    1.383   .     S
C497   O530    1.383   .     S
C497   C498    1.405   .     A
C500   C561    1.438   1_455 S
C501   C560    1.438   .     S
C502   N525    1.363   .     A
C502   H509    1.082   .     S
C502   C506    1.408   .     A
C503   C507    1.408   .     A
C503   N526    1.363   .     A
C503   H517    1.082   .     S
C504   H518    1.082   .     S
C504   N525    1.363   .     A
C504   C508    1.408   .     A
C505   N526    1.363   .     A
C505   H519    1.082   .     S
C506   H524    1.082   .     S
C507   H510    1.082   .     S
C508   H511    1.082   .     S
H513   O538    0.992   .     S
H514   O528    0.988   .     S
H515   O529    0.992   .     S
H516   O530    0.992   .     S
N525   Zn540   2.006   .     S
N526   Zn539   2.006   .     S
O527   Zn539   1.994   .     S
O531   Zn540   1.994   .     S
O532   Zn539   1.994   .     S
O533   Zn540   1.994   .     S
O534   Zn539   1.951   .     S
O535   Zn540   1.951   .     S
O536   Zn539   1.951   .     S
O537   Zn540   1.951   .     S
C541   C558    1.435   .     S
C541   O593    1.285   .     A
C541   O587    1.285   .     A
C542   C546    1.411   .     A
C542   H572    1.082   .     S
C542   C565    1.408   .     A
C543   O597    1.275   .     A
C543   C547    1.366   .     S
C543   O594    1.275   .     A
C544   C548    1.366   .     S
C544   O595    1.275   .     A
C544   O596    1.275   .     A
C545   C568    1.411   .     A
C545   C566    1.411   .     A
C545   C666    1.515   1_545 S
C546   C567    1.411   .     A
C546   C665    1.515   .     S
C548   C67     1.165   1_556 S
C549   C554    1.392   .     A
C549   C560    1.394   .     A
C549   H580    1.084   .     S
C550   H581    1.084   .     S
C550   C561    1.395   .     A
C550   C555    1.383   .     A
C551   C556    1.391   .     A
C551   H582    1.084   .     S
C551   C561    1.394   .     A
C552   C559    1.427   .     S
C552   O591    1.283   .     A
C552   O592    1.282   .     A
C553   C557    1.392   .     A
C553   H583    1.084   .     S
C553   C560    1.394   .     A
C554   C558    1.405   .     A
C554   O598    1.383   .     S
C555   C559    1.415   .     A
C555   O588    1.383   .     S
C556   C559    1.403   .     A
C556   O589    1.383   .     S
C557   O590    1.383   .     S
C557   C558    1.405   .     A
C561   C500    1.438   1_655 S
C562   N585    1.363   .     A
C562   H569    1.082   .     S
C562   C566    1.408   .     A
C563   C567    1.408   .     A
C563   N586    1.363   .     A
C563   H577    1.082   .     S
C564   H578    1.082   .     S
C564   N585    1.363   .     A
C564   C568    1.408   .     A
C565   N586    1.363   .     A
C565   H579    1.082   .     S
C566   H584    1.082   .     S
C567   H570    1.082   .     S
C568   H571    1.082   .     S
H573   O598    0.992   .     S
H574   O588    0.988   .     S
H575   O589    0.992   .     S
H576   O590    0.992   .     S
N585   Zn600   2.006   .     S
N586   Zn599   2.006   .     S
O587   Zn599   1.994   .     S
O591   Zn600   1.994   .     S
O592   Zn599   1.994   .     S
O593   Zn600   1.994   .     S
O594   Zn599   1.951   .     S
O595   Zn600   1.951   .     S
O596   Zn599   1.951   .     S
O597   Zn600   1.951   .     S
C601   C618    1.435   .     S
C601   O653    1.285   .     A
C601   O647    1.285   .     A
C602   C606    1.411   .     A
C602   H632    1.082   .     S
C602   C625    1.408   .     A
C603   O657    1.275   .     A
C603   C607    1.366   .     S
C603   O654    1.275   .     A
C604   C608    1.366   .     S
C604   O655    1.275   .     A
C604   O656    1.275   .     A
C605   C628    1.411   .     A
C605   C626    1.411   .     A
C606   C627    1.411   .     A
C606   C485    1.515   1_565 S
C608   C127    1.165   1_556 S
C609   C614    1.392   .     A
C609   C620    1.394   .     A
C609   H640    1.084   .     S
C610   H641    1.084   .     S
C610   C621    1.395   .     A
C610   C615    1.383   .     A
C611   C616    1.391   .     A
C611   H642    1.084   .     S
C611   C621    1.394   .     A
C612   C619    1.427   .     S
C612   O651    1.283   .     A
C612   O652    1.282   .     A
C613   C617    1.392   .     A
C613   H643    1.084   .     S
C613   C620    1.394   .     A
C614   C618    1.405   .     A
C614   O658    1.383   .     S
C615   C619    1.415   .     A
C615   O648    1.383   .     S
C616   C619    1.403   .     A
C616   O649    1.383   .     S
C617   O650    1.383   .     S
C617   C618    1.405   .     A
C620   C681    1.438   1_455 S
C621   C680    1.438   .     S
C622   N645    1.363   .     A
C622   H629    1.082   .     S
C622   C626    1.408   .     A
C623   C627    1.408   .     A
C623   N646    1.363   .     A
C623   H637    1.082   .     S
C624   H638    1.082   .     S
C624   N645    1.363   .     A
C624   C628    1.408   .     A
C625   N646    1.363   .     A
C625   H639    1.082   .     S
C626   H644    1.082   .     S
C627   H630    1.082   .     S
C628   H631    1.082   .     S
H633   O658    0.992   .     S
H634   O648    0.988   .     S
H635   O649    0.992   .     S
H636   O650    0.992   .     S
N645   Zn660   2.006   .     S
N646   Zn659   2.006   .     S
O647   Zn659   1.994   .     S
O651   Zn660   1.994   .     S
O652   Zn659   1.994   .     S
O653   Zn660   1.994   .     S
O654   Zn659   1.951   .     S
O655   Zn660   1.951   .     S
O656   Zn659   1.951   .     S
O657   Zn660   1.951   .     S
C661   C678    1.435   .     S
C661   O713    1.285   .     A
C661   O707    1.285   .     A
C662   C666    1.411   .     A
C662   H692    1.082   .     S
C662   C685    1.408   .     A
C663   O717    1.275   .     A
C663   C667    1.366   .     S
C663   O714    1.275   .     A
C664   C668    1.366   .     S
C664   O715    1.275   .     A
C664   O716    1.275   .     A
C665   C688    1.411   .     A
C665   C686    1.411   .     A
C666   C687    1.411   .     A
C666   C545    1.515   1_565 S
C668   C187    1.165   1_556 S
C669   C674    1.392   .     A
C669   C680    1.394   .     A
C669   H700    1.084   .     S
C670   H701    1.084   .     S
C670   C681    1.395   .     A
C670   C675    1.383   .     A
C671   C676    1.391   .     A
C671   H702    1.084   .     S
C671   C681    1.394   .     A
C672   C679    1.427   .     S
C672   O711    1.283   .     A
C672   O712    1.282   .     A
C673   C677    1.392   .     A
C673   H703    1.084   .     S
C673   C680    1.394   .     A
C674   C678    1.405   .     A
C674   O718    1.383   .     S
C675   C679    1.415   .     A
C675   O708    1.383   .     S
C676   C679    1.403   .     A
C676   O709    1.383   .     S
C677   O710    1.383   .     S
C677   C678    1.405   .     A
C681   C620    1.438   1_655 S
C682   N705    1.363   .     A
C682   H689    1.082   .     S
C682   C686    1.408   .     A
C683   C687    1.408   .     A
C683   N706    1.363   .     A
C683   H697    1.082   .     S
C684   H698    1.082   .     S
C684   N705    1.363   .     A
C684   C688    1.408   .     A
C685   N706    1.363   .     A
C685   H699    1.082   .     S
C686   H704    1.082   .     S
C687   H690    1.082   .     S
C688   H691    1.082   .     S
H693   O718    0.992   .     S
H694   O708    0.988   .     S
H695   O709    0.992   .     S
H696   O710    0.992   .     S
N705   Zn720   2.006   .     S
N706   Zn719   2.006   .     S
O707   Zn719   1.994   .     S
O711   Zn720   1.994   .     S
O712   Zn719   1.994   .     S
O713   Zn720   1.994   .     S
O714   Zn719   1.951   .     S
O715   Zn720   1.951   .     S
O716   Zn719   1.951   .     S
O717   Zn720   1.951   .     S
