data_str_m2_o10_o17_pcu_sym.9
_audit_creation_date              2020-01-03
_audit_creation_method            'Materials Studio'
_symmetry_space_group_name_H-M    'P1'
_symmetry_Int_Tables_number       1
_symmetry_cell_setting            triclinic
loop_
_symmetry_equiv_pos_as_xyz
  x,y,z
_cell_length_a                    30.0399
_cell_length_b                    26.1590
_cell_length_c                    22.5405
_cell_angle_alpha                 103.1935
_cell_angle_beta                  94.2792
_cell_angle_gamma                 93.3378
loop_
_atom_site_label
_atom_site_type_symbol
_atom_site_fract_x
_atom_site_fract_y
_atom_site_fract_z
_atom_site_U_iso_or_equiv
_atom_site_adp_type
_atom_site_occupancy
C1     C     0.24812   0.06672   0.15121   0.00000  Uiso   1.00
C2     C     0.09056   0.12331   0.13900   0.00000  Uiso   1.00
C3     C     0.38329   0.16477   0.16380   0.00000  Uiso   1.00
C4     C     0.11671   0.16857   0.16954   0.00000  Uiso   1.00
C5     C     0.40241   0.11984   0.13266   0.00000  Uiso   1.00
C6     C     0.09760   0.21351   0.20068   0.00000  Uiso   1.00
C7     C     0.44959   0.11932   0.13652   0.00000  Uiso   1.00
C8     C     0.05042   0.21402   0.19686   0.00000  Uiso   1.00
C9     C     0.47640   0.16631   0.16582   0.00000  Uiso   1.00
C10    C     0.02360   0.16703   0.16757   0.00000  Uiso   1.00
C11    C     0.45603   0.21257   0.19331   0.00000  Uiso   1.00
C12    C     0.25188   0.26661   0.18213   0.00000  Uiso   1.00
C13    C     0.04397   0.12077   0.14008   0.00000  Uiso   1.00
C14    C     0.47077   0.07320   0.11310   0.00000  Uiso   1.00
C15    C     0.02923   0.26014   0.22032   0.00000  Uiso   1.00
C16    C     0.01716   0.07352   0.11468   0.00000  Uiso   1.00
C17    C     0.48284   0.25982   0.21873   0.00000  Uiso   1.00
C18    C     0.24509   0.01081   0.14293   0.00000  Uiso   1.00
C19    C     0.25490   0.32252   0.19040   0.00000  Uiso   1.00
C20    C     0.16478   0.16787   0.16764   0.00000  Uiso   1.00
C21    C     0.33522   0.16547   0.16570   0.00000  Uiso   1.00
C22    C     0.40944   0.21003   0.19437   0.00000  Uiso   1.00
Cu23   Cu    0.25501   0.17246   0.22813   0.00000  Uiso   1.00
Cu24   Cu    0.24500   0.16087   0.10521   0.00000  Uiso   1.00
F25    F     0.38825   0.25112   0.22486   0.00000  Uiso   1.00
F26    F     0.11175   0.08221   0.10850   0.00000  Uiso   1.00
F27    F     0.44718   0.02608   0.09117   0.00000  Uiso   1.00
F28    F     0.05282   0.30724   0.24232   0.00000  Uiso   1.00
F29    F     0.23071   0.31476   0.08588   0.00000  Uiso   1.00
F30    F     0.26929   0.01857   0.24746   0.00000  Uiso   1.00
I31    I     0.35781   0.05538   0.07963   0.00000  Uiso   1.00
I32    I     0.14223   0.27800   0.25359   0.00000  Uiso   1.00
I33    I     0.04224   0.33134   0.08129   0.00000  Uiso   1.00
I34    I     0.45777   0.00200   0.25218   0.00000  Uiso   1.00
I35    I     0.18558   0.09807   0.30078   0.00000  Uiso   1.00
I36    I     0.31443   0.23526   0.03256   0.00000  Uiso   1.00
N37    N     0.23745   0.15214   0.01284   0.00000  Uiso   1.00
N38    N     0.26256   0.18119   0.32049   0.00000  Uiso   1.00
O39    O     0.25326   0.09538   0.20659   0.00000  Uiso   1.00
O40    O     0.24675   0.23796   0.12674   0.00000  Uiso   1.00
O41    O     0.24480   0.08559   0.10279   0.00000  Uiso   1.00
O42    O     0.25520   0.24774   0.23055   0.00000  Uiso   1.00
O43    O     0.18936   0.17155   0.21857   0.00000  Uiso   1.00
O44    O     0.31065   0.16179   0.11476   0.00000  Uiso   1.00
O45    O     0.18090   0.16176   0.11477   0.00000  Uiso   1.00
O46    O     0.31910   0.17157   0.21857   0.00000  Uiso   1.00
C47    C     0.74812   0.06672   0.15121   0.00000  Uiso   1.00
C48    C     0.59056   0.12331   0.13900   0.00000  Uiso   1.00
C49    C     0.88329   0.16477   0.16380   0.00000  Uiso   1.00
C50    C     0.61671   0.16857   0.16954   0.00000  Uiso   1.00
C51    C     0.90241   0.11984   0.13266   0.00000  Uiso   1.00
C52    C     0.59760   0.21351   0.20068   0.00000  Uiso   1.00
C53    C     0.94959   0.11932   0.13652   0.00000  Uiso   1.00
C54    C     0.55042   0.21402   0.19686   0.00000  Uiso   1.00
C55    C     0.97640   0.16631   0.16582   0.00000  Uiso   1.00
C56    C     0.52360   0.16703   0.16757   0.00000  Uiso   1.00
C57    C     0.95603   0.21257   0.19331   0.00000  Uiso   1.00
C58    C     0.75188   0.26661   0.18213   0.00000  Uiso   1.00
C59    C     0.54397   0.12077   0.14008   0.00000  Uiso   1.00
C60    C     0.97077   0.07320   0.11310   0.00000  Uiso   1.00
C61    C     0.52923   0.26014   0.22032   0.00000  Uiso   1.00
C62    C     0.51716   0.07352   0.11468   0.00000  Uiso   1.00
C63    C     0.98284   0.25982   0.21873   0.00000  Uiso   1.00
C64    C     0.74509   0.01081   0.14293   0.00000  Uiso   1.00
C65    C     0.75490   0.32252   0.19040   0.00000  Uiso   1.00
C66    C     0.66478   0.16787   0.16764   0.00000  Uiso   1.00
C67    C     0.83522   0.16547   0.16570   0.00000  Uiso   1.00
C68    C     0.90944   0.21003   0.19437   0.00000  Uiso   1.00
Cu69   Cu    0.75501   0.17246   0.22813   0.00000  Uiso   1.00
Cu70   Cu    0.74500   0.16087   0.10521   0.00000  Uiso   1.00
F71    F     0.88825   0.25112   0.22486   0.00000  Uiso   1.00
F72    F     0.61175   0.08221   0.10850   0.00000  Uiso   1.00
F73    F     0.94718   0.02608   0.09117   0.00000  Uiso   1.00
F74    F     0.55282   0.30724   0.24232   0.00000  Uiso   1.00
F75    F     0.73071   0.31476   0.08588   0.00000  Uiso   1.00
F76    F     0.76929   0.01857   0.24746   0.00000  Uiso   1.00
I77    I     0.85781   0.05538   0.07963   0.00000  Uiso   1.00
I78    I     0.64223   0.27800   0.25359   0.00000  Uiso   1.00
I79    I     0.54224   0.33134   0.08129   0.00000  Uiso   1.00
I80    I     0.95777   0.00200   0.25218   0.00000  Uiso   1.00
I81    I     0.68558   0.09807   0.30078   0.00000  Uiso   1.00
I82    I     0.81443   0.23526   0.03256   0.00000  Uiso   1.00
N83    N     0.73745   0.15214   0.01284   0.00000  Uiso   1.00
N84    N     0.76256   0.18119   0.32049   0.00000  Uiso   1.00
O85    O     0.75326   0.09538   0.20659   0.00000  Uiso   1.00
O86    O     0.74675   0.23796   0.12674   0.00000  Uiso   1.00
O87    O     0.74480   0.08559   0.10279   0.00000  Uiso   1.00
O88    O     0.75520   0.24774   0.23055   0.00000  Uiso   1.00
O89    O     0.68936   0.17155   0.21857   0.00000  Uiso   1.00
O90    O     0.81065   0.16179   0.11476   0.00000  Uiso   1.00
O91    O     0.68090   0.16176   0.11477   0.00000  Uiso   1.00
O92    O     0.81910   0.17157   0.21857   0.00000  Uiso   1.00
C93    C     0.24812   0.40006   0.15121   0.00000  Uiso   1.00
C94    C     0.09056   0.45664   0.13900   0.00000  Uiso   1.00
C95    C     0.38329   0.49811   0.16380   0.00000  Uiso   1.00
C96    C     0.11671   0.50191   0.16954   0.00000  Uiso   1.00
C97    C     0.40241   0.45317   0.13266   0.00000  Uiso   1.00
C98    C     0.09760   0.54685   0.20068   0.00000  Uiso   1.00
C99    C     0.44959   0.45266   0.13652   0.00000  Uiso   1.00
C100   C     0.05042   0.54735   0.19686   0.00000  Uiso   1.00
C101   C     0.47640   0.49964   0.16582   0.00000  Uiso   1.00
C102   C     0.02360   0.50037   0.16757   0.00000  Uiso   1.00
C103   C     0.45603   0.54590   0.19331   0.00000  Uiso   1.00
C104   C     0.25188   0.59994   0.18213   0.00000  Uiso   1.00
C105   C     0.04397   0.45411   0.14008   0.00000  Uiso   1.00
C106   C     0.47077   0.40653   0.11310   0.00000  Uiso   1.00
C107   C     0.02923   0.59347   0.22032   0.00000  Uiso   1.00
C108   C     0.01716   0.40685   0.11468   0.00000  Uiso   1.00
C109   C     0.48284   0.59315   0.21873   0.00000  Uiso   1.00
C110   C     0.24509   0.34415   0.14293   0.00000  Uiso   1.00
C111   C     0.25490   0.65586   0.19040   0.00000  Uiso   1.00
C112   C     0.16478   0.50120   0.16764   0.00000  Uiso   1.00
C113   C     0.33522   0.49880   0.16570   0.00000  Uiso   1.00
C114   C     0.40944   0.54336   0.19437   0.00000  Uiso   1.00
Cu115  Cu    0.25501   0.50579   0.22813   0.00000  Uiso   1.00
Cu116  Cu    0.24500   0.49421   0.10521   0.00000  Uiso   1.00
F117   F     0.38825   0.58445   0.22486   0.00000  Uiso   1.00
F118   F     0.11175   0.41555   0.10850   0.00000  Uiso   1.00
F119   F     0.44718   0.35941   0.09117   0.00000  Uiso   1.00
F120   F     0.05282   0.64058   0.24232   0.00000  Uiso   1.00
F121   F     0.23071   0.64810   0.08588   0.00000  Uiso   1.00
F122   F     0.26929   0.35190   0.24746   0.00000  Uiso   1.00
I123   I     0.35781   0.38872   0.07963   0.00000  Uiso   1.00
I124   I     0.14223   0.61134   0.25359   0.00000  Uiso   1.00
I125   I     0.04224   0.66467   0.08129   0.00000  Uiso   1.00
I126   I     0.45777   0.33533   0.25218   0.00000  Uiso   1.00
I127   I     0.18558   0.43140   0.30078   0.00000  Uiso   1.00
I128   I     0.31443   0.56860   0.03256   0.00000  Uiso   1.00
N129   N     0.23745   0.48547   0.01284   0.00000  Uiso   1.00
N130   N     0.26256   0.51453   0.32049   0.00000  Uiso   1.00
O131   O     0.25326   0.42871   0.20659   0.00000  Uiso   1.00
O132   O     0.24675   0.57129   0.12674   0.00000  Uiso   1.00
O133   O     0.24480   0.41892   0.10279   0.00000  Uiso   1.00
O134   O     0.25520   0.58108   0.23055   0.00000  Uiso   1.00
O135   O     0.18936   0.50488   0.21857   0.00000  Uiso   1.00
O136   O     0.31065   0.49512   0.11476   0.00000  Uiso   1.00
O137   O     0.18090   0.49510   0.11477   0.00000  Uiso   1.00
O138   O     0.31910   0.50490   0.21857   0.00000  Uiso   1.00
C139   C     0.74812   0.40006   0.15121   0.00000  Uiso   1.00
C140   C     0.59056   0.45664   0.13900   0.00000  Uiso   1.00
C141   C     0.88329   0.49811   0.16380   0.00000  Uiso   1.00
C142   C     0.61671   0.50191   0.16954   0.00000  Uiso   1.00
C143   C     0.90241   0.45317   0.13266   0.00000  Uiso   1.00
C144   C     0.59760   0.54685   0.20068   0.00000  Uiso   1.00
C145   C     0.94959   0.45266   0.13652   0.00000  Uiso   1.00
C146   C     0.55042   0.54735   0.19686   0.00000  Uiso   1.00
C147   C     0.97640   0.49964   0.16582   0.00000  Uiso   1.00
C148   C     0.52360   0.50037   0.16757   0.00000  Uiso   1.00
C149   C     0.95603   0.54590   0.19331   0.00000  Uiso   1.00
C150   C     0.75188   0.59994   0.18213   0.00000  Uiso   1.00
C151   C     0.54397   0.45411   0.14008   0.00000  Uiso   1.00
C152   C     0.97077   0.40653   0.11310   0.00000  Uiso   1.00
C153   C     0.52923   0.59347   0.22032   0.00000  Uiso   1.00
C154   C     0.51716   0.40685   0.11468   0.00000  Uiso   1.00
C155   C     0.98284   0.59315   0.21873   0.00000  Uiso   1.00
C156   C     0.74509   0.34415   0.14293   0.00000  Uiso   1.00
C157   C     0.75490   0.65586   0.19040   0.00000  Uiso   1.00
C158   C     0.66478   0.50120   0.16764   0.00000  Uiso   1.00
C159   C     0.83522   0.49880   0.16570   0.00000  Uiso   1.00
C160   C     0.90944   0.54336   0.19437   0.00000  Uiso   1.00
Cu161  Cu    0.75501   0.50579   0.22813   0.00000  Uiso   1.00
Cu162  Cu    0.74500   0.49421   0.10521   0.00000  Uiso   1.00
F163   F     0.88825   0.58445   0.22486   0.00000  Uiso   1.00
F164   F     0.61175   0.41555   0.10850   0.00000  Uiso   1.00
F165   F     0.94718   0.35941   0.09117   0.00000  Uiso   1.00
F166   F     0.55282   0.64058   0.24232   0.00000  Uiso   1.00
F167   F     0.73071   0.64810   0.08588   0.00000  Uiso   1.00
F168   F     0.76929   0.35190   0.24746   0.00000  Uiso   1.00
I169   I     0.85781   0.38872   0.07963   0.00000  Uiso   1.00
I170   I     0.64223   0.61134   0.25359   0.00000  Uiso   1.00
I171   I     0.54224   0.66467   0.08129   0.00000  Uiso   1.00
I172   I     0.95777   0.33533   0.25218   0.00000  Uiso   1.00
I173   I     0.68558   0.43140   0.30078   0.00000  Uiso   1.00
I174   I     0.81443   0.56860   0.03256   0.00000  Uiso   1.00
N175   N     0.73745   0.48547   0.01284   0.00000  Uiso   1.00
N176   N     0.76256   0.51453   0.32049   0.00000  Uiso   1.00
O177   O     0.75326   0.42871   0.20659   0.00000  Uiso   1.00
O178   O     0.74675   0.57129   0.12674   0.00000  Uiso   1.00
O179   O     0.74480   0.41892   0.10279   0.00000  Uiso   1.00
O180   O     0.75520   0.58108   0.23055   0.00000  Uiso   1.00
O181   O     0.68936   0.50488   0.21857   0.00000  Uiso   1.00
O182   O     0.81065   0.49512   0.11476   0.00000  Uiso   1.00
O183   O     0.68090   0.49510   0.11477   0.00000  Uiso   1.00
O184   O     0.81910   0.50490   0.21857   0.00000  Uiso   1.00
C185   C     0.24812   0.73339   0.15121   0.00000  Uiso   1.00
C186   C     0.09056   0.78998   0.13900   0.00000  Uiso   1.00
C187   C     0.38329   0.83144   0.16380   0.00000  Uiso   1.00
C188   C     0.11671   0.83524   0.16954   0.00000  Uiso   1.00
C189   C     0.40241   0.78651   0.13266   0.00000  Uiso   1.00
C190   C     0.09760   0.88018   0.20068   0.00000  Uiso   1.00
C191   C     0.44959   0.78599   0.13652   0.00000  Uiso   1.00
C192   C     0.05042   0.88069   0.19686   0.00000  Uiso   1.00
C193   C     0.47640   0.83297   0.16582   0.00000  Uiso   1.00
C194   C     0.02360   0.83370   0.16757   0.00000  Uiso   1.00
C195   C     0.45603   0.87923   0.19331   0.00000  Uiso   1.00
C196   C     0.25188   0.93328   0.18213   0.00000  Uiso   1.00
C197   C     0.04397   0.78744   0.14008   0.00000  Uiso   1.00
C198   C     0.47077   0.73986   0.11310   0.00000  Uiso   1.00
C199   C     0.02923   0.92681   0.22032   0.00000  Uiso   1.00
C200   C     0.01716   0.74018   0.11468   0.00000  Uiso   1.00
C201   C     0.48284   0.92648   0.21873   0.00000  Uiso   1.00
C202   C     0.24509   0.67748   0.14293   0.00000  Uiso   1.00
C203   C     0.25490   0.98919   0.19040   0.00000  Uiso   1.00
C204   C     0.16478   0.83454   0.16764   0.00000  Uiso   1.00
C205   C     0.33522   0.83213   0.16570   0.00000  Uiso   1.00
C206   C     0.40944   0.87670   0.19437   0.00000  Uiso   1.00
Cu207  Cu    0.25501   0.83913   0.22813   0.00000  Uiso   1.00
Cu208  Cu    0.24500   0.82754   0.10521   0.00000  Uiso   1.00
F209   F     0.38825   0.91779   0.22486   0.00000  Uiso   1.00
F210   F     0.11175   0.74888   0.10850   0.00000  Uiso   1.00
F211   F     0.44718   0.69274   0.09117   0.00000  Uiso   1.00
F212   F     0.05282   0.97391   0.24232   0.00000  Uiso   1.00
F213   F     0.23071   0.98143   0.08588   0.00000  Uiso   1.00
F214   F     0.26929   0.68524   0.24746   0.00000  Uiso   1.00
I215   I     0.35781   0.72205   0.07963   0.00000  Uiso   1.00
I216   I     0.14223   0.94467   0.25359   0.00000  Uiso   1.00
I217   I     0.04224   0.99800   0.08129   0.00000  Uiso   1.00
I218   I     0.45777   0.66866   0.25218   0.00000  Uiso   1.00
I219   I     0.18558   0.76474   0.30078   0.00000  Uiso   1.00
I220   I     0.31443   0.90193   0.03256   0.00000  Uiso   1.00
N221   N     0.23745   0.81881   0.01284   0.00000  Uiso   1.00
N222   N     0.26256   0.84786   0.32049   0.00000  Uiso   1.00
O223   O     0.25326   0.76204   0.20659   0.00000  Uiso   1.00
O224   O     0.24675   0.90462   0.12674   0.00000  Uiso   1.00
O225   O     0.24480   0.75226   0.10279   0.00000  Uiso   1.00
O226   O     0.25520   0.91441   0.23055   0.00000  Uiso   1.00
O227   O     0.18936   0.83821   0.21857   0.00000  Uiso   1.00
O228   O     0.31065   0.82845   0.11476   0.00000  Uiso   1.00
O229   O     0.18090   0.82843   0.11477   0.00000  Uiso   1.00
O230   O     0.31910   0.83824   0.21857   0.00000  Uiso   1.00
C231   C     0.74812   0.73339   0.15121   0.00000  Uiso   1.00
C232   C     0.59056   0.78998   0.13900   0.00000  Uiso   1.00
C233   C     0.88329   0.83144   0.16380   0.00000  Uiso   1.00
C234   C     0.61671   0.83524   0.16954   0.00000  Uiso   1.00
C235   C     0.90241   0.78651   0.13266   0.00000  Uiso   1.00
C236   C     0.59760   0.88018   0.20068   0.00000  Uiso   1.00
C237   C     0.94959   0.78599   0.13652   0.00000  Uiso   1.00
C238   C     0.55042   0.88069   0.19686   0.00000  Uiso   1.00
C239   C     0.97640   0.83297   0.16582   0.00000  Uiso   1.00
C240   C     0.52360   0.83370   0.16757   0.00000  Uiso   1.00
C241   C     0.95603   0.87923   0.19331   0.00000  Uiso   1.00
C242   C     0.75188   0.93328   0.18213   0.00000  Uiso   1.00
C243   C     0.54397   0.78744   0.14008   0.00000  Uiso   1.00
C244   C     0.97077   0.73986   0.11310   0.00000  Uiso   1.00
C245   C     0.52923   0.92681   0.22032   0.00000  Uiso   1.00
C246   C     0.51716   0.74018   0.11468   0.00000  Uiso   1.00
C247   C     0.98284   0.92648   0.21873   0.00000  Uiso   1.00
C248   C     0.74509   0.67748   0.14293   0.00000  Uiso   1.00
C249   C     0.75490   0.98919   0.19040   0.00000  Uiso   1.00
C250   C     0.66478   0.83454   0.16764   0.00000  Uiso   1.00
C251   C     0.83522   0.83213   0.16570   0.00000  Uiso   1.00
C252   C     0.90944   0.87670   0.19437   0.00000  Uiso   1.00
Cu253  Cu    0.75501   0.83913   0.22813   0.00000  Uiso   1.00
Cu254  Cu    0.74500   0.82754   0.10521   0.00000  Uiso   1.00
F255   F     0.88825   0.91779   0.22486   0.00000  Uiso   1.00
F256   F     0.61175   0.74888   0.10850   0.00000  Uiso   1.00
F257   F     0.94718   0.69274   0.09117   0.00000  Uiso   1.00
F258   F     0.55282   0.97391   0.24232   0.00000  Uiso   1.00
F259   F     0.73071   0.98143   0.08588   0.00000  Uiso   1.00
F260   F     0.76929   0.68524   0.24746   0.00000  Uiso   1.00
I261   I     0.85781   0.72205   0.07963   0.00000  Uiso   1.00
I262   I     0.64223   0.94467   0.25359   0.00000  Uiso   1.00
I263   I     0.54224   0.99800   0.08129   0.00000  Uiso   1.00
I264   I     0.95777   0.66866   0.25218   0.00000  Uiso   1.00
I265   I     0.68558   0.76474   0.30078   0.00000  Uiso   1.00
I266   I     0.81443   0.90193   0.03256   0.00000  Uiso   1.00
N267   N     0.73745   0.81881   0.01284   0.00000  Uiso   1.00
N268   N     0.76256   0.84786   0.32049   0.00000  Uiso   1.00
O269   O     0.75326   0.76204   0.20659   0.00000  Uiso   1.00
O270   O     0.74675   0.90462   0.12674   0.00000  Uiso   1.00
O271   O     0.74480   0.75226   0.10279   0.00000  Uiso   1.00
O272   O     0.75520   0.91441   0.23055   0.00000  Uiso   1.00
O273   O     0.68936   0.83821   0.21857   0.00000  Uiso   1.00
O274   O     0.81065   0.82845   0.11476   0.00000  Uiso   1.00
O275   O     0.68090   0.82843   0.11477   0.00000  Uiso   1.00
O276   O     0.81910   0.83824   0.21857   0.00000  Uiso   1.00
C277   C     0.24812   0.06672   0.48454   0.00000  Uiso   1.00
C278   C     0.09056   0.12331   0.47233   0.00000  Uiso   1.00
C279   C     0.38329   0.16477   0.49713   0.00000  Uiso   1.00
C280   C     0.11671   0.16857   0.50288   0.00000  Uiso   1.00
C281   C     0.40241   0.11984   0.46600   0.00000  Uiso   1.00
C282   C     0.09760   0.21351   0.53401   0.00000  Uiso   1.00
C283   C     0.44959   0.11932   0.46985   0.00000  Uiso   1.00
C284   C     0.05042   0.21402   0.53020   0.00000  Uiso   1.00
C285   C     0.47640   0.16631   0.49915   0.00000  Uiso   1.00
C286   C     0.02360   0.16703   0.50091   0.00000  Uiso   1.00
C287   C     0.45603   0.21257   0.52665   0.00000  Uiso   1.00
C288   C     0.25188   0.26661   0.51546   0.00000  Uiso   1.00
C289   C     0.04397   0.12077   0.47341   0.00000  Uiso   1.00
C290   C     0.47077   0.07320   0.44643   0.00000  Uiso   1.00
C291   C     0.02923   0.26014   0.55365   0.00000  Uiso   1.00
C292   C     0.01716   0.07352   0.44802   0.00000  Uiso   1.00
C293   C     0.48284   0.25982   0.55207   0.00000  Uiso   1.00
C294   C     0.24509   0.01081   0.47626   0.00000  Uiso   1.00
C295   C     0.25490   0.32252   0.52374   0.00000  Uiso   1.00
C296   C     0.16478   0.16787   0.50097   0.00000  Uiso   1.00
C297   C     0.33522   0.16547   0.49903   0.00000  Uiso   1.00
C298   C     0.40944   0.21003   0.52770   0.00000  Uiso   1.00
Cu299  Cu    0.25501   0.17246   0.56146   0.00000  Uiso   1.00
Cu300  Cu    0.24500   0.16087   0.43854   0.00000  Uiso   1.00
F301   F     0.38825   0.25112   0.55819   0.00000  Uiso   1.00
F302   F     0.11175   0.08221   0.44184   0.00000  Uiso   1.00
F303   F     0.44718   0.02608   0.42451   0.00000  Uiso   1.00
F304   F     0.05282   0.30724   0.57565   0.00000  Uiso   1.00
F305   F     0.23071   0.31476   0.41921   0.00000  Uiso   1.00
F306   F     0.26929   0.01857   0.58079   0.00000  Uiso   1.00
I307   I     0.35781   0.05538   0.41297   0.00000  Uiso   1.00
I308   I     0.14223   0.27800   0.58692   0.00000  Uiso   1.00
I309   I     0.04224   0.33134   0.41462   0.00000  Uiso   1.00
I310   I     0.45777   0.00200   0.58551   0.00000  Uiso   1.00
I311   I     0.18558   0.09807   0.63411   0.00000  Uiso   1.00
I312   I     0.31443   0.23526   0.36589   0.00000  Uiso   1.00
N313   N     0.23745   0.15214   0.34617   0.00000  Uiso   1.00
N314   N     0.26256   0.18119   0.65383   0.00000  Uiso   1.00
O315   O     0.25326   0.09538   0.53992   0.00000  Uiso   1.00
O316   O     0.24675   0.23796   0.46008   0.00000  Uiso   1.00
O317   O     0.24480   0.08559   0.43612   0.00000  Uiso   1.00
O318   O     0.25520   0.24774   0.56388   0.00000  Uiso   1.00
O319   O     0.18936   0.17155   0.55191   0.00000  Uiso   1.00
O320   O     0.31065   0.16179   0.44809   0.00000  Uiso   1.00
O321   O     0.18090   0.16176   0.44810   0.00000  Uiso   1.00
O322   O     0.31910   0.17157   0.55190   0.00000  Uiso   1.00
C323   C     0.74812   0.06672   0.48454   0.00000  Uiso   1.00
C324   C     0.59056   0.12331   0.47233   0.00000  Uiso   1.00
C325   C     0.88329   0.16477   0.49713   0.00000  Uiso   1.00
C326   C     0.61671   0.16857   0.50288   0.00000  Uiso   1.00
C327   C     0.90241   0.11984   0.46600   0.00000  Uiso   1.00
C328   C     0.59760   0.21351   0.53401   0.00000  Uiso   1.00
C329   C     0.94959   0.11932   0.46985   0.00000  Uiso   1.00
C330   C     0.55042   0.21402   0.53020   0.00000  Uiso   1.00
C331   C     0.97640   0.16631   0.49915   0.00000  Uiso   1.00
C332   C     0.52360   0.16703   0.50091   0.00000  Uiso   1.00
C333   C     0.95603   0.21257   0.52665   0.00000  Uiso   1.00
C334   C     0.75188   0.26661   0.51546   0.00000  Uiso   1.00
C335   C     0.54397   0.12077   0.47341   0.00000  Uiso   1.00
C336   C     0.97077   0.07320   0.44643   0.00000  Uiso   1.00
C337   C     0.52923   0.26014   0.55365   0.00000  Uiso   1.00
C338   C     0.51716   0.07352   0.44802   0.00000  Uiso   1.00
C339   C     0.98284   0.25982   0.55207   0.00000  Uiso   1.00
C340   C     0.74509   0.01081   0.47626   0.00000  Uiso   1.00
C341   C     0.75490   0.32252   0.52374   0.00000  Uiso   1.00
C342   C     0.66478   0.16787   0.50097   0.00000  Uiso   1.00
C343   C     0.83522   0.16547   0.49903   0.00000  Uiso   1.00
C344   C     0.90944   0.21003   0.52770   0.00000  Uiso   1.00
Cu345  Cu    0.75501   0.17246   0.56146   0.00000  Uiso   1.00
Cu346  Cu    0.74500   0.16087   0.43854   0.00000  Uiso   1.00
F347   F     0.88825   0.25112   0.55819   0.00000  Uiso   1.00
F348   F     0.61175   0.08221   0.44184   0.00000  Uiso   1.00
F349   F     0.94718   0.02608   0.42451   0.00000  Uiso   1.00
F350   F     0.55282   0.30724   0.57565   0.00000  Uiso   1.00
F351   F     0.73071   0.31476   0.41921   0.00000  Uiso   1.00
F352   F     0.76929   0.01857   0.58079   0.00000  Uiso   1.00
I353   I     0.85781   0.05538   0.41297   0.00000  Uiso   1.00
I354   I     0.64223   0.27800   0.58692   0.00000  Uiso   1.00
I355   I     0.54224   0.33134   0.41462   0.00000  Uiso   1.00
I356   I     0.95777   0.00200   0.58551   0.00000  Uiso   1.00
I357   I     0.68558   0.09807   0.63411   0.00000  Uiso   1.00
I358   I     0.81443   0.23526   0.36589   0.00000  Uiso   1.00
N359   N     0.73745   0.15214   0.34617   0.00000  Uiso   1.00
N360   N     0.76256   0.18119   0.65383   0.00000  Uiso   1.00
O361   O     0.75326   0.09538   0.53992   0.00000  Uiso   1.00
O362   O     0.74675   0.23796   0.46008   0.00000  Uiso   1.00
O363   O     0.74480   0.08559   0.43612   0.00000  Uiso   1.00
O364   O     0.75520   0.24774   0.56388   0.00000  Uiso   1.00
O365   O     0.68936   0.17155   0.55191   0.00000  Uiso   1.00
O366   O     0.81065   0.16179   0.44809   0.00000  Uiso   1.00
O367   O     0.68090   0.16176   0.44810   0.00000  Uiso   1.00
O368   O     0.81910   0.17157   0.55190   0.00000  Uiso   1.00
C369   C     0.24812   0.40006   0.48454   0.00000  Uiso   1.00
C370   C     0.09056   0.45664   0.47233   0.00000  Uiso   1.00
C371   C     0.38329   0.49811   0.49713   0.00000  Uiso   1.00
C372   C     0.11671   0.50191   0.50288   0.00000  Uiso   1.00
C373   C     0.40241   0.45317   0.46600   0.00000  Uiso   1.00
C374   C     0.09760   0.54685   0.53401   0.00000  Uiso   1.00
C375   C     0.44959   0.45266   0.46985   0.00000  Uiso   1.00
C376   C     0.05042   0.54735   0.53020   0.00000  Uiso   1.00
C377   C     0.47640   0.49964   0.49915   0.00000  Uiso   1.00
C378   C     0.02360   0.50037   0.50091   0.00000  Uiso   1.00
C379   C     0.45603   0.54590   0.52665   0.00000  Uiso   1.00
C380   C     0.25188   0.59994   0.51546   0.00000  Uiso   1.00
C381   C     0.04397   0.45411   0.47341   0.00000  Uiso   1.00
C382   C     0.47077   0.40653   0.44643   0.00000  Uiso   1.00
C383   C     0.02923   0.59347   0.55365   0.00000  Uiso   1.00
C384   C     0.01716   0.40685   0.44802   0.00000  Uiso   1.00
C385   C     0.48284   0.59315   0.55207   0.00000  Uiso   1.00
C386   C     0.24509   0.34415   0.47626   0.00000  Uiso   1.00
C387   C     0.25490   0.65586   0.52374   0.00000  Uiso   1.00
C388   C     0.16478   0.50120   0.50097   0.00000  Uiso   1.00
C389   C     0.33522   0.49880   0.49903   0.00000  Uiso   1.00
C390   C     0.40944   0.54336   0.52770   0.00000  Uiso   1.00
Cu391  Cu    0.25501   0.50579   0.56146   0.00000  Uiso   1.00
Cu392  Cu    0.24500   0.49421   0.43854   0.00000  Uiso   1.00
F393   F     0.38825   0.58445   0.55819   0.00000  Uiso   1.00
F394   F     0.11175   0.41555   0.44184   0.00000  Uiso   1.00
F395   F     0.44718   0.35941   0.42451   0.00000  Uiso   1.00
F396   F     0.05282   0.64058   0.57565   0.00000  Uiso   1.00
F397   F     0.23071   0.64810   0.41921   0.00000  Uiso   1.00
F398   F     0.26929   0.35190   0.58079   0.00000  Uiso   1.00
I399   I     0.35781   0.38872   0.41297   0.00000  Uiso   1.00
I400   I     0.14223   0.61134   0.58692   0.00000  Uiso   1.00
I401   I     0.04224   0.66467   0.41462   0.00000  Uiso   1.00
I402   I     0.45777   0.33533   0.58551   0.00000  Uiso   1.00
I403   I     0.18558   0.43140   0.63411   0.00000  Uiso   1.00
I404   I     0.31443   0.56860   0.36589   0.00000  Uiso   1.00
N405   N     0.23745   0.48547   0.34617   0.00000  Uiso   1.00
N406   N     0.26256   0.51453   0.65383   0.00000  Uiso   1.00
O407   O     0.25326   0.42871   0.53992   0.00000  Uiso   1.00
O408   O     0.24675   0.57129   0.46008   0.00000  Uiso   1.00
O409   O     0.24480   0.41892   0.43612   0.00000  Uiso   1.00
O410   O     0.25520   0.58108   0.56388   0.00000  Uiso   1.00
O411   O     0.18936   0.50488   0.55191   0.00000  Uiso   1.00
O412   O     0.31065   0.49512   0.44809   0.00000  Uiso   1.00
O413   O     0.18090   0.49510   0.44810   0.00000  Uiso   1.00
O414   O     0.31910   0.50490   0.55190   0.00000  Uiso   1.00
C415   C     0.74812   0.40006   0.48454   0.00000  Uiso   1.00
C416   C     0.59056   0.45664   0.47233   0.00000  Uiso   1.00
C417   C     0.88329   0.49811   0.49713   0.00000  Uiso   1.00
C418   C     0.61671   0.50191   0.50288   0.00000  Uiso   1.00
C419   C     0.90241   0.45317   0.46600   0.00000  Uiso   1.00
C420   C     0.59760   0.54685   0.53401   0.00000  Uiso   1.00
C421   C     0.94959   0.45266   0.46985   0.00000  Uiso   1.00
C422   C     0.55042   0.54735   0.53020   0.00000  Uiso   1.00
C423   C     0.97640   0.49964   0.49915   0.00000  Uiso   1.00
C424   C     0.52360   0.50037   0.50091   0.00000  Uiso   1.00
C425   C     0.95603   0.54590   0.52665   0.00000  Uiso   1.00
C426   C     0.75188   0.59994   0.51546   0.00000  Uiso   1.00
C427   C     0.54397   0.45411   0.47341   0.00000  Uiso   1.00
C428   C     0.97077   0.40653   0.44643   0.00000  Uiso   1.00
C429   C     0.52923   0.59347   0.55365   0.00000  Uiso   1.00
C430   C     0.51716   0.40685   0.44802   0.00000  Uiso   1.00
C431   C     0.98284   0.59315   0.55207   0.00000  Uiso   1.00
C432   C     0.74509   0.34415   0.47626   0.00000  Uiso   1.00
C433   C     0.75490   0.65586   0.52374   0.00000  Uiso   1.00
C434   C     0.66478   0.50120   0.50097   0.00000  Uiso   1.00
C435   C     0.83522   0.49880   0.49903   0.00000  Uiso   1.00
C436   C     0.90944   0.54336   0.52770   0.00000  Uiso   1.00
Cu437  Cu    0.75501   0.50579   0.56146   0.00000  Uiso   1.00
Cu438  Cu    0.74500   0.49421   0.43854   0.00000  Uiso   1.00
F439   F     0.88825   0.58445   0.55819   0.00000  Uiso   1.00
F440   F     0.61175   0.41555   0.44184   0.00000  Uiso   1.00
F441   F     0.94718   0.35941   0.42451   0.00000  Uiso   1.00
F442   F     0.55282   0.64058   0.57565   0.00000  Uiso   1.00
F443   F     0.73071   0.64810   0.41921   0.00000  Uiso   1.00
F444   F     0.76929   0.35190   0.58079   0.00000  Uiso   1.00
I445   I     0.85781   0.38872   0.41297   0.00000  Uiso   1.00
I446   I     0.64223   0.61134   0.58692   0.00000  Uiso   1.00
I447   I     0.54224   0.66467   0.41462   0.00000  Uiso   1.00
I448   I     0.95777   0.33533   0.58551   0.00000  Uiso   1.00
I449   I     0.68558   0.43140   0.63411   0.00000  Uiso   1.00
I450   I     0.81443   0.56860   0.36589   0.00000  Uiso   1.00
N451   N     0.73745   0.48547   0.34617   0.00000  Uiso   1.00
N452   N     0.76256   0.51453   0.65383   0.00000  Uiso   1.00
O453   O     0.75326   0.42871   0.53992   0.00000  Uiso   1.00
O454   O     0.74675   0.57129   0.46008   0.00000  Uiso   1.00
O455   O     0.74480   0.41892   0.43612   0.00000  Uiso   1.00
O456   O     0.75520   0.58108   0.56388   0.00000  Uiso   1.00
O457   O     0.68936   0.50488   0.55191   0.00000  Uiso   1.00
O458   O     0.81065   0.49512   0.44809   0.00000  Uiso   1.00
O459   O     0.68090   0.49510   0.44810   0.00000  Uiso   1.00
O460   O     0.81910   0.50490   0.55190   0.00000  Uiso   1.00
C461   C     0.24812   0.73339   0.48454   0.00000  Uiso   1.00
C462   C     0.09056   0.78998   0.47233   0.00000  Uiso   1.00
C463   C     0.38329   0.83144   0.49713   0.00000  Uiso   1.00
C464   C     0.11671   0.83524   0.50288   0.00000  Uiso   1.00
C465   C     0.40241   0.78651   0.46600   0.00000  Uiso   1.00
C466   C     0.09760   0.88018   0.53401   0.00000  Uiso   1.00
C467   C     0.44959   0.78599   0.46985   0.00000  Uiso   1.00
C468   C     0.05042   0.88069   0.53020   0.00000  Uiso   1.00
C469   C     0.47640   0.83297   0.49915   0.00000  Uiso   1.00
C470   C     0.02360   0.83370   0.50091   0.00000  Uiso   1.00
C471   C     0.45603   0.87923   0.52665   0.00000  Uiso   1.00
C472   C     0.25188   0.93328   0.51546   0.00000  Uiso   1.00
C473   C     0.04397   0.78744   0.47341   0.00000  Uiso   1.00
C474   C     0.47077   0.73986   0.44643   0.00000  Uiso   1.00
C475   C     0.02923   0.92681   0.55365   0.00000  Uiso   1.00
C476   C     0.01716   0.74018   0.44802   0.00000  Uiso   1.00
C477   C     0.48284   0.92648   0.55207   0.00000  Uiso   1.00
C478   C     0.24509   0.67748   0.47626   0.00000  Uiso   1.00
C479   C     0.25490   0.98919   0.52374   0.00000  Uiso   1.00
C480   C     0.16478   0.83454   0.50097   0.00000  Uiso   1.00
C481   C     0.33522   0.83213   0.49903   0.00000  Uiso   1.00
C482   C     0.40944   0.87670   0.52770   0.00000  Uiso   1.00
Cu483  Cu    0.25501   0.83913   0.56146   0.00000  Uiso   1.00
Cu484  Cu    0.24500   0.82754   0.43854   0.00000  Uiso   1.00
F485   F     0.38825   0.91779   0.55819   0.00000  Uiso   1.00
F486   F     0.11175   0.74888   0.44184   0.00000  Uiso   1.00
F487   F     0.44718   0.69274   0.42451   0.00000  Uiso   1.00
F488   F     0.05282   0.97391   0.57565   0.00000  Uiso   1.00
F489   F     0.23071   0.98143   0.41921   0.00000  Uiso   1.00
F490   F     0.26929   0.68524   0.58079   0.00000  Uiso   1.00
I491   I     0.35781   0.72205   0.41297   0.00000  Uiso   1.00
I492   I     0.14223   0.94467   0.58692   0.00000  Uiso   1.00
I493   I     0.04224   0.99800   0.41462   0.00000  Uiso   1.00
I494   I     0.45777   0.66866   0.58551   0.00000  Uiso   1.00
I495   I     0.18558   0.76474   0.63411   0.00000  Uiso   1.00
I496   I     0.31443   0.90193   0.36589   0.00000  Uiso   1.00
N497   N     0.23745   0.81881   0.34617   0.00000  Uiso   1.00
N498   N     0.26256   0.84786   0.65383   0.00000  Uiso   1.00
O499   O     0.25326   0.76204   0.53992   0.00000  Uiso   1.00
O500   O     0.24675   0.90462   0.46008   0.00000  Uiso   1.00
O501   O     0.24480   0.75226   0.43612   0.00000  Uiso   1.00
O502   O     0.25520   0.91441   0.56388   0.00000  Uiso   1.00
O503   O     0.18936   0.83821   0.55191   0.00000  Uiso   1.00
O504   O     0.31065   0.82845   0.44809   0.00000  Uiso   1.00
O505   O     0.18090   0.82843   0.44810   0.00000  Uiso   1.00
O506   O     0.31910   0.83824   0.55190   0.00000  Uiso   1.00
C507   C     0.74812   0.73339   0.48454   0.00000  Uiso   1.00
C508   C     0.59056   0.78998   0.47233   0.00000  Uiso   1.00
C509   C     0.88329   0.83144   0.49713   0.00000  Uiso   1.00
C510   C     0.61671   0.83524   0.50288   0.00000  Uiso   1.00
C511   C     0.90241   0.78651   0.46600   0.00000  Uiso   1.00
C512   C     0.59760   0.88018   0.53401   0.00000  Uiso   1.00
C513   C     0.94959   0.78599   0.46985   0.00000  Uiso   1.00
C514   C     0.55042   0.88069   0.53020   0.00000  Uiso   1.00
C515   C     0.97640   0.83297   0.49915   0.00000  Uiso   1.00
C516   C     0.52360   0.83370   0.50091   0.00000  Uiso   1.00
C517   C     0.95603   0.87923   0.52665   0.00000  Uiso   1.00
C518   C     0.75188   0.93328   0.51546   0.00000  Uiso   1.00
C519   C     0.54397   0.78744   0.47341   0.00000  Uiso   1.00
C520   C     0.97077   0.73986   0.44643   0.00000  Uiso   1.00
C521   C     0.52923   0.92681   0.55365   0.00000  Uiso   1.00
C522   C     0.51716   0.74018   0.44802   0.00000  Uiso   1.00
C523   C     0.98284   0.92648   0.55207   0.00000  Uiso   1.00
C524   C     0.74509   0.67748   0.47626   0.00000  Uiso   1.00
C525   C     0.75490   0.98919   0.52374   0.00000  Uiso   1.00
C526   C     0.66478   0.83454   0.50097   0.00000  Uiso   1.00
C527   C     0.83522   0.83213   0.49903   0.00000  Uiso   1.00
C528   C     0.90944   0.87670   0.52770   0.00000  Uiso   1.00
Cu529  Cu    0.75501   0.83913   0.56146   0.00000  Uiso   1.00
Cu530  Cu    0.74500   0.82754   0.43854   0.00000  Uiso   1.00
F531   F     0.88825   0.91779   0.55819   0.00000  Uiso   1.00
F532   F     0.61175   0.74888   0.44184   0.00000  Uiso   1.00
F533   F     0.94718   0.69274   0.42451   0.00000  Uiso   1.00
F534   F     0.55282   0.97391   0.57565   0.00000  Uiso   1.00
F535   F     0.73071   0.98143   0.41921   0.00000  Uiso   1.00
F536   F     0.76929   0.68524   0.58079   0.00000  Uiso   1.00
I537   I     0.85781   0.72205   0.41297   0.00000  Uiso   1.00
I538   I     0.64223   0.94467   0.58692   0.00000  Uiso   1.00
I539   I     0.54224   0.99800   0.41462   0.00000  Uiso   1.00
I540   I     0.95777   0.66866   0.58551   0.00000  Uiso   1.00
I541   I     0.68558   0.76474   0.63411   0.00000  Uiso   1.00
I542   I     0.81443   0.90193   0.36589   0.00000  Uiso   1.00
N543   N     0.73745   0.81881   0.34617   0.00000  Uiso   1.00
N544   N     0.76256   0.84786   0.65383   0.00000  Uiso   1.00
O545   O     0.75326   0.76204   0.53992   0.00000  Uiso   1.00
O546   O     0.74675   0.90462   0.46008   0.00000  Uiso   1.00
O547   O     0.74480   0.75226   0.43612   0.00000  Uiso   1.00
O548   O     0.75520   0.91441   0.56388   0.00000  Uiso   1.00
O549   O     0.68936   0.83821   0.55191   0.00000  Uiso   1.00
O550   O     0.81065   0.82845   0.44809   0.00000  Uiso   1.00
O551   O     0.68090   0.82843   0.44810   0.00000  Uiso   1.00
O552   O     0.81910   0.83824   0.55190   0.00000  Uiso   1.00
C553   C     0.24812   0.06672   0.81787   0.00000  Uiso   1.00
C554   C     0.09056   0.12331   0.80566   0.00000  Uiso   1.00
C555   C     0.38329   0.16477   0.83046   0.00000  Uiso   1.00
C556   C     0.11671   0.16857   0.83621   0.00000  Uiso   1.00
C557   C     0.40241   0.11984   0.79933   0.00000  Uiso   1.00
C558   C     0.09760   0.21351   0.86734   0.00000  Uiso   1.00
C559   C     0.44959   0.11932   0.80319   0.00000  Uiso   1.00
C560   C     0.05042   0.21402   0.86353   0.00000  Uiso   1.00
C561   C     0.47640   0.16631   0.83248   0.00000  Uiso   1.00
C562   C     0.02360   0.16703   0.83424   0.00000  Uiso   1.00
C563   C     0.45603   0.21257   0.85998   0.00000  Uiso   1.00
C564   C     0.25188   0.26661   0.84879   0.00000  Uiso   1.00
C565   C     0.04397   0.12077   0.80674   0.00000  Uiso   1.00
C566   C     0.47077   0.07320   0.77977   0.00000  Uiso   1.00
C567   C     0.02923   0.26014   0.88699   0.00000  Uiso   1.00
C568   C     0.01716   0.07352   0.78135   0.00000  Uiso   1.00
C569   C     0.48284   0.25982   0.88540   0.00000  Uiso   1.00
C570   C     0.24509   0.01081   0.80960   0.00000  Uiso   1.00
C571   C     0.25490   0.32252   0.85707   0.00000  Uiso   1.00
C572   C     0.16478   0.16787   0.83430   0.00000  Uiso   1.00
C573   C     0.33522   0.16547   0.83236   0.00000  Uiso   1.00
C574   C     0.40944   0.21003   0.86104   0.00000  Uiso   1.00
Cu575  Cu    0.25501   0.17246   0.89479   0.00000  Uiso   1.00
Cu576  Cu    0.24500   0.16087   0.77187   0.00000  Uiso   1.00
F577   F     0.38825   0.25112   0.89153   0.00000  Uiso   1.00
F578   F     0.11175   0.08221   0.77517   0.00000  Uiso   1.00
F579   F     0.44718   0.02608   0.75784   0.00000  Uiso   1.00
F580   F     0.05282   0.30724   0.90898   0.00000  Uiso   1.00
F581   F     0.23071   0.31476   0.75254   0.00000  Uiso   1.00
F582   F     0.26929   0.01857   0.91412   0.00000  Uiso   1.00
I583   I     0.35781   0.05538   0.74630   0.00000  Uiso   1.00
I584   I     0.14223   0.27800   0.92026   0.00000  Uiso   1.00
I585   I     0.04224   0.33134   0.74796   0.00000  Uiso   1.00
I586   I     0.45777   0.00200   0.91885   0.00000  Uiso   1.00
I587   I     0.18558   0.09807   0.96744   0.00000  Uiso   1.00
I588   I     0.31443   0.23526   0.69922   0.00000  Uiso   1.00
N589   N     0.23745   0.15214   0.67951   0.00000  Uiso   1.00
N590   N     0.26256   0.18119   0.98716   0.00000  Uiso   1.00
O591   O     0.25326   0.09538   0.87326   0.00000  Uiso   1.00
O592   O     0.24675   0.23796   0.79341   0.00000  Uiso   1.00
O593   O     0.24480   0.08559   0.76945   0.00000  Uiso   1.00
O594   O     0.25520   0.24774   0.89721   0.00000  Uiso   1.00
O595   O     0.18936   0.17155   0.88524   0.00000  Uiso   1.00
O596   O     0.31065   0.16179   0.78143   0.00000  Uiso   1.00
O597   O     0.18090   0.16176   0.78143   0.00000  Uiso   1.00
O598   O     0.31910   0.17157   0.88523   0.00000  Uiso   1.00
C599   C     0.74812   0.06672   0.81787   0.00000  Uiso   1.00
C600   C     0.59056   0.12331   0.80566   0.00000  Uiso   1.00
C601   C     0.88329   0.16477   0.83046   0.00000  Uiso   1.00
C602   C     0.61671   0.16857   0.83621   0.00000  Uiso   1.00
C603   C     0.90241   0.11984   0.79933   0.00000  Uiso   1.00
C604   C     0.59760   0.21351   0.86734   0.00000  Uiso   1.00
C605   C     0.94959   0.11932   0.80319   0.00000  Uiso   1.00
C606   C     0.55042   0.21402   0.86353   0.00000  Uiso   1.00
C607   C     0.97640   0.16631   0.83248   0.00000  Uiso   1.00
C608   C     0.52360   0.16703   0.83424   0.00000  Uiso   1.00
C609   C     0.95603   0.21257   0.85998   0.00000  Uiso   1.00
C610   C     0.75188   0.26661   0.84879   0.00000  Uiso   1.00
C611   C     0.54397   0.12077   0.80674   0.00000  Uiso   1.00
C612   C     0.97077   0.07320   0.77977   0.00000  Uiso   1.00
C613   C     0.52923   0.26014   0.88699   0.00000  Uiso   1.00
C614   C     0.51716   0.07352   0.78135   0.00000  Uiso   1.00
C615   C     0.98284   0.25982   0.88540   0.00000  Uiso   1.00
C616   C     0.74509   0.01081   0.80960   0.00000  Uiso   1.00
C617   C     0.75490   0.32252   0.85707   0.00000  Uiso   1.00
C618   C     0.66478   0.16787   0.83430   0.00000  Uiso   1.00
C619   C     0.83522   0.16547   0.83236   0.00000  Uiso   1.00
C620   C     0.90944   0.21003   0.86104   0.00000  Uiso   1.00
Cu621  Cu    0.75501   0.17246   0.89479   0.00000  Uiso   1.00
Cu622  Cu    0.74500   0.16087   0.77187   0.00000  Uiso   1.00
F623   F     0.88825   0.25112   0.89153   0.00000  Uiso   1.00
F624   F     0.61175   0.08221   0.77517   0.00000  Uiso   1.00
F625   F     0.94718   0.02608   0.75784   0.00000  Uiso   1.00
F626   F     0.55282   0.30724   0.90898   0.00000  Uiso   1.00
F627   F     0.73071   0.31476   0.75254   0.00000  Uiso   1.00
F628   F     0.76929   0.01857   0.91412   0.00000  Uiso   1.00
I629   I     0.85781   0.05538   0.74630   0.00000  Uiso   1.00
I630   I     0.64223   0.27800   0.92026   0.00000  Uiso   1.00
I631   I     0.54224   0.33134   0.74796   0.00000  Uiso   1.00
I632   I     0.95777   0.00200   0.91885   0.00000  Uiso   1.00
I633   I     0.68558   0.09807   0.96744   0.00000  Uiso   1.00
I634   I     0.81443   0.23526   0.69922   0.00000  Uiso   1.00
N635   N     0.73745   0.15214   0.67951   0.00000  Uiso   1.00
N636   N     0.76256   0.18119   0.98716   0.00000  Uiso   1.00
O637   O     0.75326   0.09538   0.87326   0.00000  Uiso   1.00
O638   O     0.74675   0.23796   0.79341   0.00000  Uiso   1.00
O639   O     0.74480   0.08559   0.76945   0.00000  Uiso   1.00
O640   O     0.75520   0.24774   0.89721   0.00000  Uiso   1.00
O641   O     0.68936   0.17155   0.88524   0.00000  Uiso   1.00
O642   O     0.81065   0.16179   0.78143   0.00000  Uiso   1.00
O643   O     0.68090   0.16176   0.78143   0.00000  Uiso   1.00
O644   O     0.81910   0.17157   0.88523   0.00000  Uiso   1.00
C645   C     0.24812   0.40006   0.81787   0.00000  Uiso   1.00
C646   C     0.09056   0.45664   0.80566   0.00000  Uiso   1.00
C647   C     0.38329   0.49811   0.83046   0.00000  Uiso   1.00
C648   C     0.11671   0.50191   0.83621   0.00000  Uiso   1.00
C649   C     0.40241   0.45317   0.79933   0.00000  Uiso   1.00
C650   C     0.09760   0.54685   0.86734   0.00000  Uiso   1.00
C651   C     0.44959   0.45266   0.80319   0.00000  Uiso   1.00
C652   C     0.05042   0.54735   0.86353   0.00000  Uiso   1.00
C653   C     0.47640   0.49964   0.83248   0.00000  Uiso   1.00
C654   C     0.02360   0.50037   0.83424   0.00000  Uiso   1.00
C655   C     0.45603   0.54590   0.85998   0.00000  Uiso   1.00
C656   C     0.25188   0.59994   0.84879   0.00000  Uiso   1.00
C657   C     0.04397   0.45411   0.80674   0.00000  Uiso   1.00
C658   C     0.47077   0.40653   0.77977   0.00000  Uiso   1.00
C659   C     0.02923   0.59347   0.88699   0.00000  Uiso   1.00
C660   C     0.01716   0.40685   0.78135   0.00000  Uiso   1.00
C661   C     0.48284   0.59315   0.88540   0.00000  Uiso   1.00
C662   C     0.24509   0.34415   0.80960   0.00000  Uiso   1.00
C663   C     0.25490   0.65586   0.85707   0.00000  Uiso   1.00
C664   C     0.16478   0.50120   0.83430   0.00000  Uiso   1.00
C665   C     0.33522   0.49880   0.83236   0.00000  Uiso   1.00
C666   C     0.40944   0.54336   0.86104   0.00000  Uiso   1.00
Cu667  Cu    0.25501   0.50579   0.89479   0.00000  Uiso   1.00
Cu668  Cu    0.24500   0.49421   0.77187   0.00000  Uiso   1.00
F669   F     0.38825   0.58445   0.89153   0.00000  Uiso   1.00
F670   F     0.11175   0.41555   0.77517   0.00000  Uiso   1.00
F671   F     0.44718   0.35941   0.75784   0.00000  Uiso   1.00
F672   F     0.05282   0.64058   0.90898   0.00000  Uiso   1.00
F673   F     0.23071   0.64810   0.75254   0.00000  Uiso   1.00
F674   F     0.26929   0.35190   0.91412   0.00000  Uiso   1.00
I675   I     0.35781   0.38872   0.74630   0.00000  Uiso   1.00
I676   I     0.14223   0.61134   0.92026   0.00000  Uiso   1.00
I677   I     0.04224   0.66467   0.74796   0.00000  Uiso   1.00
I678   I     0.45777   0.33533   0.91885   0.00000  Uiso   1.00
I679   I     0.18558   0.43140   0.96744   0.00000  Uiso   1.00
I680   I     0.31443   0.56860   0.69922   0.00000  Uiso   1.00
N681   N     0.23745   0.48547   0.67951   0.00000  Uiso   1.00
N682   N     0.26256   0.51453   0.98716   0.00000  Uiso   1.00
O683   O     0.25326   0.42871   0.87326   0.00000  Uiso   1.00
O684   O     0.24675   0.57129   0.79341   0.00000  Uiso   1.00
O685   O     0.24480   0.41892   0.76945   0.00000  Uiso   1.00
O686   O     0.25520   0.58108   0.89721   0.00000  Uiso   1.00
O687   O     0.18936   0.50488   0.88524   0.00000  Uiso   1.00
O688   O     0.31065   0.49512   0.78143   0.00000  Uiso   1.00
O689   O     0.18090   0.49510   0.78143   0.00000  Uiso   1.00
O690   O     0.31910   0.50490   0.88523   0.00000  Uiso   1.00
C691   C     0.74812   0.40006   0.81787   0.00000  Uiso   1.00
C692   C     0.59056   0.45664   0.80566   0.00000  Uiso   1.00
C693   C     0.88329   0.49811   0.83046   0.00000  Uiso   1.00
C694   C     0.61671   0.50191   0.83621   0.00000  Uiso   1.00
C695   C     0.90241   0.45317   0.79933   0.00000  Uiso   1.00
C696   C     0.59760   0.54685   0.86734   0.00000  Uiso   1.00
C697   C     0.94959   0.45266   0.80319   0.00000  Uiso   1.00
C698   C     0.55042   0.54735   0.86353   0.00000  Uiso   1.00
C699   C     0.97640   0.49964   0.83248   0.00000  Uiso   1.00
C700   C     0.52360   0.50037   0.83424   0.00000  Uiso   1.00
C701   C     0.95603   0.54590   0.85998   0.00000  Uiso   1.00
C702   C     0.75188   0.59994   0.84879   0.00000  Uiso   1.00
C703   C     0.54397   0.45411   0.80674   0.00000  Uiso   1.00
C704   C     0.97077   0.40653   0.77977   0.00000  Uiso   1.00
C705   C     0.52923   0.59347   0.88699   0.00000  Uiso   1.00
C706   C     0.51716   0.40685   0.78135   0.00000  Uiso   1.00
C707   C     0.98284   0.59315   0.88540   0.00000  Uiso   1.00
C708   C     0.74509   0.34415   0.80960   0.00000  Uiso   1.00
C709   C     0.75490   0.65586   0.85707   0.00000  Uiso   1.00
C710   C     0.66478   0.50120   0.83430   0.00000  Uiso   1.00
C711   C     0.83522   0.49880   0.83236   0.00000  Uiso   1.00
C712   C     0.90944   0.54336   0.86104   0.00000  Uiso   1.00
Cu713  Cu    0.75501   0.50579   0.89479   0.00000  Uiso   1.00
Cu714  Cu    0.74500   0.49421   0.77187   0.00000  Uiso   1.00
F715   F     0.88825   0.58445   0.89153   0.00000  Uiso   1.00
F716   F     0.61175   0.41555   0.77517   0.00000  Uiso   1.00
F717   F     0.94718   0.35941   0.75784   0.00000  Uiso   1.00
F718   F     0.55282   0.64058   0.90898   0.00000  Uiso   1.00
F719   F     0.73071   0.64810   0.75254   0.00000  Uiso   1.00
F720   F     0.76929   0.35190   0.91412   0.00000  Uiso   1.00
I721   I     0.85781   0.38872   0.74630   0.00000  Uiso   1.00
I722   I     0.64223   0.61134   0.92026   0.00000  Uiso   1.00
I723   I     0.54224   0.66467   0.74796   0.00000  Uiso   1.00
I724   I     0.95777   0.33533   0.91885   0.00000  Uiso   1.00
I725   I     0.68558   0.43140   0.96744   0.00000  Uiso   1.00
I726   I     0.81443   0.56860   0.69922   0.00000  Uiso   1.00
N727   N     0.73745   0.48547   0.67951   0.00000  Uiso   1.00
N728   N     0.76256   0.51453   0.98716   0.00000  Uiso   1.00
O729   O     0.75326   0.42871   0.87326   0.00000  Uiso   1.00
O730   O     0.74675   0.57129   0.79341   0.00000  Uiso   1.00
O731   O     0.74480   0.41892   0.76945   0.00000  Uiso   1.00
O732   O     0.75520   0.58108   0.89721   0.00000  Uiso   1.00
O733   O     0.68936   0.50488   0.88524   0.00000  Uiso   1.00
O734   O     0.81065   0.49512   0.78143   0.00000  Uiso   1.00
O735   O     0.68090   0.49510   0.78143   0.00000  Uiso   1.00
O736   O     0.81910   0.50490   0.88523   0.00000  Uiso   1.00
C737   C     0.24812   0.73339   0.81787   0.00000  Uiso   1.00
C738   C     0.09056   0.78998   0.80566   0.00000  Uiso   1.00
C739   C     0.38329   0.83144   0.83046   0.00000  Uiso   1.00
C740   C     0.11671   0.83524   0.83621   0.00000  Uiso   1.00
C741   C     0.40241   0.78651   0.79933   0.00000  Uiso   1.00
C742   C     0.09760   0.88018   0.86734   0.00000  Uiso   1.00
C743   C     0.44959   0.78599   0.80319   0.00000  Uiso   1.00
C744   C     0.05042   0.88069   0.86353   0.00000  Uiso   1.00
C745   C     0.47640   0.83297   0.83248   0.00000  Uiso   1.00
C746   C     0.02360   0.83370   0.83424   0.00000  Uiso   1.00
C747   C     0.45603   0.87923   0.85998   0.00000  Uiso   1.00
C748   C     0.25188   0.93328   0.84879   0.00000  Uiso   1.00
C749   C     0.04397   0.78744   0.80674   0.00000  Uiso   1.00
C750   C     0.47077   0.73986   0.77977   0.00000  Uiso   1.00
C751   C     0.02923   0.92681   0.88699   0.00000  Uiso   1.00
C752   C     0.01716   0.74018   0.78135   0.00000  Uiso   1.00
C753   C     0.48284   0.92648   0.88540   0.00000  Uiso   1.00
C754   C     0.24509   0.67748   0.80960   0.00000  Uiso   1.00
C755   C     0.25490   0.98919   0.85707   0.00000  Uiso   1.00
C756   C     0.16478   0.83454   0.83430   0.00000  Uiso   1.00
C757   C     0.33522   0.83213   0.83236   0.00000  Uiso   1.00
C758   C     0.40944   0.87670   0.86104   0.00000  Uiso   1.00
Cu759  Cu    0.25501   0.83913   0.89479   0.00000  Uiso   1.00
Cu760  Cu    0.24500   0.82754   0.77187   0.00000  Uiso   1.00
F761   F     0.38825   0.91779   0.89153   0.00000  Uiso   1.00
F762   F     0.11175   0.74888   0.77517   0.00000  Uiso   1.00
F763   F     0.44718   0.69274   0.75784   0.00000  Uiso   1.00
F764   F     0.05282   0.97391   0.90898   0.00000  Uiso   1.00
F765   F     0.23071   0.98143   0.75254   0.00000  Uiso   1.00
F766   F     0.26929   0.68524   0.91412   0.00000  Uiso   1.00
I767   I     0.35781   0.72205   0.74630   0.00000  Uiso   1.00
I768   I     0.14223   0.94467   0.92026   0.00000  Uiso   1.00
I769   I     0.04224   0.99800   0.74796   0.00000  Uiso   1.00
I770   I     0.45777   0.66866   0.91885   0.00000  Uiso   1.00
I771   I     0.18558   0.76474   0.96744   0.00000  Uiso   1.00
I772   I     0.31443   0.90193   0.69922   0.00000  Uiso   1.00
N773   N     0.23745   0.81881   0.67951   0.00000  Uiso   1.00
N774   N     0.26256   0.84786   0.98716   0.00000  Uiso   1.00
O775   O     0.25326   0.76204   0.87326   0.00000  Uiso   1.00
O776   O     0.24675   0.90462   0.79341   0.00000  Uiso   1.00
O777   O     0.24480   0.75226   0.76945   0.00000  Uiso   1.00
O778   O     0.25520   0.91441   0.89721   0.00000  Uiso   1.00
O779   O     0.18936   0.83821   0.88524   0.00000  Uiso   1.00
O780   O     0.31065   0.82845   0.78143   0.00000  Uiso   1.00
O781   O     0.18090   0.82843   0.78143   0.00000  Uiso   1.00
O782   O     0.31910   0.83824   0.88523   0.00000  Uiso   1.00
C783   C     0.74812   0.73339   0.81787   0.00000  Uiso   1.00
C784   C     0.59056   0.78998   0.80566   0.00000  Uiso   1.00
C785   C     0.88329   0.83144   0.83046   0.00000  Uiso   1.00
C786   C     0.61671   0.83524   0.83621   0.00000  Uiso   1.00
C787   C     0.90241   0.78651   0.79933   0.00000  Uiso   1.00
C788   C     0.59760   0.88018   0.86734   0.00000  Uiso   1.00
C789   C     0.94959   0.78599   0.80319   0.00000  Uiso   1.00
C790   C     0.55042   0.88069   0.86353   0.00000  Uiso   1.00
C791   C     0.97640   0.83297   0.83248   0.00000  Uiso   1.00
C792   C     0.52360   0.83370   0.83424   0.00000  Uiso   1.00
C793   C     0.95603   0.87923   0.85998   0.00000  Uiso   1.00
C794   C     0.75188   0.93328   0.84879   0.00000  Uiso   1.00
C795   C     0.54397   0.78744   0.80674   0.00000  Uiso   1.00
C796   C     0.97077   0.73986   0.77977   0.00000  Uiso   1.00
C797   C     0.52923   0.92681   0.88699   0.00000  Uiso   1.00
C798   C     0.51716   0.74018   0.78135   0.00000  Uiso   1.00
C799   C     0.98284   0.92648   0.88540   0.00000  Uiso   1.00
C800   C     0.74509   0.67748   0.80960   0.00000  Uiso   1.00
C801   C     0.75490   0.98919   0.85707   0.00000  Uiso   1.00
C802   C     0.66478   0.83454   0.83430   0.00000  Uiso   1.00
C803   C     0.83522   0.83213   0.83236   0.00000  Uiso   1.00
C804   C     0.90944   0.87670   0.86104   0.00000  Uiso   1.00
Cu805  Cu    0.75501   0.83913   0.89479   0.00000  Uiso   1.00
Cu806  Cu    0.74500   0.82754   0.77187   0.00000  Uiso   1.00
F807   F     0.88825   0.91779   0.89153   0.00000  Uiso   1.00
F808   F     0.61175   0.74888   0.77517   0.00000  Uiso   1.00
F809   F     0.94718   0.69274   0.75784   0.00000  Uiso   1.00
F810   F     0.55282   0.97391   0.90898   0.00000  Uiso   1.00
F811   F     0.73071   0.98143   0.75254   0.00000  Uiso   1.00
F812   F     0.76929   0.68524   0.91412   0.00000  Uiso   1.00
I813   I     0.85781   0.72205   0.74630   0.00000  Uiso   1.00
I814   I     0.64223   0.94467   0.92026   0.00000  Uiso   1.00
I815   I     0.54224   0.99800   0.74796   0.00000  Uiso   1.00
I816   I     0.95777   0.66866   0.91885   0.00000  Uiso   1.00
I817   I     0.68558   0.76474   0.96744   0.00000  Uiso   1.00
I818   I     0.81443   0.90193   0.69922   0.00000  Uiso   1.00
N819   N     0.73745   0.81881   0.67951   0.00000  Uiso   1.00
N820   N     0.76256   0.84786   0.98716   0.00000  Uiso   1.00
O821   O     0.75326   0.76204   0.87326   0.00000  Uiso   1.00
O822   O     0.74675   0.90462   0.79341   0.00000  Uiso   1.00
O823   O     0.74480   0.75226   0.76945   0.00000  Uiso   1.00
O824   O     0.75520   0.91441   0.89721   0.00000  Uiso   1.00
O825   O     0.68936   0.83821   0.88524   0.00000  Uiso   1.00
O826   O     0.81065   0.82845   0.78143   0.00000  Uiso   1.00
O827   O     0.68090   0.82843   0.78143   0.00000  Uiso   1.00
O828   O     0.81910   0.83824   0.88523   0.00000  Uiso   1.00
loop_
_geom_bond_atom_site_label_1
_geom_bond_atom_site_label_2
_geom_bond_distance
_geom_bond_site_symmetry_2
_ccdc_geom_bond_type
C1     C18     1.428   .     S
C1     O41     1.296   .     A
C1     O39     1.294   .     A
C2     C4      1.390   .     A
C2     F26     1.357   .     S
C2     C13     1.399   .     A
C3     C21     1.449   .     S
C3     C5      1.402   .     A
C3     C22     1.390   .     A
C4     C6      1.402   .     A
C4     C20     1.449   .     S
C5     C7      1.414   .     A
C5     I31     2.155   .     S
C6     I32     2.155   .     S
C6     C8      1.414   .     A
C7     C9      1.425   .     A
C7     C14     1.410   .     A
C8     C10     1.425   .     A
C8     C15     1.410   .     A
C9     C11     1.422   .     A
C9     C56     1.414   .     S
C10    C13     1.422   .     A
C10    C55     1.414   1_455 S
C11    C22     1.399   .     A
C11    C17     1.413   .     A
C12    O40     1.294   .     A
C12    O42     1.296   .     A
C12    C19     1.428   .     S
C13    C16     1.413   .     A
C14    F27     1.354   .     S
C14    C62     1.391   .     S
C15    F28     1.354   .     S
C15    C63     1.391   1_455 S
C16    C60     1.391   1_455 S
C16    I217    2.148   1_545 S
C17    C61     1.391   .     S
C17    I126    2.148   .     S
C18    C203    1.342   1_545 S
C18    F213    1.363   1_545 S
C19    C110    1.342   .     S
C19    F122    1.363   .     S
C20    O45     1.299   .     A
C20    O43     1.299   .     A
C21    O44     1.299   .     A
C21    O46     1.299   .     A
C22    F25     1.357   .     S
Cu23   Cu24    2.709   .     S
Cu23   O46     1.954   .     S
Cu23   O42     1.957   .     S
Cu23   O39     1.960   .     S
Cu23   N38     2.036   .     S
Cu23   O43     1.966   .     S
Cu24   N37     2.036   .     S
Cu24   O41     1.957   .     S
Cu24   O45     1.954   .     S
Cu24   O40     1.960   .     S
Cu24   O44     1.966   .     S
F29    C110    1.363   .     S
F30    C203    1.363   1_545 S
I33    C108    2.148   .     S
I34    C201    2.148   1_545 S
I35    N313    2.079   .     S
I36    N590    2.079   1_554 S
N37    I587    2.079   1_554 S
N37    N590    1.296   1_554 S
N38    N313    1.296   .     S
N38    I312    2.079   .     S
C47    C64     1.428   .     S
C47    O87     1.296   .     A
C47    O85     1.294   .     A
C48    C50     1.390   .     A
C48    F72     1.357   .     S
C48    C59     1.399   .     A
C49    C67     1.449   .     S
C49    C51     1.402   .     A
C49    C68     1.390   .     A
C50    C52     1.402   .     A
C50    C66     1.449   .     S
C51    C53     1.414   .     A
C51    I77     2.155   .     S
C52    I78     2.155   .     S
C52    C54     1.414   .     A
C53    C55     1.425   .     A
C53    C60     1.410   .     A
C54    C56     1.425   .     A
C54    C61     1.410   .     A
C55    C57     1.422   .     A
C55    C10     1.414   1_655 S
C56    C59     1.422   .     A
C57    C68     1.399   .     A
C57    C63     1.413   .     A
C58    O86     1.294   .     A
C58    O88     1.296   .     A
C58    C65     1.428   .     S
C59    C62     1.413   .     A
C60    F73     1.354   .     S
C60    C16     1.391   1_655 S
C61    F74     1.354   .     S
C62    I263    2.148   1_545 S
C63    C15     1.391   1_655 S
C63    I172    2.148   .     S
C64    C249    1.342   1_545 S
C64    F259    1.363   1_545 S
C65    C156    1.342   .     S
C65    F168    1.363   .     S
C66    O91     1.299   .     A
C66    O89     1.299   .     A
C67    O90     1.299   .     A
C67    O92     1.299   .     A
C68    F71     1.357   .     S
Cu69   Cu70    2.709   .     S
Cu69   O92     1.954   .     S
Cu69   O88     1.957   .     S
Cu69   O85     1.960   .     S
Cu69   N84     2.036   .     S
Cu69   O89     1.966   .     S
Cu70   N83     2.036   .     S
Cu70   O87     1.957   .     S
Cu70   O91     1.954   .     S
Cu70   O86     1.960   .     S
Cu70   O90     1.966   .     S
F75    C156    1.363   .     S
F76    C249    1.363   1_545 S
I79    C154    2.148   .     S
I80    C247    2.148   1_545 S
I81    N359    2.079   .     S
I82    N636    2.079   1_554 S
N83    I633    2.079   1_554 S
N83    N636    1.296   1_554 S
N84    N359    1.296   .     S
N84    I358    2.079   .     S
C93    C110    1.428   .     S
C93    O133    1.296   .     A
C93    O131    1.294   .     A
C94    C96     1.390   .     A
C94    F118    1.357   .     S
C94    C105    1.399   .     A
C95    C113    1.449   .     S
C95    C97     1.402   .     A
C95    C114    1.390   .     A
C96    C98     1.402   .     A
C96    C112    1.449   .     S
C97    C99     1.414   .     A
C97    I123    2.155   .     S
C98    I124    2.155   .     S
C98    C100    1.414   .     A
C99    C101    1.425   .     A
C99    C106    1.410   .     A
C100   C102    1.425   .     A
C100   C107    1.410   .     A
C101   C103    1.422   .     A
C101   C148    1.414   .     S
C102   C105    1.422   .     A
C102   C147    1.414   1_455 S
C103   C114    1.399   .     A
C103   C109    1.413   .     A
C104   O132    1.294   .     A
C104   O134    1.296   .     A
C104   C111    1.428   .     S
C105   C108    1.413   .     A
C106   F119    1.354   .     S
C106   C154    1.391   .     S
C107   F120    1.354   .     S
C107   C155    1.391   1_455 S
C108   C152    1.391   1_455 S
C109   C153    1.391   .     S
C109   I218    2.148   .     S
C111   C202    1.342   .     S
C111   F214    1.363   .     S
C112   O137    1.299   .     A
C112   O135    1.299   .     A
C113   O136    1.299   .     A
C113   O138    1.299   .     A
C114   F117    1.357   .     S
Cu115  Cu116   2.709   .     S
Cu115  O138    1.954   .     S
Cu115  O134    1.957   .     S
Cu115  O131    1.960   .     S
Cu115  N130    2.036   .     S
Cu115  O135    1.966   .     S
Cu116  N129    2.036   .     S
Cu116  O133    1.957   .     S
Cu116  O137    1.954   .     S
Cu116  O132    1.960   .     S
Cu116  O136    1.966   .     S
F121   C202    1.363   .     S
I125   C200    2.148   .     S
I127   N405    2.079   .     S
I128   N682    2.079   1_554 S
N129   I679    2.079   1_554 S
N129   N682    1.296   1_554 S
N130   N405    1.296   .     S
N130   I404    2.079   .     S
C139   C156    1.428   .     S
C139   O179    1.296   .     A
C139   O177    1.294   .     A
C140   C142    1.390   .     A
C140   F164    1.357   .     S
C140   C151    1.399   .     A
C141   C159    1.449   .     S
C141   C143    1.402   .     A
C141   C160    1.390   .     A
C142   C144    1.402   .     A
C142   C158    1.449   .     S
C143   C145    1.414   .     A
C143   I169    2.155   .     S
C144   I170    2.155   .     S
C144   C146    1.414   .     A
C145   C147    1.425   .     A
C145   C152    1.410   .     A
C146   C148    1.425   .     A
C146   C153    1.410   .     A
C147   C149    1.422   .     A
C147   C102    1.414   1_655 S
C148   C151    1.422   .     A
C149   C160    1.399   .     A
C149   C155    1.413   .     A
C150   O178    1.294   .     A
C150   O180    1.296   .     A
C150   C157    1.428   .     S
C151   C154    1.413   .     A
C152   F165    1.354   .     S
C152   C108    1.391   1_655 S
C153   F166    1.354   .     S
C155   C107    1.391   1_655 S
C155   I264    2.148   .     S
C157   C248    1.342   .     S
C157   F260    1.363   .     S
C158   O183    1.299   .     A
C158   O181    1.299   .     A
C159   O182    1.299   .     A
C159   O184    1.299   .     A
C160   F163    1.357   .     S
Cu161  Cu162   2.709   .     S
Cu161  O184    1.954   .     S
Cu161  O180    1.957   .     S
Cu161  O177    1.960   .     S
Cu161  N176    2.036   .     S
Cu161  O181    1.966   .     S
Cu162  N175    2.036   .     S
Cu162  O179    1.957   .     S
Cu162  O183    1.954   .     S
Cu162  O178    1.960   .     S
Cu162  O182    1.966   .     S
F167   C248    1.363   .     S
I171   C246    2.148   .     S
I173   N451    2.079   .     S
I174   N728    2.079   1_554 S
N175   I725    2.079   1_554 S
N175   N728    1.296   1_554 S
N176   N451    1.296   .     S
N176   I450    2.079   .     S
C185   C202    1.428   .     S
C185   O225    1.296   .     A
C185   O223    1.294   .     A
C186   C188    1.390   .     A
C186   F210    1.357   .     S
C186   C197    1.399   .     A
C187   C205    1.449   .     S
C187   C189    1.402   .     A
C187   C206    1.390   .     A
C188   C190    1.402   .     A
C188   C204    1.449   .     S
C189   C191    1.414   .     A
C189   I215    2.155   .     S
C190   I216    2.155   .     S
C190   C192    1.414   .     A
C191   C193    1.425   .     A
C191   C198    1.410   .     A
C192   C194    1.425   .     A
C192   C199    1.410   .     A
C193   C195    1.422   .     A
C193   C240    1.414   .     S
C194   C197    1.422   .     A
C194   C239    1.414   1_455 S
C195   C206    1.399   .     A
C195   C201    1.413   .     A
C196   O224    1.294   .     A
C196   O226    1.296   .     A
C196   C203    1.428   .     S
C197   C200    1.413   .     A
C198   F211    1.354   .     S
C198   C246    1.391   .     S
C199   F212    1.354   .     S
C199   C247    1.391   1_455 S
C200   C244    1.391   1_455 S
C201   C245    1.391   .     S
C201   I34     2.148   1_565 S
C203   C18     1.342   1_565 S
C203   F30     1.363   1_565 S
C204   O229    1.299   .     A
C204   O227    1.299   .     A
C205   O228    1.299   .     A
C205   O230    1.299   .     A
C206   F209    1.357   .     S
Cu207  Cu208   2.709   .     S
Cu207  O230    1.954   .     S
Cu207  O226    1.957   .     S
Cu207  O223    1.960   .     S
Cu207  N222    2.036   .     S
Cu207  O227    1.966   .     S
Cu208  N221    2.036   .     S
Cu208  O225    1.957   .     S
Cu208  O229    1.954   .     S
Cu208  O224    1.960   .     S
Cu208  O228    1.966   .     S
F213   C18     1.363   1_565 S
I217   C16     2.148   1_565 S
I219   N497    2.079   .     S
I220   N774    2.079   1_554 S
N221   I771    2.079   1_554 S
N221   N774    1.296   1_554 S
N222   N497    1.296   .     S
N222   I496    2.079   .     S
C231   C248    1.428   .     S
C231   O271    1.296   .     A
C231   O269    1.294   .     A
C232   C234    1.390   .     A
C232   F256    1.357   .     S
C232   C243    1.399   .     A
C233   C251    1.449   .     S
C233   C235    1.402   .     A
C233   C252    1.390   .     A
C234   C236    1.402   .     A
C234   C250    1.449   .     S
C235   C237    1.414   .     A
C235   I261    2.155   .     S
C236   I262    2.155   .     S
C236   C238    1.414   .     A
C237   C239    1.425   .     A
C237   C244    1.410   .     A
C238   C240    1.425   .     A
C238   C245    1.410   .     A
C239   C241    1.422   .     A
C239   C194    1.414   1_655 S
C240   C243    1.422   .     A
C241   C252    1.399   .     A
C241   C247    1.413   .     A
C242   O270    1.294   .     A
C242   O272    1.296   .     A
C242   C249    1.428   .     S
C243   C246    1.413   .     A
C244   F257    1.354   .     S
C244   C200    1.391   1_655 S
C245   F258    1.354   .     S
C247   C199    1.391   1_655 S
C247   I80     2.148   1_565 S
C249   C64     1.342   1_565 S
C249   F76     1.363   1_565 S
C250   O275    1.299   .     A
C250   O273    1.299   .     A
C251   O274    1.299   .     A
C251   O276    1.299   .     A
C252   F255    1.357   .     S
Cu253  Cu254   2.709   .     S
Cu253  O276    1.954   .     S
Cu253  O272    1.957   .     S
Cu253  O269    1.960   .     S
Cu253  N268    2.036   .     S
Cu253  O273    1.966   .     S
Cu254  N267    2.036   .     S
Cu254  O271    1.957   .     S
Cu254  O275    1.954   .     S
Cu254  O270    1.960   .     S
Cu254  O274    1.966   .     S
F259   C64     1.363   1_565 S
I263   C62     2.148   1_565 S
I265   N543    2.079   .     S
I266   N820    2.079   1_554 S
N267   I817    2.079   1_554 S
N267   N820    1.296   1_554 S
N268   N543    1.296   .     S
N268   I542    2.079   .     S
C277   C294    1.428   .     S
C277   O317    1.296   .     A
C277   O315    1.294   .     A
C278   C280    1.390   .     A
C278   F302    1.357   .     S
C278   C289    1.399   .     A
C279   C297    1.449   .     S
C279   C281    1.402   .     A
C279   C298    1.390   .     A
C280   C282    1.402   .     A
C280   C296    1.449   .     S
C281   C283    1.414   .     A
C281   I307    2.155   .     S
C282   I308    2.155   .     S
C282   C284    1.414   .     A
C283   C285    1.425   .     A
C283   C290    1.410   .     A
C284   C286    1.425   .     A
C284   C291    1.410   .     A
C285   C287    1.422   .     A
C285   C332    1.414   .     S
C286   C289    1.422   .     A
C286   C331    1.414   1_455 S
C287   C298    1.399   .     A
C287   C293    1.413   .     A
C288   O316    1.294   .     A
C288   O318    1.296   .     A
C288   C295    1.428   .     S
C289   C292    1.413   .     A
C290   F303    1.354   .     S
C290   C338    1.391   .     S
C291   F304    1.354   .     S
C291   C339    1.391   1_455 S
C292   C336    1.391   1_455 S
C292   I493    2.148   1_545 S
C293   C337    1.391   .     S
C293   I402    2.148   .     S
C294   C479    1.342   1_545 S
C294   F489    1.363   1_545 S
C295   C386    1.342   .     S
C295   F398    1.363   .     S
C296   O321    1.299   .     A
C296   O319    1.299   .     A
C297   O320    1.299   .     A
C297   O322    1.299   .     A
C298   F301    1.357   .     S
Cu299  Cu300   2.709   .     S
Cu299  O322    1.954   .     S
Cu299  O318    1.957   .     S
Cu299  O315    1.960   .     S
Cu299  N314    2.036   .     S
Cu299  O319    1.966   .     S
Cu300  N313    2.036   .     S
Cu300  O317    1.957   .     S
Cu300  O321    1.954   .     S
Cu300  O316    1.960   .     S
Cu300  O320    1.966   .     S
F305   C386    1.363   .     S
F306   C479    1.363   1_545 S
I309   C384    2.148   .     S
I310   C477    2.148   1_545 S
I311   N589    2.079   .     S
N314   N589    1.296   .     S
N314   I588    2.079   .     S
C323   C340    1.428   .     S
C323   O363    1.296   .     A
C323   O361    1.294   .     A
C324   C326    1.390   .     A
C324   F348    1.357   .     S
C324   C335    1.399   .     A
C325   C343    1.449   .     S
C325   C327    1.402   .     A
C325   C344    1.390   .     A
C326   C328    1.402   .     A
C326   C342    1.449   .     S
C327   C329    1.414   .     A
C327   I353    2.155   .     S
C328   I354    2.155   .     S
C328   C330    1.414   .     A
C329   C331    1.425   .     A
C329   C336    1.410   .     A
C330   C332    1.425   .     A
C330   C337    1.410   .     A
C331   C333    1.422   .     A
C331   C286    1.414   1_655 S
C332   C335    1.422   .     A
C333   C344    1.399   .     A
C333   C339    1.413   .     A
C334   O362    1.294   .     A
C334   O364    1.296   .     A
C334   C341    1.428   .     S
C335   C338    1.413   .     A
C336   F349    1.354   .     S
C336   C292    1.391   1_655 S
C337   F350    1.354   .     S
C338   I539    2.148   1_545 S
C339   C291    1.391   1_655 S
C339   I448    2.148   .     S
C340   C525    1.342   1_545 S
C340   F535    1.363   1_545 S
C341   C432    1.342   .     S
C341   F444    1.363   .     S
C342   O367    1.299   .     A
C342   O365    1.299   .     A
C343   O366    1.299   .     A
C343   O368    1.299   .     A
C344   F347    1.357   .     S
Cu345  Cu346   2.709   .     S
Cu345  O368    1.954   .     S
Cu345  O364    1.957   .     S
Cu345  O361    1.960   .     S
Cu345  N360    2.036   .     S
Cu345  O365    1.966   .     S
Cu346  N359    2.036   .     S
Cu346  O363    1.957   .     S
Cu346  O367    1.954   .     S
Cu346  O362    1.960   .     S
Cu346  O366    1.966   .     S
F351   C432    1.363   .     S
F352   C525    1.363   1_545 S
I355   C430    2.148   .     S
I356   C523    2.148   1_545 S
I357   N635    2.079   .     S
N360   N635    1.296   .     S
N360   I634    2.079   .     S
C369   C386    1.428   .     S
C369   O409    1.296   .     A
C369   O407    1.294   .     A
C370   C372    1.390   .     A
C370   F394    1.357   .     S
C370   C381    1.399   .     A
C371   C389    1.449   .     S
C371   C373    1.402   .     A
C371   C390    1.390   .     A
C372   C374    1.402   .     A
C372   C388    1.449   .     S
C373   C375    1.414   .     A
C373   I399    2.155   .     S
C374   I400    2.155   .     S
C374   C376    1.414   .     A
C375   C377    1.425   .     A
C375   C382    1.410   .     A
C376   C378    1.425   .     A
C376   C383    1.410   .     A
C377   C379    1.422   .     A
C377   C424    1.414   .     S
C378   C381    1.422   .     A
C378   C423    1.414   1_455 S
C379   C390    1.399   .     A
C379   C385    1.413   .     A
C380   O408    1.294   .     A
C380   O410    1.296   .     A
C380   C387    1.428   .     S
C381   C384    1.413   .     A
C382   F395    1.354   .     S
C382   C430    1.391   .     S
C383   F396    1.354   .     S
C383   C431    1.391   1_455 S
C384   C428    1.391   1_455 S
C385   C429    1.391   .     S
C385   I494    2.148   .     S
C387   C478    1.342   .     S
C387   F490    1.363   .     S
C388   O413    1.299   .     A
C388   O411    1.299   .     A
C389   O412    1.299   .     A
C389   O414    1.299   .     A
C390   F393    1.357   .     S
Cu391  Cu392   2.709   .     S
Cu391  O414    1.954   .     S
Cu391  O410    1.957   .     S
Cu391  O407    1.960   .     S
Cu391  N406    2.036   .     S
Cu391  O411    1.966   .     S
Cu392  N405    2.036   .     S
Cu392  O409    1.957   .     S
Cu392  O413    1.954   .     S
Cu392  O408    1.960   .     S
Cu392  O412    1.966   .     S
F397   C478    1.363   .     S
I401   C476    2.148   .     S
I403   N681    2.079   .     S
N406   N681    1.296   .     S
N406   I680    2.079   .     S
C415   C432    1.428   .     S
C415   O455    1.296   .     A
C415   O453    1.294   .     A
C416   C418    1.390   .     A
C416   F440    1.357   .     S
C416   C427    1.399   .     A
C417   C435    1.449   .     S
C417   C419    1.402   .     A
C417   C436    1.390   .     A
C418   C420    1.402   .     A
C418   C434    1.449   .     S
C419   C421    1.414   .     A
C419   I445    2.155   .     S
C420   I446    2.155   .     S
C420   C422    1.414   .     A
C421   C423    1.425   .     A
C421   C428    1.410   .     A
C422   C424    1.425   .     A
C422   C429    1.410   .     A
C423   C425    1.422   .     A
C423   C378    1.414   1_655 S
C424   C427    1.422   .     A
C425   C436    1.399   .     A
C425   C431    1.413   .     A
C426   O454    1.294   .     A
C426   O456    1.296   .     A
C426   C433    1.428   .     S
C427   C430    1.413   .     A
C428   F441    1.354   .     S
C428   C384    1.391   1_655 S
C429   F442    1.354   .     S
C431   C383    1.391   1_655 S
C431   I540    2.148   .     S
C433   C524    1.342   .     S
C433   F536    1.363   .     S
C434   O459    1.299   .     A
C434   O457    1.299   .     A
C435   O458    1.299   .     A
C435   O460    1.299   .     A
C436   F439    1.357   .     S
Cu437  Cu438   2.709   .     S
Cu437  O460    1.954   .     S
Cu437  O456    1.957   .     S
Cu437  O453    1.960   .     S
Cu437  N452    2.036   .     S
Cu437  O457    1.966   .     S
Cu438  N451    2.036   .     S
Cu438  O455    1.957   .     S
Cu438  O459    1.954   .     S
Cu438  O454    1.960   .     S
Cu438  O458    1.966   .     S
F443   C524    1.363   .     S
I447   C522    2.148   .     S
I449   N727    2.079   .     S
N452   N727    1.296   .     S
N452   I726    2.079   .     S
C461   C478    1.428   .     S
C461   O501    1.296   .     A
C461   O499    1.294   .     A
C462   C464    1.390   .     A
C462   F486    1.357   .     S
C462   C473    1.399   .     A
C463   C481    1.449   .     S
C463   C465    1.402   .     A
C463   C482    1.390   .     A
C464   C466    1.402   .     A
C464   C480    1.449   .     S
C465   C467    1.414   .     A
C465   I491    2.155   .     S
C466   I492    2.155   .     S
C466   C468    1.414   .     A
C467   C469    1.425   .     A
C467   C474    1.410   .     A
C468   C470    1.425   .     A
C468   C475    1.410   .     A
C469   C471    1.422   .     A
C469   C516    1.414   .     S
C470   C473    1.422   .     A
C470   C515    1.414   1_455 S
C471   C482    1.399   .     A
C471   C477    1.413   .     A
C472   O500    1.294   .     A
C472   O502    1.296   .     A
C472   C479    1.428   .     S
C473   C476    1.413   .     A
C474   F487    1.354   .     S
C474   C522    1.391   .     S
C475   F488    1.354   .     S
C475   C523    1.391   1_455 S
C476   C520    1.391   1_455 S
C477   C521    1.391   .     S
C477   I310    2.148   1_565 S
C479   C294    1.342   1_565 S
C479   F306    1.363   1_565 S
C480   O505    1.299   .     A
C480   O503    1.299   .     A
C481   O504    1.299   .     A
C481   O506    1.299   .     A
C482   F485    1.357   .     S
Cu483  Cu484   2.709   .     S
Cu483  O506    1.954   .     S
Cu483  O502    1.957   .     S
Cu483  O499    1.960   .     S
Cu483  N498    2.036   .     S
Cu483  O503    1.966   .     S
Cu484  N497    2.036   .     S
Cu484  O501    1.957   .     S
Cu484  O505    1.954   .     S
Cu484  O500    1.960   .     S
Cu484  O504    1.966   .     S
F489   C294    1.363   1_565 S
I493   C292    2.148   1_565 S
I495   N773    2.079   .     S
N498   N773    1.296   .     S
N498   I772    2.079   .     S
C507   C524    1.428   .     S
C507   O547    1.296   .     A
C507   O545    1.294   .     A
C508   C510    1.390   .     A
C508   F532    1.357   .     S
C508   C519    1.399   .     A
C509   C527    1.449   .     S
C509   C511    1.402   .     A
C509   C528    1.390   .     A
C510   C512    1.402   .     A
C510   C526    1.449   .     S
C511   C513    1.414   .     A
C511   I537    2.155   .     S
C512   I538    2.155   .     S
C512   C514    1.414   .     A
C513   C515    1.425   .     A
C513   C520    1.410   .     A
C514   C516    1.425   .     A
C514   C521    1.410   .     A
C515   C517    1.422   .     A
C515   C470    1.414   1_655 S
C516   C519    1.422   .     A
C517   C528    1.399   .     A
C517   C523    1.413   .     A
C518   O546    1.294   .     A
C518   O548    1.296   .     A
C518   C525    1.428   .     S
C519   C522    1.413   .     A
C520   F533    1.354   .     S
C520   C476    1.391   1_655 S
C521   F534    1.354   .     S
C523   C475    1.391   1_655 S
C523   I356    2.148   1_565 S
C525   C340    1.342   1_565 S
C525   F352    1.363   1_565 S
C526   O551    1.299   .     A
C526   O549    1.299   .     A
C527   O550    1.299   .     A
C527   O552    1.299   .     A
C528   F531    1.357   .     S
Cu529  Cu530   2.709   .     S
Cu529  O552    1.954   .     S
Cu529  O548    1.957   .     S
Cu529  O545    1.960   .     S
Cu529  N544    2.036   .     S
Cu529  O549    1.966   .     S
Cu530  N543    2.036   .     S
Cu530  O547    1.957   .     S
Cu530  O551    1.954   .     S
Cu530  O546    1.960   .     S
Cu530  O550    1.966   .     S
F535   C340    1.363   1_565 S
I539   C338    2.148   1_565 S
I541   N819    2.079   .     S
N544   N819    1.296   .     S
N544   I818    2.079   .     S
C553   C570    1.428   .     S
C553   O593    1.296   .     A
C553   O591    1.294   .     A
C554   C556    1.390   .     A
C554   F578    1.357   .     S
C554   C565    1.399   .     A
C555   C573    1.449   .     S
C555   C557    1.402   .     A
C555   C574    1.390   .     A
C556   C558    1.402   .     A
C556   C572    1.449   .     S
C557   C559    1.414   .     A
C557   I583    2.155   .     S
C558   I584    2.155   .     S
C558   C560    1.414   .     A
C559   C561    1.425   .     A
C559   C566    1.410   .     A
C560   C562    1.425   .     A
C560   C567    1.410   .     A
C561   C563    1.422   .     A
C561   C608    1.414   .     S
C562   C565    1.422   .     A
C562   C607    1.414   1_455 S
C563   C574    1.399   .     A
C563   C569    1.413   .     A
C564   O592    1.294   .     A
C564   O594    1.296   .     A
C564   C571    1.428   .     S
C565   C568    1.413   .     A
C566   F579    1.354   .     S
C566   C614    1.391   .     S
C567   F580    1.354   .     S
C567   C615    1.391   1_455 S
C568   C612    1.391   1_455 S
C568   I769    2.148   1_545 S
C569   C613    1.391   .     S
C569   I678    2.148   .     S
C570   C755    1.342   1_545 S
C570   F765    1.363   1_545 S
C571   C662    1.342   .     S
C571   F674    1.363   .     S
C572   O597    1.299   .     A
C572   O595    1.299   .     A
C573   O596    1.299   .     A
C573   O598    1.299   .     A
C574   F577    1.357   .     S
Cu575  Cu576   2.709   .     S
Cu575  O598    1.954   .     S
Cu575  O594    1.957   .     S
Cu575  O591    1.960   .     S
Cu575  N590    2.036   .     S
Cu575  O595    1.966   .     S
Cu576  N589    2.036   .     S
Cu576  O593    1.957   .     S
Cu576  O597    1.954   .     S
Cu576  O592    1.960   .     S
Cu576  O596    1.966   .     S
F581   C662    1.363   .     S
F582   C755    1.363   1_545 S
I585   C660    2.148   .     S
I586   C753    2.148   1_545 S
I587   N37     2.079   1_556 S
N590   N37     1.296   1_556 S
N590   I36     2.079   1_556 S
C599   C616    1.428   .     S
C599   O639    1.296   .     A
C599   O637    1.294   .     A
C600   C602    1.390   .     A
C600   F624    1.357   .     S
C600   C611    1.399   .     A
C601   C619    1.449   .     S
C601   C603    1.402   .     A
C601   C620    1.390   .     A
C602   C604    1.402   .     A
C602   C618    1.449   .     S
C603   C605    1.414   .     A
C603   I629    2.155   .     S
C604   I630    2.155   .     S
C604   C606    1.414   .     A
C605   C607    1.425   .     A
C605   C612    1.410   .     A
C606   C608    1.425   .     A
C606   C613    1.410   .     A
C607   C609    1.422   .     A
C607   C562    1.414   1_655 S
C608   C611    1.422   .     A
C609   C620    1.399   .     A
C609   C615    1.413   .     A
C610   O638    1.294   .     A
C610   O640    1.296   .     A
C610   C617    1.428   .     S
C611   C614    1.413   .     A
C612   F625    1.354   .     S
C612   C568    1.391   1_655 S
C613   F626    1.354   .     S
C614   I815    2.148   1_545 S
C615   C567    1.391   1_655 S
C615   I724    2.148   .     S
C616   C801    1.342   1_545 S
C616   F811    1.363   1_545 S
C617   C708    1.342   .     S
C617   F720    1.363   .     S
C618   O643    1.299   .     A
C618   O641    1.299   .     A
C619   O642    1.299   .     A
C619   O644    1.299   .     A
C620   F623    1.357   .     S
Cu621  Cu622   2.709   .     S
Cu621  O644    1.954   .     S
Cu621  O640    1.957   .     S
Cu621  O637    1.960   .     S
Cu621  N636    2.036   .     S
Cu621  O641    1.966   .     S
Cu622  N635    2.036   .     S
Cu622  O639    1.957   .     S
Cu622  O643    1.954   .     S
Cu622  O638    1.960   .     S
Cu622  O642    1.966   .     S
F627   C708    1.363   .     S
F628   C801    1.363   1_545 S
I631   C706    2.148   .     S
I632   C799    2.148   1_545 S
I633   N83     2.079   1_556 S
N636   N83     1.296   1_556 S
N636   I82     2.079   1_556 S
C645   C662    1.428   .     S
C645   O685    1.296   .     A
C645   O683    1.294   .     A
C646   C648    1.390   .     A
C646   F670    1.357   .     S
C646   C657    1.399   .     A
C647   C665    1.449   .     S
C647   C649    1.402   .     A
C647   C666    1.390   .     A
C648   C650    1.402   .     A
C648   C664    1.449   .     S
C649   C651    1.414   .     A
C649   I675    2.155   .     S
C650   I676    2.155   .     S
C650   C652    1.414   .     A
C651   C653    1.425   .     A
C651   C658    1.410   .     A
C652   C654    1.425   .     A
C652   C659    1.410   .     A
C653   C655    1.422   .     A
C653   C700    1.414   .     S
C654   C657    1.422   .     A
C654   C699    1.414   1_455 S
C655   C666    1.399   .     A
C655   C661    1.413   .     A
C656   O684    1.294   .     A
C656   O686    1.296   .     A
C656   C663    1.428   .     S
C657   C660    1.413   .     A
C658   F671    1.354   .     S
C658   C706    1.391   .     S
C659   F672    1.354   .     S
C659   C707    1.391   1_455 S
C660   C704    1.391   1_455 S
C661   C705    1.391   .     S
C661   I770    2.148   .     S
C663   C754    1.342   .     S
C663   F766    1.363   .     S
C664   O689    1.299   .     A
C664   O687    1.299   .     A
C665   O688    1.299   .     A
C665   O690    1.299   .     A
C666   F669    1.357   .     S
Cu667  Cu668   2.709   .     S
Cu667  O690    1.954   .     S
Cu667  O686    1.957   .     S
Cu667  O683    1.960   .     S
Cu667  N682    2.036   .     S
Cu667  O687    1.966   .     S
Cu668  N681    2.036   .     S
Cu668  O685    1.957   .     S
Cu668  O689    1.954   .     S
Cu668  O684    1.960   .     S
Cu668  O688    1.966   .     S
F673   C754    1.363   .     S
I677   C752    2.148   .     S
I679   N129    2.079   1_556 S
N682   N129    1.296   1_556 S
N682   I128    2.079   1_556 S
C691   C708    1.428   .     S
C691   O731    1.296   .     A
C691   O729    1.294   .     A
C692   C694    1.390   .     A
C692   F716    1.357   .     S
C692   C703    1.399   .     A
C693   C711    1.449   .     S
C693   C695    1.402   .     A
C693   C712    1.390   .     A
C694   C696    1.402   .     A
C694   C710    1.449   .     S
C695   C697    1.414   .     A
C695   I721    2.155   .     S
C696   I722    2.155   .     S
C696   C698    1.414   .     A
C697   C699    1.425   .     A
C697   C704    1.410   .     A
C698   C700    1.425   .     A
C698   C705    1.410   .     A
C699   C701    1.422   .     A
C699   C654    1.414   1_655 S
C700   C703    1.422   .     A
C701   C712    1.399   .     A
C701   C707    1.413   .     A
C702   O730    1.294   .     A
C702   O732    1.296   .     A
C702   C709    1.428   .     S
C703   C706    1.413   .     A
C704   F717    1.354   .     S
C704   C660    1.391   1_655 S
C705   F718    1.354   .     S
C707   C659    1.391   1_655 S
C707   I816    2.148   .     S
C709   C800    1.342   .     S
C709   F812    1.363   .     S
C710   O735    1.299   .     A
C710   O733    1.299   .     A
C711   O734    1.299   .     A
C711   O736    1.299   .     A
C712   F715    1.357   .     S
Cu713  Cu714   2.709   .     S
Cu713  O736    1.954   .     S
Cu713  O732    1.957   .     S
Cu713  O729    1.960   .     S
Cu713  N728    2.036   .     S
Cu713  O733    1.966   .     S
Cu714  N727    2.036   .     S
Cu714  O731    1.957   .     S
Cu714  O735    1.954   .     S
Cu714  O730    1.960   .     S
Cu714  O734    1.966   .     S
F719   C800    1.363   .     S
I723   C798    2.148   .     S
I725   N175    2.079   1_556 S
N728   N175    1.296   1_556 S
N728   I174    2.079   1_556 S
C737   C754    1.428   .     S
C737   O777    1.296   .     A
C737   O775    1.294   .     A
C738   C740    1.390   .     A
C738   F762    1.357   .     S
C738   C749    1.399   .     A
C739   C757    1.449   .     S
C739   C741    1.402   .     A
C739   C758    1.390   .     A
C740   C742    1.402   .     A
C740   C756    1.449   .     S
C741   C743    1.414   .     A
C741   I767    2.155   .     S
C742   I768    2.155   .     S
C742   C744    1.414   .     A
C743   C745    1.425   .     A
C743   C750    1.410   .     A
C744   C746    1.425   .     A
C744   C751    1.410   .     A
C745   C747    1.422   .     A
C745   C792    1.414   .     S
C746   C749    1.422   .     A
C746   C791    1.414   1_455 S
C747   C758    1.399   .     A
C747   C753    1.413   .     A
C748   O776    1.294   .     A
C748   O778    1.296   .     A
C748   C755    1.428   .     S
C749   C752    1.413   .     A
C750   F763    1.354   .     S
C750   C798    1.391   .     S
C751   F764    1.354   .     S
C751   C799    1.391   1_455 S
C752   C796    1.391   1_455 S
C753   C797    1.391   .     S
C753   I586    2.148   1_565 S
C755   C570    1.342   1_565 S
C755   F582    1.363   1_565 S
C756   O781    1.299   .     A
C756   O779    1.299   .     A
C757   O780    1.299   .     A
C757   O782    1.299   .     A
C758   F761    1.357   .     S
Cu759  Cu760   2.709   .     S
Cu759  O782    1.954   .     S
Cu759  O778    1.957   .     S
Cu759  O775    1.960   .     S
Cu759  N774    2.036   .     S
Cu759  O779    1.966   .     S
Cu760  N773    2.036   .     S
Cu760  O777    1.957   .     S
Cu760  O781    1.954   .     S
Cu760  O776    1.960   .     S
Cu760  O780    1.966   .     S
F765   C570    1.363   1_565 S
I769   C568    2.148   1_565 S
I771   N221    2.079   1_556 S
N774   N221    1.296   1_556 S
N774   I220    2.079   1_556 S
C783   C800    1.428   .     S
C783   O823    1.296   .     A
C783   O821    1.294   .     A
C784   C786    1.390   .     A
C784   F808    1.357   .     S
C784   C795    1.399   .     A
C785   C803    1.449   .     S
C785   C787    1.402   .     A
C785   C804    1.390   .     A
C786   C788    1.402   .     A
C786   C802    1.449   .     S
C787   C789    1.414   .     A
C787   I813    2.155   .     S
C788   I814    2.155   .     S
C788   C790    1.414   .     A
C789   C791    1.425   .     A
C789   C796    1.410   .     A
C790   C792    1.425   .     A
C790   C797    1.410   .     A
C791   C793    1.422   .     A
C791   C746    1.414   1_655 S
C792   C795    1.422   .     A
C793   C804    1.399   .     A
C793   C799    1.413   .     A
C794   O822    1.294   .     A
C794   O824    1.296   .     A
C794   C801    1.428   .     S
C795   C798    1.413   .     A
C796   F809    1.354   .     S
C796   C752    1.391   1_655 S
C797   F810    1.354   .     S
C799   C751    1.391   1_655 S
C799   I632    2.148   1_565 S
C801   C616    1.342   1_565 S
C801   F628    1.363   1_565 S
C802   O827    1.299   .     A
C802   O825    1.299   .     A
C803   O826    1.299   .     A
C803   O828    1.299   .     A
C804   F807    1.357   .     S
Cu805  Cu806   2.709   .     S
Cu805  O828    1.954   .     S
Cu805  O824    1.957   .     S
Cu805  O821    1.960   .     S
Cu805  N820    2.036   .     S
Cu805  O825    1.966   .     S
Cu806  N819    2.036   .     S
Cu806  O823    1.957   .     S
Cu806  O827    1.954   .     S
Cu806  O822    1.960   .     S
Cu806  O826    1.966   .     S
F811   C616    1.363   1_565 S
I815   C614    2.148   1_565 S
I817   N267    2.079   1_556 S
N820   N267    1.296   1_556 S
N820   I266    2.079   1_556 S
