data_str_m3_o10_o18_pcu_sym.62
_audit_creation_date              2020-01-03
_audit_creation_method            'Materials Studio'
_symmetry_space_group_name_H-M    'P1'
_symmetry_Int_Tables_number       1
_symmetry_cell_setting            triclinic
loop_
_symmetry_equiv_pos_as_xyz
  x,y,z
_cell_length_a                    23.4951
_cell_length_b                    25.6240
_cell_length_c                    27.2005
_cell_angle_alpha                 93.1415
_cell_angle_beta                  92.2076
_cell_angle_gamma                 94.5101
loop_
_atom_site_label
_atom_site_type_symbol
_atom_site_fract_x
_atom_site_fract_y
_atom_site_fract_z
_atom_site_U_iso_or_equiv
_atom_site_adp_type
_atom_site_occupancy
C1     C     0.01518   0.26496   0.24896   0.00000  Uiso   1.00
C2     C     0.31257   0.16137   0.15866   0.00000  Uiso   1.00
C3     C     0.03060   0.18129   0.39442   0.00000  Uiso   1.00
C4     C     0.30257   0.15152   0.10565   0.00000  Uiso   1.00
C5     C     0.02945   0.23815   0.46822   0.00000  Uiso   1.00
C6     C     0.30245   0.09342   0.03258   0.00000  Uiso   1.00
C7     C     0.00593   0.22171   0.42155   0.00000  Uiso   1.00
C8     C     0.32655   0.11041   0.07892   0.00000  Uiso   1.00
C9     C     0.07412   0.15533   0.41574   0.00000  Uiso   1.00
C10    C     0.25913   0.17748   0.08423   0.00000  Uiso   1.00
C11    C     0.10024   0.17330   0.46125   0.00000  Uiso   1.00
C12    C     0.31816   0.06838   0.25108   0.00000  Uiso   1.00
C13    C     0.23207   0.15870   0.03932   0.00000  Uiso   1.00
C14    C     0.07812   0.21644   0.48673   0.00000  Uiso   1.00
C15    C     0.25374   0.11513   0.01412   0.00000  Uiso   1.00
C16    C     0.15082   0.15285   0.47958   0.00000  Uiso   1.00
C17    C     0.18120   0.17891   0.02126   0.00000  Uiso   1.00
C18    C     0.03846   0.08035   0.10008   0.00000  Uiso   1.00
C19    C     0.09537   0.10174   0.10385   0.00000  Uiso   1.00
C20    C     0.13854   0.07211   0.12137   0.00000  Uiso   1.00
C21    C     0.12500   0.02122   0.13575   0.00000  Uiso   1.00
C22    C     0.06833   0.33308   0.13223   0.00000  Uiso   1.00
C23    C     0.15889   0.22344   0.04426   0.00000  Uiso   1.00
C24    C     0.02515   0.02904   0.11419   0.00000  Uiso   1.00
C25    C     0.29398   0.25176   0.40049   0.00000  Uiso   1.00
C26    C     0.30731   0.30292   0.38602   0.00000  Uiso   1.00
C27    C     0.26410   0.33222   0.36804   0.00000  Uiso   1.00
C28    C     0.20738   0.31087   0.36490   0.00000  Uiso   1.00
C29    C     0.19382   0.26011   0.37962   0.00000  Uiso   1.00
C30    C     0.23702   0.23050   0.39713   0.00000  Uiso   1.00
C31    C     0.17267   0.10795   0.45691   0.00000  Uiso   1.00
C32    C     0.10723   0.24037   0.02831   0.00000  Uiso   1.00
C33    C     0.22420   0.09082   0.47291   0.00000  Uiso   1.00
C34    C     0.02311   0.31964   0.24882   0.00000  Uiso   1.00
C35    C     0.31024   0.01370   0.25130   0.00000  Uiso   1.00
C36    C     0.02075   0.17191   0.34135   0.00000  Uiso   1.00
H37    H     0.09161   0.27443   0.04700   0.00000  Uiso   1.00
H38    H     0.01770   0.32004   0.38876   0.00000  Uiso   1.00
H39    H     0.27451   0.03834   0.35700   0.00000  Uiso   1.00
H40    H     0.17394   0.00038   0.35122   0.00000  Uiso   1.00
H41    H     0.14989   0.24366   0.37726   0.00000  Uiso   1.00
H42    H     0.22627   0.19114   0.40809   0.00000  Uiso   1.00
H43    H     0.01242   0.27075   0.48840   0.00000  Uiso   1.00
H44    H     0.31906   0.06043   0.01266   0.00000  Uiso   1.00
H45    H     0.18026   0.24683   0.07453   0.00000  Uiso   1.00
H46    H     0.15074   0.08427   0.42705   0.00000  Uiso   1.00
H47    H     0.06658   0.00380   0.24664   0.00000  Uiso   1.00
H48    H     0.23943   0.05641   0.45451   0.00000  Uiso   1.00
H49    H     0.26677   0.32954   0.25349   0.00000  Uiso   1.00
H50    H     0.16248   0.12368   0.21469   0.00000  Uiso   1.00
H51    H     0.17085   0.20964   0.28534   0.00000  Uiso   1.00
H52    H     0.24358   0.20892   0.10641   0.00000  Uiso   1.00
H53    H     0.09065   0.12471   0.39314   0.00000  Uiso   1.00
H54    H     0.10611   0.14121   0.09320   0.00000  Uiso   1.00
H55    H     0.18244   0.08867   0.12402   0.00000  Uiso   1.00
H56    H     0.15842   0.33171   0.14944   0.00000  Uiso   1.00
H57    H     0.05794   0.29352   0.14299   0.00000  Uiso   1.00
H58    H     0.31481   0.01179   0.11113   0.00000  Uiso   1.00
N59    N     0.14695   0.15216   0.23740   0.00000  Uiso   1.00
N60    N     0.18638   0.18117   0.26261   0.00000  Uiso   1.00
O61    O     0.29719   0.24631   0.25310   0.00000  Uiso   1.00
O62    O     0.03614   0.08702   0.24690   0.00000  Uiso   1.00
O63    O     0.05822   0.23702   0.24502   0.00000  Uiso   1.00
O64    O     0.27512   0.09632   0.25499   0.00000  Uiso   1.00
O65    O     0.30328   0.17397   0.32247   0.00000  Uiso   1.00
O66    O     0.03005   0.15937   0.17753   0.00000  Uiso   1.00
O67    O     0.06431   0.16467   0.31439   0.00000  Uiso   1.00
O68    O     0.26902   0.16866   0.18561   0.00000  Uiso   1.00
Zn69   Zn    0.27033   0.17287   0.25540   0.00000  Uiso   1.00
Zn70   Zn    0.06300   0.16046   0.24461   0.00000  Uiso   1.00
C71    C     0.34851   0.26496   0.24896   0.00000  Uiso   1.00
C72    C     0.64591   0.16137   0.15866   0.00000  Uiso   1.00
C73    C     0.36394   0.18129   0.39442   0.00000  Uiso   1.00
C74    C     0.63591   0.15152   0.10565   0.00000  Uiso   1.00
C75    C     0.36278   0.23815   0.46822   0.00000  Uiso   1.00
C76    C     0.63578   0.09342   0.03258   0.00000  Uiso   1.00
C77    C     0.33926   0.22171   0.42155   0.00000  Uiso   1.00
C78    C     0.65989   0.11041   0.07892   0.00000  Uiso   1.00
C79    C     0.40746   0.15533   0.41574   0.00000  Uiso   1.00
C80    C     0.59246   0.17748   0.08423   0.00000  Uiso   1.00
C81    C     0.43358   0.17330   0.46125   0.00000  Uiso   1.00
C82    C     0.65149   0.06838   0.25108   0.00000  Uiso   1.00
C83    C     0.56540   0.15870   0.03932   0.00000  Uiso   1.00
C84    C     0.41145   0.21644   0.48673   0.00000  Uiso   1.00
C85    C     0.58708   0.11513   0.01412   0.00000  Uiso   1.00
C86    C     0.48415   0.15285   0.47958   0.00000  Uiso   1.00
C87    C     0.51453   0.17891   0.02126   0.00000  Uiso   1.00
C88    C     0.37179   0.08035   0.10008   0.00000  Uiso   1.00
C89    C     0.42871   0.10174   0.10385   0.00000  Uiso   1.00
C90    C     0.47188   0.07211   0.12137   0.00000  Uiso   1.00
C91    C     0.45834   0.02122   0.13575   0.00000  Uiso   1.00
C92    C     0.40166   0.33308   0.13223   0.00000  Uiso   1.00
C93    C     0.49222   0.22344   0.04426   0.00000  Uiso   1.00
C94    C     0.35848   0.02904   0.11419   0.00000  Uiso   1.00
C95    C     0.62731   0.25176   0.40049   0.00000  Uiso   1.00
C96    C     0.64064   0.30292   0.38602   0.00000  Uiso   1.00
C97    C     0.59744   0.33222   0.36804   0.00000  Uiso   1.00
C98    C     0.54072   0.31087   0.36490   0.00000  Uiso   1.00
C99    C     0.52716   0.26011   0.37962   0.00000  Uiso   1.00
C100   C     0.57035   0.23050   0.39713   0.00000  Uiso   1.00
C101   C     0.50601   0.10795   0.45691   0.00000  Uiso   1.00
C102   C     0.44056   0.24037   0.02831   0.00000  Uiso   1.00
C103   C     0.55753   0.09082   0.47291   0.00000  Uiso   1.00
C104   C     0.35644   0.31964   0.24882   0.00000  Uiso   1.00
C105   C     0.64358   0.01370   0.25130   0.00000  Uiso   1.00
C106   C     0.35408   0.17191   0.34135   0.00000  Uiso   1.00
H107   H     0.42494   0.27443   0.04700   0.00000  Uiso   1.00
H108   H     0.35104   0.32004   0.38876   0.00000  Uiso   1.00
H109   H     0.60785   0.03834   0.35700   0.00000  Uiso   1.00
H110   H     0.50727   0.00038   0.35122   0.00000  Uiso   1.00
H111   H     0.48322   0.24366   0.37726   0.00000  Uiso   1.00
H112   H     0.55960   0.19114   0.40809   0.00000  Uiso   1.00
H113   H     0.34575   0.27075   0.48840   0.00000  Uiso   1.00
H114   H     0.65239   0.06043   0.01266   0.00000  Uiso   1.00
H115   H     0.51359   0.24683   0.07453   0.00000  Uiso   1.00
H116   H     0.48407   0.08427   0.42705   0.00000  Uiso   1.00
H117   H     0.39991   0.00380   0.24664   0.00000  Uiso   1.00
H118   H     0.57276   0.05641   0.45451   0.00000  Uiso   1.00
H119   H     0.60010   0.32954   0.25349   0.00000  Uiso   1.00
H120   H     0.49582   0.12368   0.21469   0.00000  Uiso   1.00
H121   H     0.50419   0.20964   0.28534   0.00000  Uiso   1.00
H122   H     0.57691   0.20892   0.10641   0.00000  Uiso   1.00
H123   H     0.42398   0.12471   0.39314   0.00000  Uiso   1.00
H124   H     0.43944   0.14121   0.09320   0.00000  Uiso   1.00
H125   H     0.51578   0.08867   0.12402   0.00000  Uiso   1.00
H126   H     0.49176   0.33171   0.14944   0.00000  Uiso   1.00
H127   H     0.39127   0.29352   0.14299   0.00000  Uiso   1.00
H128   H     0.64814   0.01179   0.11113   0.00000  Uiso   1.00
N129   N     0.48029   0.15216   0.23740   0.00000  Uiso   1.00
N130   N     0.51971   0.18117   0.26261   0.00000  Uiso   1.00
O131   O     0.63052   0.24631   0.25310   0.00000  Uiso   1.00
O132   O     0.36948   0.08702   0.24690   0.00000  Uiso   1.00
O133   O     0.39155   0.23702   0.24502   0.00000  Uiso   1.00
O134   O     0.60845   0.09632   0.25499   0.00000  Uiso   1.00
O135   O     0.63662   0.17397   0.32247   0.00000  Uiso   1.00
O136   O     0.36338   0.15937   0.17753   0.00000  Uiso   1.00
O137   O     0.39764   0.16467   0.31439   0.00000  Uiso   1.00
O138   O     0.60236   0.16866   0.18561   0.00000  Uiso   1.00
Zn139  Zn    0.60366   0.17287   0.25540   0.00000  Uiso   1.00
Zn140  Zn    0.39634   0.16046   0.24461   0.00000  Uiso   1.00
C141   C     0.68184   0.26496   0.24896   0.00000  Uiso   1.00
C142   C     0.97924   0.16137   0.15866   0.00000  Uiso   1.00
C143   C     0.69727   0.18129   0.39442   0.00000  Uiso   1.00
C144   C     0.96924   0.15152   0.10565   0.00000  Uiso   1.00
C145   C     0.69612   0.23815   0.46822   0.00000  Uiso   1.00
C146   C     0.96912   0.09342   0.03258   0.00000  Uiso   1.00
C147   C     0.67260   0.22171   0.42155   0.00000  Uiso   1.00
C148   C     0.99322   0.11041   0.07892   0.00000  Uiso   1.00
C149   C     0.74079   0.15533   0.41574   0.00000  Uiso   1.00
C150   C     0.92580   0.17748   0.08423   0.00000  Uiso   1.00
C151   C     0.76691   0.17330   0.46125   0.00000  Uiso   1.00
C152   C     0.98483   0.06838   0.25108   0.00000  Uiso   1.00
C153   C     0.89873   0.15870   0.03932   0.00000  Uiso   1.00
C154   C     0.74479   0.21644   0.48673   0.00000  Uiso   1.00
C155   C     0.92041   0.11513   0.01412   0.00000  Uiso   1.00
C156   C     0.81748   0.15285   0.47958   0.00000  Uiso   1.00
C157   C     0.84787   0.17891   0.02126   0.00000  Uiso   1.00
C158   C     0.70512   0.08035   0.10008   0.00000  Uiso   1.00
C159   C     0.76204   0.10174   0.10385   0.00000  Uiso   1.00
C160   C     0.80521   0.07211   0.12137   0.00000  Uiso   1.00
C161   C     0.79167   0.02122   0.13575   0.00000  Uiso   1.00
C162   C     0.73499   0.33308   0.13223   0.00000  Uiso   1.00
C163   C     0.82555   0.22344   0.04426   0.00000  Uiso   1.00
C164   C     0.69182   0.02904   0.11419   0.00000  Uiso   1.00
C165   C     0.96064   0.25176   0.40049   0.00000  Uiso   1.00
C166   C     0.97398   0.30292   0.38602   0.00000  Uiso   1.00
C167   C     0.93077   0.33222   0.36804   0.00000  Uiso   1.00
C168   C     0.87405   0.31087   0.36490   0.00000  Uiso   1.00
C169   C     0.86049   0.26011   0.37962   0.00000  Uiso   1.00
C170   C     0.90368   0.23050   0.39713   0.00000  Uiso   1.00
C171   C     0.83934   0.10795   0.45691   0.00000  Uiso   1.00
C172   C     0.77390   0.24037   0.02831   0.00000  Uiso   1.00
C173   C     0.89086   0.09082   0.47291   0.00000  Uiso   1.00
C174   C     0.68977   0.31964   0.24882   0.00000  Uiso   1.00
C175   C     0.97691   0.01370   0.25130   0.00000  Uiso   1.00
C176   C     0.68742   0.17191   0.34135   0.00000  Uiso   1.00
H177   H     0.75827   0.27443   0.04700   0.00000  Uiso   1.00
H178   H     0.68437   0.32004   0.38876   0.00000  Uiso   1.00
H179   H     0.94118   0.03834   0.35700   0.00000  Uiso   1.00
H180   H     0.84061   0.00038   0.35122   0.00000  Uiso   1.00
H181   H     0.81655   0.24366   0.37726   0.00000  Uiso   1.00
H182   H     0.89294   0.19114   0.40809   0.00000  Uiso   1.00
H183   H     0.67908   0.27075   0.48840   0.00000  Uiso   1.00
H184   H     0.98573   0.06043   0.01266   0.00000  Uiso   1.00
H185   H     0.84693   0.24683   0.07453   0.00000  Uiso   1.00
H186   H     0.81741   0.08427   0.42705   0.00000  Uiso   1.00
H187   H     0.73325   0.00380   0.24664   0.00000  Uiso   1.00
H188   H     0.90610   0.05641   0.45451   0.00000  Uiso   1.00
H189   H     0.93344   0.32954   0.25349   0.00000  Uiso   1.00
H190   H     0.82915   0.12368   0.21469   0.00000  Uiso   1.00
H191   H     0.83752   0.20964   0.28534   0.00000  Uiso   1.00
H192   H     0.91024   0.20892   0.10641   0.00000  Uiso   1.00
H193   H     0.75732   0.12471   0.39314   0.00000  Uiso   1.00
H194   H     0.77277   0.14121   0.09320   0.00000  Uiso   1.00
H195   H     0.84911   0.08867   0.12402   0.00000  Uiso   1.00
H196   H     0.82509   0.33171   0.14944   0.00000  Uiso   1.00
H197   H     0.72460   0.29352   0.14299   0.00000  Uiso   1.00
H198   H     0.98148   0.01179   0.11113   0.00000  Uiso   1.00
N199   N     0.81362   0.15216   0.23740   0.00000  Uiso   1.00
N200   N     0.85305   0.18117   0.26261   0.00000  Uiso   1.00
O201   O     0.96386   0.24631   0.25310   0.00000  Uiso   1.00
O202   O     0.70281   0.08702   0.24690   0.00000  Uiso   1.00
O203   O     0.72488   0.23702   0.24502   0.00000  Uiso   1.00
O204   O     0.94178   0.09632   0.25499   0.00000  Uiso   1.00
O205   O     0.96995   0.17397   0.32247   0.00000  Uiso   1.00
O206   O     0.69672   0.15937   0.17753   0.00000  Uiso   1.00
O207   O     0.73098   0.16467   0.31439   0.00000  Uiso   1.00
O208   O     0.93569   0.16866   0.18561   0.00000  Uiso   1.00
Zn209  Zn    0.93700   0.17287   0.25540   0.00000  Uiso   1.00
Zn210  Zn    0.72967   0.16046   0.24461   0.00000  Uiso   1.00
C211   C     0.01518   0.59829   0.24896   0.00000  Uiso   1.00
C212   C     0.31257   0.49470   0.15866   0.00000  Uiso   1.00
C213   C     0.03060   0.51462   0.39442   0.00000  Uiso   1.00
C214   C     0.30257   0.48485   0.10565   0.00000  Uiso   1.00
C215   C     0.02945   0.57149   0.46822   0.00000  Uiso   1.00
C216   C     0.30245   0.42675   0.03258   0.00000  Uiso   1.00
C217   C     0.00593   0.55504   0.42155   0.00000  Uiso   1.00
C218   C     0.32655   0.44374   0.07892   0.00000  Uiso   1.00
C219   C     0.07412   0.48867   0.41574   0.00000  Uiso   1.00
C220   C     0.25913   0.51081   0.08423   0.00000  Uiso   1.00
C221   C     0.10024   0.50663   0.46125   0.00000  Uiso   1.00
C222   C     0.31816   0.40171   0.25108   0.00000  Uiso   1.00
C223   C     0.23207   0.49203   0.03932   0.00000  Uiso   1.00
C224   C     0.07812   0.54978   0.48673   0.00000  Uiso   1.00
C225   C     0.25374   0.44846   0.01412   0.00000  Uiso   1.00
C226   C     0.15082   0.48618   0.47958   0.00000  Uiso   1.00
C227   C     0.18120   0.51225   0.02126   0.00000  Uiso   1.00
C228   C     0.03846   0.41368   0.10008   0.00000  Uiso   1.00
C229   C     0.09537   0.43507   0.10385   0.00000  Uiso   1.00
C230   C     0.13854   0.40544   0.12137   0.00000  Uiso   1.00
C231   C     0.12500   0.35455   0.13575   0.00000  Uiso   1.00
C232   C     0.06833   0.66641   0.13223   0.00000  Uiso   1.00
C233   C     0.15889   0.55677   0.04426   0.00000  Uiso   1.00
C234   C     0.02515   0.36237   0.11419   0.00000  Uiso   1.00
C235   C     0.29398   0.58509   0.40049   0.00000  Uiso   1.00
C236   C     0.30731   0.63625   0.38602   0.00000  Uiso   1.00
C237   C     0.26410   0.66555   0.36804   0.00000  Uiso   1.00
C238   C     0.20738   0.64421   0.36490   0.00000  Uiso   1.00
C239   C     0.19382   0.59344   0.37962   0.00000  Uiso   1.00
C240   C     0.23702   0.56383   0.39713   0.00000  Uiso   1.00
C241   C     0.17267   0.44129   0.45691   0.00000  Uiso   1.00
C242   C     0.10723   0.57371   0.02831   0.00000  Uiso   1.00
C243   C     0.22420   0.42415   0.47291   0.00000  Uiso   1.00
C244   C     0.02311   0.65297   0.24882   0.00000  Uiso   1.00
C245   C     0.31024   0.34703   0.25130   0.00000  Uiso   1.00
C246   C     0.02075   0.50524   0.34135   0.00000  Uiso   1.00
H247   H     0.09161   0.60776   0.04700   0.00000  Uiso   1.00
H248   H     0.01770   0.65338   0.38876   0.00000  Uiso   1.00
H249   H     0.27451   0.37168   0.35700   0.00000  Uiso   1.00
H250   H     0.17394   0.33371   0.35122   0.00000  Uiso   1.00
H251   H     0.14989   0.57700   0.37726   0.00000  Uiso   1.00
H252   H     0.22627   0.52448   0.40809   0.00000  Uiso   1.00
H253   H     0.01242   0.60409   0.48840   0.00000  Uiso   1.00
H254   H     0.31906   0.39377   0.01266   0.00000  Uiso   1.00
H255   H     0.18026   0.58016   0.07453   0.00000  Uiso   1.00
H256   H     0.15074   0.41760   0.42705   0.00000  Uiso   1.00
H257   H     0.06658   0.33713   0.24664   0.00000  Uiso   1.00
H258   H     0.23943   0.38974   0.45451   0.00000  Uiso   1.00
H259   H     0.26677   0.66288   0.25349   0.00000  Uiso   1.00
H260   H     0.16248   0.45702   0.21469   0.00000  Uiso   1.00
H261   H     0.17085   0.54298   0.28534   0.00000  Uiso   1.00
H262   H     0.24358   0.54225   0.10641   0.00000  Uiso   1.00
H263   H     0.09065   0.45804   0.39314   0.00000  Uiso   1.00
H264   H     0.10611   0.47454   0.09320   0.00000  Uiso   1.00
H265   H     0.18244   0.42200   0.12402   0.00000  Uiso   1.00
H266   H     0.15842   0.66504   0.14944   0.00000  Uiso   1.00
H267   H     0.05794   0.62685   0.14299   0.00000  Uiso   1.00
H268   H     0.31481   0.34512   0.11113   0.00000  Uiso   1.00
N269   N     0.14695   0.48550   0.23740   0.00000  Uiso   1.00
N270   N     0.18638   0.51450   0.26261   0.00000  Uiso   1.00
O271   O     0.29719   0.57964   0.25310   0.00000  Uiso   1.00
O272   O     0.03614   0.42036   0.24690   0.00000  Uiso   1.00
O273   O     0.05822   0.57035   0.24502   0.00000  Uiso   1.00
O274   O     0.27512   0.42965   0.25499   0.00000  Uiso   1.00
O275   O     0.30328   0.50730   0.32247   0.00000  Uiso   1.00
O276   O     0.03005   0.49270   0.17753   0.00000  Uiso   1.00
O277   O     0.06431   0.49801   0.31439   0.00000  Uiso   1.00
O278   O     0.26902   0.50199   0.18561   0.00000  Uiso   1.00
Zn279  Zn    0.27033   0.50621   0.25540   0.00000  Uiso   1.00
Zn280  Zn    0.06300   0.49379   0.24461   0.00000  Uiso   1.00
C281   C     0.34851   0.59829   0.24896   0.00000  Uiso   1.00
C282   C     0.64591   0.49470   0.15866   0.00000  Uiso   1.00
C283   C     0.36394   0.51462   0.39442   0.00000  Uiso   1.00
C284   C     0.63591   0.48485   0.10565   0.00000  Uiso   1.00
C285   C     0.36278   0.57149   0.46822   0.00000  Uiso   1.00
C286   C     0.63578   0.42675   0.03258   0.00000  Uiso   1.00
C287   C     0.33926   0.55504   0.42155   0.00000  Uiso   1.00
C288   C     0.65989   0.44374   0.07892   0.00000  Uiso   1.00
C289   C     0.40746   0.48867   0.41574   0.00000  Uiso   1.00
C290   C     0.59246   0.51081   0.08423   0.00000  Uiso   1.00
C291   C     0.43358   0.50663   0.46125   0.00000  Uiso   1.00
C292   C     0.65149   0.40171   0.25108   0.00000  Uiso   1.00
C293   C     0.56540   0.49203   0.03932   0.00000  Uiso   1.00
C294   C     0.41145   0.54978   0.48673   0.00000  Uiso   1.00
C295   C     0.58708   0.44846   0.01412   0.00000  Uiso   1.00
C296   C     0.48415   0.48618   0.47958   0.00000  Uiso   1.00
C297   C     0.51453   0.51225   0.02126   0.00000  Uiso   1.00
C298   C     0.37179   0.41368   0.10008   0.00000  Uiso   1.00
C299   C     0.42871   0.43507   0.10385   0.00000  Uiso   1.00
C300   C     0.47188   0.40544   0.12137   0.00000  Uiso   1.00
C301   C     0.45834   0.35455   0.13575   0.00000  Uiso   1.00
C302   C     0.40166   0.66641   0.13223   0.00000  Uiso   1.00
C303   C     0.49222   0.55677   0.04426   0.00000  Uiso   1.00
C304   C     0.35848   0.36237   0.11419   0.00000  Uiso   1.00
C305   C     0.62731   0.58509   0.40049   0.00000  Uiso   1.00
C306   C     0.64064   0.63625   0.38602   0.00000  Uiso   1.00
C307   C     0.59744   0.66555   0.36804   0.00000  Uiso   1.00
C308   C     0.54072   0.64421   0.36490   0.00000  Uiso   1.00
C309   C     0.52716   0.59344   0.37962   0.00000  Uiso   1.00
C310   C     0.57035   0.56383   0.39713   0.00000  Uiso   1.00
C311   C     0.50601   0.44129   0.45691   0.00000  Uiso   1.00
C312   C     0.44056   0.57371   0.02831   0.00000  Uiso   1.00
C313   C     0.55753   0.42415   0.47291   0.00000  Uiso   1.00
C314   C     0.35644   0.65297   0.24882   0.00000  Uiso   1.00
C315   C     0.64358   0.34703   0.25130   0.00000  Uiso   1.00
C316   C     0.35408   0.50524   0.34135   0.00000  Uiso   1.00
H317   H     0.42494   0.60776   0.04700   0.00000  Uiso   1.00
H318   H     0.35104   0.65338   0.38876   0.00000  Uiso   1.00
H319   H     0.60785   0.37168   0.35700   0.00000  Uiso   1.00
H320   H     0.50727   0.33371   0.35122   0.00000  Uiso   1.00
H321   H     0.48322   0.57700   0.37726   0.00000  Uiso   1.00
H322   H     0.55960   0.52448   0.40809   0.00000  Uiso   1.00
H323   H     0.34575   0.60409   0.48840   0.00000  Uiso   1.00
H324   H     0.65239   0.39377   0.01266   0.00000  Uiso   1.00
H325   H     0.51359   0.58016   0.07453   0.00000  Uiso   1.00
H326   H     0.48407   0.41760   0.42705   0.00000  Uiso   1.00
H327   H     0.39991   0.33713   0.24664   0.00000  Uiso   1.00
H328   H     0.57276   0.38974   0.45451   0.00000  Uiso   1.00
H329   H     0.60010   0.66288   0.25349   0.00000  Uiso   1.00
H330   H     0.49582   0.45702   0.21469   0.00000  Uiso   1.00
H331   H     0.50419   0.54298   0.28534   0.00000  Uiso   1.00
H332   H     0.57691   0.54225   0.10641   0.00000  Uiso   1.00
H333   H     0.42398   0.45804   0.39314   0.00000  Uiso   1.00
H334   H     0.43944   0.47454   0.09320   0.00000  Uiso   1.00
H335   H     0.51578   0.42200   0.12402   0.00000  Uiso   1.00
H336   H     0.49176   0.66504   0.14944   0.00000  Uiso   1.00
H337   H     0.39127   0.62685   0.14299   0.00000  Uiso   1.00
H338   H     0.64814   0.34512   0.11113   0.00000  Uiso   1.00
N339   N     0.48029   0.48550   0.23740   0.00000  Uiso   1.00
N340   N     0.51971   0.51450   0.26261   0.00000  Uiso   1.00
O341   O     0.63052   0.57964   0.25310   0.00000  Uiso   1.00
O342   O     0.36948   0.42036   0.24690   0.00000  Uiso   1.00
O343   O     0.39155   0.57035   0.24502   0.00000  Uiso   1.00
O344   O     0.60845   0.42965   0.25499   0.00000  Uiso   1.00
O345   O     0.63662   0.50730   0.32247   0.00000  Uiso   1.00
O346   O     0.36338   0.49270   0.17753   0.00000  Uiso   1.00
O347   O     0.39764   0.49801   0.31439   0.00000  Uiso   1.00
O348   O     0.60236   0.50199   0.18561   0.00000  Uiso   1.00
Zn349  Zn    0.60366   0.50621   0.25540   0.00000  Uiso   1.00
Zn350  Zn    0.39634   0.49379   0.24461   0.00000  Uiso   1.00
C351   C     0.68184   0.59829   0.24896   0.00000  Uiso   1.00
C352   C     0.97924   0.49470   0.15866   0.00000  Uiso   1.00
C353   C     0.69727   0.51462   0.39442   0.00000  Uiso   1.00
C354   C     0.96924   0.48485   0.10565   0.00000  Uiso   1.00
C355   C     0.69612   0.57149   0.46822   0.00000  Uiso   1.00
C356   C     0.96912   0.42675   0.03258   0.00000  Uiso   1.00
C357   C     0.67260   0.55504   0.42155   0.00000  Uiso   1.00
C358   C     0.99322   0.44374   0.07892   0.00000  Uiso   1.00
C359   C     0.74079   0.48867   0.41574   0.00000  Uiso   1.00
C360   C     0.92580   0.51081   0.08423   0.00000  Uiso   1.00
C361   C     0.76691   0.50663   0.46125   0.00000  Uiso   1.00
C362   C     0.98483   0.40171   0.25108   0.00000  Uiso   1.00
C363   C     0.89873   0.49203   0.03932   0.00000  Uiso   1.00
C364   C     0.74479   0.54978   0.48673   0.00000  Uiso   1.00
C365   C     0.92041   0.44846   0.01412   0.00000  Uiso   1.00
C366   C     0.81748   0.48618   0.47958   0.00000  Uiso   1.00
C367   C     0.84787   0.51225   0.02126   0.00000  Uiso   1.00
C368   C     0.70512   0.41368   0.10008   0.00000  Uiso   1.00
C369   C     0.76204   0.43507   0.10385   0.00000  Uiso   1.00
C370   C     0.80521   0.40544   0.12137   0.00000  Uiso   1.00
C371   C     0.79167   0.35455   0.13575   0.00000  Uiso   1.00
C372   C     0.73499   0.66641   0.13223   0.00000  Uiso   1.00
C373   C     0.82555   0.55677   0.04426   0.00000  Uiso   1.00
C374   C     0.69182   0.36237   0.11419   0.00000  Uiso   1.00
C375   C     0.96064   0.58509   0.40049   0.00000  Uiso   1.00
C376   C     0.97398   0.63625   0.38602   0.00000  Uiso   1.00
C377   C     0.93077   0.66555   0.36804   0.00000  Uiso   1.00
C378   C     0.87405   0.64421   0.36490   0.00000  Uiso   1.00
C379   C     0.86049   0.59344   0.37962   0.00000  Uiso   1.00
C380   C     0.90368   0.56383   0.39713   0.00000  Uiso   1.00
C381   C     0.83934   0.44129   0.45691   0.00000  Uiso   1.00
C382   C     0.77390   0.57371   0.02831   0.00000  Uiso   1.00
C383   C     0.89086   0.42415   0.47291   0.00000  Uiso   1.00
C384   C     0.68977   0.65297   0.24882   0.00000  Uiso   1.00
C385   C     0.97691   0.34703   0.25130   0.00000  Uiso   1.00
C386   C     0.68742   0.50524   0.34135   0.00000  Uiso   1.00
H387   H     0.75827   0.60776   0.04700   0.00000  Uiso   1.00
H388   H     0.68437   0.65338   0.38876   0.00000  Uiso   1.00
H389   H     0.94118   0.37168   0.35700   0.00000  Uiso   1.00
H390   H     0.84061   0.33371   0.35122   0.00000  Uiso   1.00
H391   H     0.81655   0.57700   0.37726   0.00000  Uiso   1.00
H392   H     0.89294   0.52448   0.40809   0.00000  Uiso   1.00
H393   H     0.67908   0.60409   0.48840   0.00000  Uiso   1.00
H394   H     0.98573   0.39377   0.01266   0.00000  Uiso   1.00
H395   H     0.84693   0.58016   0.07453   0.00000  Uiso   1.00
H396   H     0.81741   0.41760   0.42705   0.00000  Uiso   1.00
H397   H     0.73325   0.33713   0.24664   0.00000  Uiso   1.00
H398   H     0.90610   0.38974   0.45451   0.00000  Uiso   1.00
H399   H     0.93344   0.66288   0.25349   0.00000  Uiso   1.00
H400   H     0.82915   0.45702   0.21469   0.00000  Uiso   1.00
H401   H     0.83752   0.54298   0.28534   0.00000  Uiso   1.00
H402   H     0.91024   0.54225   0.10641   0.00000  Uiso   1.00
H403   H     0.75732   0.45804   0.39314   0.00000  Uiso   1.00
H404   H     0.77277   0.47454   0.09320   0.00000  Uiso   1.00
H405   H     0.84911   0.42200   0.12402   0.00000  Uiso   1.00
H406   H     0.82509   0.66504   0.14944   0.00000  Uiso   1.00
H407   H     0.72460   0.62685   0.14299   0.00000  Uiso   1.00
H408   H     0.98148   0.34512   0.11113   0.00000  Uiso   1.00
N409   N     0.81362   0.48550   0.23740   0.00000  Uiso   1.00
N410   N     0.85305   0.51450   0.26261   0.00000  Uiso   1.00
O411   O     0.96386   0.57964   0.25310   0.00000  Uiso   1.00
O412   O     0.70281   0.42036   0.24690   0.00000  Uiso   1.00
O413   O     0.72488   0.57035   0.24502   0.00000  Uiso   1.00
O414   O     0.94178   0.42965   0.25499   0.00000  Uiso   1.00
O415   O     0.96995   0.50730   0.32247   0.00000  Uiso   1.00
O416   O     0.69672   0.49270   0.17753   0.00000  Uiso   1.00
O417   O     0.73098   0.49801   0.31439   0.00000  Uiso   1.00
O418   O     0.93569   0.50199   0.18561   0.00000  Uiso   1.00
Zn419  Zn    0.93700   0.50621   0.25540   0.00000  Uiso   1.00
Zn420  Zn    0.72967   0.49379   0.24461   0.00000  Uiso   1.00
C421   C     0.01518   0.93162   0.24896   0.00000  Uiso   1.00
C422   C     0.31257   0.82803   0.15866   0.00000  Uiso   1.00
C423   C     0.03060   0.84795   0.39442   0.00000  Uiso   1.00
C424   C     0.30257   0.81818   0.10565   0.00000  Uiso   1.00
C425   C     0.02945   0.90482   0.46822   0.00000  Uiso   1.00
C426   C     0.30245   0.76009   0.03258   0.00000  Uiso   1.00
C427   C     0.00593   0.88837   0.42155   0.00000  Uiso   1.00
C428   C     0.32655   0.77708   0.07892   0.00000  Uiso   1.00
C429   C     0.07412   0.82200   0.41574   0.00000  Uiso   1.00
C430   C     0.25913   0.84414   0.08423   0.00000  Uiso   1.00
C431   C     0.10024   0.83997   0.46125   0.00000  Uiso   1.00
C432   C     0.31816   0.73505   0.25108   0.00000  Uiso   1.00
C433   C     0.23207   0.82536   0.03932   0.00000  Uiso   1.00
C434   C     0.07812   0.88311   0.48673   0.00000  Uiso   1.00
C435   C     0.25374   0.78179   0.01412   0.00000  Uiso   1.00
C436   C     0.15082   0.81952   0.47958   0.00000  Uiso   1.00
C437   C     0.18120   0.84558   0.02126   0.00000  Uiso   1.00
C438   C     0.03846   0.74702   0.10008   0.00000  Uiso   1.00
C439   C     0.09537   0.76840   0.10385   0.00000  Uiso   1.00
C440   C     0.13854   0.73878   0.12137   0.00000  Uiso   1.00
C441   C     0.12500   0.68788   0.13575   0.00000  Uiso   1.00
C442   C     0.06833   0.99974   0.13223   0.00000  Uiso   1.00
C443   C     0.15889   0.89010   0.04426   0.00000  Uiso   1.00
C444   C     0.02515   0.69570   0.11419   0.00000  Uiso   1.00
C445   C     0.29398   0.91842   0.40049   0.00000  Uiso   1.00
C446   C     0.30731   0.96958   0.38602   0.00000  Uiso   1.00
C447   C     0.26410   0.99889   0.36804   0.00000  Uiso   1.00
C448   C     0.20738   0.97754   0.36490   0.00000  Uiso   1.00
C449   C     0.19382   0.92678   0.37962   0.00000  Uiso   1.00
C450   C     0.23702   0.89716   0.39713   0.00000  Uiso   1.00
C451   C     0.17267   0.77462   0.45691   0.00000  Uiso   1.00
C452   C     0.10723   0.90704   0.02831   0.00000  Uiso   1.00
C453   C     0.22420   0.75748   0.47291   0.00000  Uiso   1.00
C454   C     0.02311   0.98631   0.24882   0.00000  Uiso   1.00
C455   C     0.31024   0.68037   0.25130   0.00000  Uiso   1.00
C456   C     0.02075   0.83858   0.34135   0.00000  Uiso   1.00
H457   H     0.09161   0.94110   0.04700   0.00000  Uiso   1.00
H458   H     0.01770   0.98671   0.38876   0.00000  Uiso   1.00
H459   H     0.27451   0.70501   0.35700   0.00000  Uiso   1.00
H460   H     0.17394   0.66704   0.35122   0.00000  Uiso   1.00
H461   H     0.14989   0.91033   0.37726   0.00000  Uiso   1.00
H462   H     0.22627   0.85781   0.40809   0.00000  Uiso   1.00
H463   H     0.01242   0.93742   0.48840   0.00000  Uiso   1.00
H464   H     0.31906   0.72710   0.01266   0.00000  Uiso   1.00
H465   H     0.18026   0.91350   0.07453   0.00000  Uiso   1.00
H466   H     0.15074   0.75093   0.42705   0.00000  Uiso   1.00
H467   H     0.06658   0.67047   0.24664   0.00000  Uiso   1.00
H468   H     0.23943   0.72307   0.45451   0.00000  Uiso   1.00
H469   H     0.26677   0.99621   0.25349   0.00000  Uiso   1.00
H470   H     0.16248   0.79035   0.21469   0.00000  Uiso   1.00
H471   H     0.17085   0.87631   0.28534   0.00000  Uiso   1.00
H472   H     0.24358   0.87559   0.10641   0.00000  Uiso   1.00
H473   H     0.09065   0.79137   0.39314   0.00000  Uiso   1.00
H474   H     0.10611   0.80788   0.09320   0.00000  Uiso   1.00
H475   H     0.18244   0.75534   0.12402   0.00000  Uiso   1.00
H476   H     0.15842   0.99837   0.14944   0.00000  Uiso   1.00
H477   H     0.05794   0.96019   0.14299   0.00000  Uiso   1.00
H478   H     0.31481   0.67845   0.11113   0.00000  Uiso   1.00
N479   N     0.14695   0.81883   0.23740   0.00000  Uiso   1.00
N480   N     0.18638   0.84784   0.26261   0.00000  Uiso   1.00
O481   O     0.29719   0.91298   0.25310   0.00000  Uiso   1.00
O482   O     0.03614   0.75369   0.24690   0.00000  Uiso   1.00
O483   O     0.05822   0.90368   0.24502   0.00000  Uiso   1.00
O484   O     0.27512   0.76298   0.25499   0.00000  Uiso   1.00
O485   O     0.30328   0.84063   0.32247   0.00000  Uiso   1.00
O486   O     0.03005   0.82603   0.17753   0.00000  Uiso   1.00
O487   O     0.06431   0.83134   0.31439   0.00000  Uiso   1.00
O488   O     0.26902   0.83533   0.18561   0.00000  Uiso   1.00
Zn489  Zn    0.27033   0.83954   0.25540   0.00000  Uiso   1.00
Zn490  Zn    0.06300   0.82713   0.24461   0.00000  Uiso   1.00
C491   C     0.34851   0.93162   0.24896   0.00000  Uiso   1.00
C492   C     0.64591   0.82803   0.15866   0.00000  Uiso   1.00
C493   C     0.36394   0.84795   0.39442   0.00000  Uiso   1.00
C494   C     0.63591   0.81818   0.10565   0.00000  Uiso   1.00
C495   C     0.36278   0.90482   0.46822   0.00000  Uiso   1.00
C496   C     0.63578   0.76009   0.03258   0.00000  Uiso   1.00
C497   C     0.33926   0.88837   0.42155   0.00000  Uiso   1.00
C498   C     0.65989   0.77708   0.07892   0.00000  Uiso   1.00
C499   C     0.40746   0.82200   0.41574   0.00000  Uiso   1.00
C500   C     0.59246   0.84414   0.08423   0.00000  Uiso   1.00
C501   C     0.43358   0.83997   0.46125   0.00000  Uiso   1.00
C502   C     0.65149   0.73505   0.25108   0.00000  Uiso   1.00
C503   C     0.56540   0.82536   0.03932   0.00000  Uiso   1.00
C504   C     0.41145   0.88311   0.48673   0.00000  Uiso   1.00
C505   C     0.58708   0.78179   0.01412   0.00000  Uiso   1.00
C506   C     0.48415   0.81952   0.47958   0.00000  Uiso   1.00
C507   C     0.51453   0.84558   0.02126   0.00000  Uiso   1.00
C508   C     0.37179   0.74702   0.10008   0.00000  Uiso   1.00
C509   C     0.42871   0.76840   0.10385   0.00000  Uiso   1.00
C510   C     0.47188   0.73878   0.12137   0.00000  Uiso   1.00
C511   C     0.45834   0.68788   0.13575   0.00000  Uiso   1.00
C512   C     0.40166   0.99974   0.13223   0.00000  Uiso   1.00
C513   C     0.49222   0.89010   0.04426   0.00000  Uiso   1.00
C514   C     0.35848   0.69570   0.11419   0.00000  Uiso   1.00
C515   C     0.62731   0.91842   0.40049   0.00000  Uiso   1.00
C516   C     0.64064   0.96958   0.38602   0.00000  Uiso   1.00
C517   C     0.59744   0.99889   0.36804   0.00000  Uiso   1.00
C518   C     0.54072   0.97754   0.36490   0.00000  Uiso   1.00
C519   C     0.52716   0.92678   0.37962   0.00000  Uiso   1.00
C520   C     0.57035   0.89716   0.39713   0.00000  Uiso   1.00
C521   C     0.50601   0.77462   0.45691   0.00000  Uiso   1.00
C522   C     0.44056   0.90704   0.02831   0.00000  Uiso   1.00
C523   C     0.55753   0.75748   0.47291   0.00000  Uiso   1.00
C524   C     0.35644   0.98631   0.24882   0.00000  Uiso   1.00
C525   C     0.64358   0.68037   0.25130   0.00000  Uiso   1.00
C526   C     0.35408   0.83858   0.34135   0.00000  Uiso   1.00
H527   H     0.42494   0.94110   0.04700   0.00000  Uiso   1.00
H528   H     0.35104   0.98671   0.38876   0.00000  Uiso   1.00
H529   H     0.60785   0.70501   0.35700   0.00000  Uiso   1.00
H530   H     0.50727   0.66704   0.35122   0.00000  Uiso   1.00
H531   H     0.48322   0.91033   0.37726   0.00000  Uiso   1.00
H532   H     0.55960   0.85781   0.40809   0.00000  Uiso   1.00
H533   H     0.34575   0.93742   0.48840   0.00000  Uiso   1.00
H534   H     0.65239   0.72710   0.01266   0.00000  Uiso   1.00
H535   H     0.51359   0.91350   0.07453   0.00000  Uiso   1.00
H536   H     0.48407   0.75093   0.42705   0.00000  Uiso   1.00
H537   H     0.39991   0.67047   0.24664   0.00000  Uiso   1.00
H538   H     0.57276   0.72307   0.45451   0.00000  Uiso   1.00
H539   H     0.60010   0.99621   0.25349   0.00000  Uiso   1.00
H540   H     0.49582   0.79035   0.21469   0.00000  Uiso   1.00
H541   H     0.50419   0.87631   0.28534   0.00000  Uiso   1.00
H542   H     0.57691   0.87559   0.10641   0.00000  Uiso   1.00
H543   H     0.42398   0.79137   0.39314   0.00000  Uiso   1.00
H544   H     0.43944   0.80788   0.09320   0.00000  Uiso   1.00
H545   H     0.51578   0.75534   0.12402   0.00000  Uiso   1.00
H546   H     0.49176   0.99837   0.14944   0.00000  Uiso   1.00
H547   H     0.39127   0.96019   0.14299   0.00000  Uiso   1.00
H548   H     0.64814   0.67845   0.11113   0.00000  Uiso   1.00
N549   N     0.48029   0.81883   0.23740   0.00000  Uiso   1.00
N550   N     0.51971   0.84784   0.26261   0.00000  Uiso   1.00
O551   O     0.63052   0.91298   0.25310   0.00000  Uiso   1.00
O552   O     0.36948   0.75369   0.24690   0.00000  Uiso   1.00
O553   O     0.39155   0.90368   0.24502   0.00000  Uiso   1.00
O554   O     0.60845   0.76298   0.25499   0.00000  Uiso   1.00
O555   O     0.63662   0.84063   0.32247   0.00000  Uiso   1.00
O556   O     0.36338   0.82603   0.17753   0.00000  Uiso   1.00
O557   O     0.39764   0.83134   0.31439   0.00000  Uiso   1.00
O558   O     0.60236   0.83533   0.18561   0.00000  Uiso   1.00
Zn559  Zn    0.60366   0.83954   0.25540   0.00000  Uiso   1.00
Zn560  Zn    0.39634   0.82713   0.24461   0.00000  Uiso   1.00
C561   C     0.68184   0.93162   0.24896   0.00000  Uiso   1.00
C562   C     0.97924   0.82803   0.15866   0.00000  Uiso   1.00
C563   C     0.69727   0.84795   0.39442   0.00000  Uiso   1.00
C564   C     0.96924   0.81818   0.10565   0.00000  Uiso   1.00
C565   C     0.69612   0.90482   0.46822   0.00000  Uiso   1.00
C566   C     0.96912   0.76009   0.03258   0.00000  Uiso   1.00
C567   C     0.67260   0.88837   0.42155   0.00000  Uiso   1.00
C568   C     0.99322   0.77708   0.07892   0.00000  Uiso   1.00
C569   C     0.74079   0.82200   0.41574   0.00000  Uiso   1.00
C570   C     0.92580   0.84414   0.08423   0.00000  Uiso   1.00
C571   C     0.76691   0.83997   0.46125   0.00000  Uiso   1.00
C572   C     0.98483   0.73505   0.25108   0.00000  Uiso   1.00
C573   C     0.89873   0.82536   0.03932   0.00000  Uiso   1.00
C574   C     0.74479   0.88311   0.48673   0.00000  Uiso   1.00
C575   C     0.92041   0.78179   0.01412   0.00000  Uiso   1.00
C576   C     0.81748   0.81952   0.47958   0.00000  Uiso   1.00
C577   C     0.84787   0.84558   0.02126   0.00000  Uiso   1.00
C578   C     0.70512   0.74702   0.10008   0.00000  Uiso   1.00
C579   C     0.76204   0.76840   0.10385   0.00000  Uiso   1.00
C580   C     0.80521   0.73878   0.12137   0.00000  Uiso   1.00
C581   C     0.79167   0.68788   0.13575   0.00000  Uiso   1.00
C582   C     0.73499   0.99974   0.13223   0.00000  Uiso   1.00
C583   C     0.82555   0.89010   0.04426   0.00000  Uiso   1.00
C584   C     0.69182   0.69570   0.11419   0.00000  Uiso   1.00
C585   C     0.96064   0.91842   0.40049   0.00000  Uiso   1.00
C586   C     0.97398   0.96958   0.38602   0.00000  Uiso   1.00
C587   C     0.93077   0.99889   0.36804   0.00000  Uiso   1.00
C588   C     0.87405   0.97754   0.36490   0.00000  Uiso   1.00
C589   C     0.86049   0.92678   0.37962   0.00000  Uiso   1.00
C590   C     0.90368   0.89716   0.39713   0.00000  Uiso   1.00
C591   C     0.83934   0.77462   0.45691   0.00000  Uiso   1.00
C592   C     0.77390   0.90704   0.02831   0.00000  Uiso   1.00
C593   C     0.89086   0.75748   0.47291   0.00000  Uiso   1.00
C594   C     0.68977   0.98631   0.24882   0.00000  Uiso   1.00
C595   C     0.97691   0.68037   0.25130   0.00000  Uiso   1.00
C596   C     0.68742   0.83858   0.34135   0.00000  Uiso   1.00
H597   H     0.75827   0.94110   0.04700   0.00000  Uiso   1.00
H598   H     0.68437   0.98671   0.38876   0.00000  Uiso   1.00
H599   H     0.94118   0.70501   0.35700   0.00000  Uiso   1.00
H600   H     0.84061   0.66704   0.35122   0.00000  Uiso   1.00
H601   H     0.81655   0.91033   0.37726   0.00000  Uiso   1.00
H602   H     0.89294   0.85781   0.40809   0.00000  Uiso   1.00
H603   H     0.67908   0.93742   0.48840   0.00000  Uiso   1.00
H604   H     0.98573   0.72710   0.01266   0.00000  Uiso   1.00
H605   H     0.84693   0.91350   0.07453   0.00000  Uiso   1.00
H606   H     0.81741   0.75093   0.42705   0.00000  Uiso   1.00
H607   H     0.73325   0.67047   0.24664   0.00000  Uiso   1.00
H608   H     0.90610   0.72307   0.45451   0.00000  Uiso   1.00
H609   H     0.93344   0.99621   0.25349   0.00000  Uiso   1.00
H610   H     0.82915   0.79035   0.21469   0.00000  Uiso   1.00
H611   H     0.83752   0.87631   0.28534   0.00000  Uiso   1.00
H612   H     0.91024   0.87559   0.10641   0.00000  Uiso   1.00
H613   H     0.75732   0.79137   0.39314   0.00000  Uiso   1.00
H614   H     0.77277   0.80788   0.09320   0.00000  Uiso   1.00
H615   H     0.84911   0.75534   0.12402   0.00000  Uiso   1.00
H616   H     0.82509   0.99837   0.14944   0.00000  Uiso   1.00
H617   H     0.72460   0.96019   0.14299   0.00000  Uiso   1.00
H618   H     0.98148   0.67845   0.11113   0.00000  Uiso   1.00
N619   N     0.81362   0.81883   0.23740   0.00000  Uiso   1.00
N620   N     0.85305   0.84784   0.26261   0.00000  Uiso   1.00
O621   O     0.96386   0.91298   0.25310   0.00000  Uiso   1.00
O622   O     0.70281   0.75369   0.24690   0.00000  Uiso   1.00
O623   O     0.72488   0.90368   0.24502   0.00000  Uiso   1.00
O624   O     0.94178   0.76298   0.25499   0.00000  Uiso   1.00
O625   O     0.96995   0.84063   0.32247   0.00000  Uiso   1.00
O626   O     0.69672   0.82603   0.17753   0.00000  Uiso   1.00
O627   O     0.73098   0.83134   0.31439   0.00000  Uiso   1.00
O628   O     0.93569   0.83533   0.18561   0.00000  Uiso   1.00
Zn629  Zn    0.93700   0.83954   0.25540   0.00000  Uiso   1.00
Zn630  Zn    0.72967   0.82713   0.24461   0.00000  Uiso   1.00
C631   C     0.01518   0.26496   0.74896   0.00000  Uiso   1.00
C632   C     0.31257   0.16137   0.65866   0.00000  Uiso   1.00
C633   C     0.03060   0.18129   0.89442   0.00000  Uiso   1.00
C634   C     0.30257   0.15152   0.60565   0.00000  Uiso   1.00
C635   C     0.02945   0.23815   0.96822   0.00000  Uiso   1.00
C636   C     0.30245   0.09342   0.53258   0.00000  Uiso   1.00
C637   C     0.00593   0.22171   0.92155   0.00000  Uiso   1.00
C638   C     0.32655   0.11041   0.57892   0.00000  Uiso   1.00
C639   C     0.07412   0.15533   0.91574   0.00000  Uiso   1.00
C640   C     0.25913   0.17748   0.58423   0.00000  Uiso   1.00
C641   C     0.10024   0.17330   0.96125   0.00000  Uiso   1.00
C642   C     0.31816   0.06838   0.75108   0.00000  Uiso   1.00
C643   C     0.23207   0.15870   0.53932   0.00000  Uiso   1.00
C644   C     0.07812   0.21644   0.98673   0.00000  Uiso   1.00
C645   C     0.25374   0.11513   0.51412   0.00000  Uiso   1.00
C646   C     0.15082   0.15285   0.97958   0.00000  Uiso   1.00
C647   C     0.18120   0.17891   0.52126   0.00000  Uiso   1.00
C648   C     0.03846   0.08035   0.60008   0.00000  Uiso   1.00
C649   C     0.09537   0.10174   0.60385   0.00000  Uiso   1.00
C650   C     0.13854   0.07211   0.62137   0.00000  Uiso   1.00
C651   C     0.12500   0.02122   0.63575   0.00000  Uiso   1.00
C652   C     0.06833   0.33308   0.63223   0.00000  Uiso   1.00
C653   C     0.15889   0.22344   0.54426   0.00000  Uiso   1.00
C654   C     0.02515   0.02904   0.61419   0.00000  Uiso   1.00
C655   C     0.29398   0.25176   0.90049   0.00000  Uiso   1.00
C656   C     0.30731   0.30292   0.88602   0.00000  Uiso   1.00
C657   C     0.26410   0.33222   0.86804   0.00000  Uiso   1.00
C658   C     0.20738   0.31087   0.86490   0.00000  Uiso   1.00
C659   C     0.19382   0.26011   0.87962   0.00000  Uiso   1.00
C660   C     0.23702   0.23050   0.89713   0.00000  Uiso   1.00
C661   C     0.17267   0.10795   0.95691   0.00000  Uiso   1.00
C662   C     0.10723   0.24037   0.52831   0.00000  Uiso   1.00
C663   C     0.22420   0.09082   0.97291   0.00000  Uiso   1.00
C664   C     0.02311   0.31964   0.74882   0.00000  Uiso   1.00
C665   C     0.31024   0.01370   0.75130   0.00000  Uiso   1.00
C666   C     0.02075   0.17191   0.84135   0.00000  Uiso   1.00
H667   H     0.09161   0.27443   0.54700   0.00000  Uiso   1.00
H668   H     0.01770   0.32004   0.88876   0.00000  Uiso   1.00
H669   H     0.27451   0.03834   0.85700   0.00000  Uiso   1.00
H670   H     0.17394   0.00038   0.85122   0.00000  Uiso   1.00
H671   H     0.14989   0.24366   0.87726   0.00000  Uiso   1.00
H672   H     0.22627   0.19114   0.90809   0.00000  Uiso   1.00
H673   H     0.01242   0.27075   0.98840   0.00000  Uiso   1.00
H674   H     0.31906   0.06043   0.51266   0.00000  Uiso   1.00
H675   H     0.18026   0.24683   0.57453   0.00000  Uiso   1.00
H676   H     0.15074   0.08427   0.92705   0.00000  Uiso   1.00
H677   H     0.06658   0.00380   0.74664   0.00000  Uiso   1.00
H678   H     0.23943   0.05641   0.95451   0.00000  Uiso   1.00
H679   H     0.26677   0.32954   0.75349   0.00000  Uiso   1.00
H680   H     0.16248   0.12368   0.71469   0.00000  Uiso   1.00
H681   H     0.17085   0.20964   0.78534   0.00000  Uiso   1.00
H682   H     0.24358   0.20892   0.60641   0.00000  Uiso   1.00
H683   H     0.09065   0.12471   0.89314   0.00000  Uiso   1.00
H684   H     0.10611   0.14121   0.59320   0.00000  Uiso   1.00
H685   H     0.18244   0.08867   0.62402   0.00000  Uiso   1.00
H686   H     0.15842   0.33171   0.64944   0.00000  Uiso   1.00
H687   H     0.05794   0.29352   0.64299   0.00000  Uiso   1.00
H688   H     0.31481   0.01179   0.61113   0.00000  Uiso   1.00
N689   N     0.14695   0.15216   0.73740   0.00000  Uiso   1.00
N690   N     0.18638   0.18117   0.76261   0.00000  Uiso   1.00
O691   O     0.29719   0.24631   0.75310   0.00000  Uiso   1.00
O692   O     0.03614   0.08702   0.74690   0.00000  Uiso   1.00
O693   O     0.05822   0.23702   0.74502   0.00000  Uiso   1.00
O694   O     0.27512   0.09632   0.75499   0.00000  Uiso   1.00
O695   O     0.30328   0.17397   0.82247   0.00000  Uiso   1.00
O696   O     0.03005   0.15937   0.67753   0.00000  Uiso   1.00
O697   O     0.06431   0.16467   0.81439   0.00000  Uiso   1.00
O698   O     0.26902   0.16866   0.68561   0.00000  Uiso   1.00
Zn699  Zn    0.27033   0.17287   0.75540   0.00000  Uiso   1.00
Zn700  Zn    0.06300   0.16046   0.74461   0.00000  Uiso   1.00
C701   C     0.34851   0.26496   0.74896   0.00000  Uiso   1.00
C702   C     0.64591   0.16137   0.65866   0.00000  Uiso   1.00
C703   C     0.36394   0.18129   0.89442   0.00000  Uiso   1.00
C704   C     0.63591   0.15152   0.60565   0.00000  Uiso   1.00
C705   C     0.36278   0.23815   0.96822   0.00000  Uiso   1.00
C706   C     0.63578   0.09342   0.53258   0.00000  Uiso   1.00
C707   C     0.33926   0.22171   0.92155   0.00000  Uiso   1.00
C708   C     0.65989   0.11041   0.57892   0.00000  Uiso   1.00
C709   C     0.40746   0.15533   0.91574   0.00000  Uiso   1.00
C710   C     0.59246   0.17748   0.58423   0.00000  Uiso   1.00
C711   C     0.43358   0.17330   0.96125   0.00000  Uiso   1.00
C712   C     0.65149   0.06838   0.75108   0.00000  Uiso   1.00
C713   C     0.56540   0.15870   0.53932   0.00000  Uiso   1.00
C714   C     0.41145   0.21644   0.98673   0.00000  Uiso   1.00
C715   C     0.58708   0.11513   0.51412   0.00000  Uiso   1.00
C716   C     0.48415   0.15285   0.97958   0.00000  Uiso   1.00
C717   C     0.51453   0.17891   0.52126   0.00000  Uiso   1.00
C718   C     0.37179   0.08035   0.60008   0.00000  Uiso   1.00
C719   C     0.42871   0.10174   0.60385   0.00000  Uiso   1.00
C720   C     0.47188   0.07211   0.62137   0.00000  Uiso   1.00
C721   C     0.45834   0.02122   0.63575   0.00000  Uiso   1.00
C722   C     0.40166   0.33308   0.63223   0.00000  Uiso   1.00
C723   C     0.49222   0.22344   0.54426   0.00000  Uiso   1.00
C724   C     0.35848   0.02904   0.61419   0.00000  Uiso   1.00
C725   C     0.62731   0.25176   0.90049   0.00000  Uiso   1.00
C726   C     0.64064   0.30292   0.88602   0.00000  Uiso   1.00
C727   C     0.59744   0.33222   0.86804   0.00000  Uiso   1.00
C728   C     0.54072   0.31087   0.86490   0.00000  Uiso   1.00
C729   C     0.52716   0.26011   0.87962   0.00000  Uiso   1.00
C730   C     0.57035   0.23050   0.89713   0.00000  Uiso   1.00
C731   C     0.50601   0.10795   0.95691   0.00000  Uiso   1.00
C732   C     0.44056   0.24037   0.52831   0.00000  Uiso   1.00
C733   C     0.55753   0.09082   0.97291   0.00000  Uiso   1.00
C734   C     0.35644   0.31964   0.74882   0.00000  Uiso   1.00
C735   C     0.64358   0.01370   0.75130   0.00000  Uiso   1.00
C736   C     0.35408   0.17191   0.84135   0.00000  Uiso   1.00
H737   H     0.42494   0.27443   0.54700   0.00000  Uiso   1.00
H738   H     0.35104   0.32004   0.88876   0.00000  Uiso   1.00
H739   H     0.60785   0.03834   0.85700   0.00000  Uiso   1.00
H740   H     0.50727   0.00038   0.85122   0.00000  Uiso   1.00
H741   H     0.48322   0.24366   0.87726   0.00000  Uiso   1.00
H742   H     0.55960   0.19114   0.90809   0.00000  Uiso   1.00
H743   H     0.34575   0.27075   0.98840   0.00000  Uiso   1.00
H744   H     0.65239   0.06043   0.51266   0.00000  Uiso   1.00
H745   H     0.51359   0.24683   0.57453   0.00000  Uiso   1.00
H746   H     0.48407   0.08427   0.92705   0.00000  Uiso   1.00
H747   H     0.39991   0.00380   0.74664   0.00000  Uiso   1.00
H748   H     0.57276   0.05641   0.95451   0.00000  Uiso   1.00
H749   H     0.60010   0.32954   0.75349   0.00000  Uiso   1.00
H750   H     0.49582   0.12368   0.71469   0.00000  Uiso   1.00
H751   H     0.50419   0.20964   0.78534   0.00000  Uiso   1.00
H752   H     0.57691   0.20892   0.60641   0.00000  Uiso   1.00
H753   H     0.42398   0.12471   0.89314   0.00000  Uiso   1.00
H754   H     0.43944   0.14121   0.59320   0.00000  Uiso   1.00
H755   H     0.51578   0.08867   0.62402   0.00000  Uiso   1.00
H756   H     0.49176   0.33171   0.64944   0.00000  Uiso   1.00
H757   H     0.39127   0.29352   0.64299   0.00000  Uiso   1.00
H758   H     0.64814   0.01179   0.61113   0.00000  Uiso   1.00
N759   N     0.48029   0.15216   0.73740   0.00000  Uiso   1.00
N760   N     0.51971   0.18117   0.76261   0.00000  Uiso   1.00
O761   O     0.63052   0.24631   0.75310   0.00000  Uiso   1.00
O762   O     0.36948   0.08702   0.74690   0.00000  Uiso   1.00
O763   O     0.39155   0.23702   0.74502   0.00000  Uiso   1.00
O764   O     0.60845   0.09632   0.75499   0.00000  Uiso   1.00
O765   O     0.63662   0.17397   0.82247   0.00000  Uiso   1.00
O766   O     0.36338   0.15937   0.67753   0.00000  Uiso   1.00
O767   O     0.39764   0.16467   0.81439   0.00000  Uiso   1.00
O768   O     0.60236   0.16866   0.68561   0.00000  Uiso   1.00
Zn769  Zn    0.60366   0.17287   0.75540   0.00000  Uiso   1.00
Zn770  Zn    0.39634   0.16046   0.74461   0.00000  Uiso   1.00
C771   C     0.68184   0.26496   0.74896   0.00000  Uiso   1.00
C772   C     0.97924   0.16137   0.65866   0.00000  Uiso   1.00
C773   C     0.69727   0.18129   0.89442   0.00000  Uiso   1.00
C774   C     0.96924   0.15152   0.60565   0.00000  Uiso   1.00
C775   C     0.69612   0.23815   0.96822   0.00000  Uiso   1.00
C776   C     0.96912   0.09342   0.53258   0.00000  Uiso   1.00
C777   C     0.67260   0.22171   0.92155   0.00000  Uiso   1.00
C778   C     0.99322   0.11041   0.57892   0.00000  Uiso   1.00
C779   C     0.74079   0.15533   0.91574   0.00000  Uiso   1.00
C780   C     0.92580   0.17748   0.58423   0.00000  Uiso   1.00
C781   C     0.76691   0.17330   0.96125   0.00000  Uiso   1.00
C782   C     0.98483   0.06838   0.75108   0.00000  Uiso   1.00
C783   C     0.89873   0.15870   0.53932   0.00000  Uiso   1.00
C784   C     0.74479   0.21644   0.98673   0.00000  Uiso   1.00
C785   C     0.92041   0.11513   0.51412   0.00000  Uiso   1.00
C786   C     0.81748   0.15285   0.97958   0.00000  Uiso   1.00
C787   C     0.84787   0.17891   0.52126   0.00000  Uiso   1.00
C788   C     0.70512   0.08035   0.60008   0.00000  Uiso   1.00
C789   C     0.76204   0.10174   0.60385   0.00000  Uiso   1.00
C790   C     0.80521   0.07211   0.62137   0.00000  Uiso   1.00
C791   C     0.79167   0.02122   0.63575   0.00000  Uiso   1.00
C792   C     0.73499   0.33308   0.63223   0.00000  Uiso   1.00
C793   C     0.82555   0.22344   0.54426   0.00000  Uiso   1.00
C794   C     0.69182   0.02904   0.61419   0.00000  Uiso   1.00
C795   C     0.96064   0.25176   0.90049   0.00000  Uiso   1.00
C796   C     0.97398   0.30292   0.88602   0.00000  Uiso   1.00
C797   C     0.93077   0.33222   0.86804   0.00000  Uiso   1.00
C798   C     0.87405   0.31087   0.86490   0.00000  Uiso   1.00
C799   C     0.86049   0.26011   0.87962   0.00000  Uiso   1.00
C800   C     0.90368   0.23050   0.89713   0.00000  Uiso   1.00
C801   C     0.83934   0.10795   0.95691   0.00000  Uiso   1.00
C802   C     0.77390   0.24037   0.52831   0.00000  Uiso   1.00
C803   C     0.89086   0.09082   0.97291   0.00000  Uiso   1.00
C804   C     0.68977   0.31964   0.74882   0.00000  Uiso   1.00
C805   C     0.97691   0.01370   0.75130   0.00000  Uiso   1.00
C806   C     0.68742   0.17191   0.84135   0.00000  Uiso   1.00
H807   H     0.75827   0.27443   0.54700   0.00000  Uiso   1.00
H808   H     0.68437   0.32004   0.88876   0.00000  Uiso   1.00
H809   H     0.94118   0.03834   0.85700   0.00000  Uiso   1.00
H810   H     0.84061   0.00038   0.85122   0.00000  Uiso   1.00
H811   H     0.81655   0.24366   0.87726   0.00000  Uiso   1.00
H812   H     0.89294   0.19114   0.90809   0.00000  Uiso   1.00
H813   H     0.67908   0.27075   0.98840   0.00000  Uiso   1.00
H814   H     0.98573   0.06043   0.51266   0.00000  Uiso   1.00
H815   H     0.84693   0.24683   0.57453   0.00000  Uiso   1.00
H816   H     0.81741   0.08427   0.92705   0.00000  Uiso   1.00
H817   H     0.73325   0.00380   0.74664   0.00000  Uiso   1.00
H818   H     0.90610   0.05641   0.95451   0.00000  Uiso   1.00
H819   H     0.93344   0.32954   0.75349   0.00000  Uiso   1.00
H820   H     0.82915   0.12368   0.71469   0.00000  Uiso   1.00
H821   H     0.83752   0.20964   0.78534   0.00000  Uiso   1.00
H822   H     0.91024   0.20892   0.60641   0.00000  Uiso   1.00
H823   H     0.75732   0.12471   0.89314   0.00000  Uiso   1.00
H824   H     0.77277   0.14121   0.59320   0.00000  Uiso   1.00
H825   H     0.84911   0.08867   0.62402   0.00000  Uiso   1.00
H826   H     0.82509   0.33171   0.64944   0.00000  Uiso   1.00
H827   H     0.72460   0.29352   0.64299   0.00000  Uiso   1.00
H828   H     0.98148   0.01179   0.61113   0.00000  Uiso   1.00
N829   N     0.81362   0.15216   0.73740   0.00000  Uiso   1.00
N830   N     0.85305   0.18117   0.76261   0.00000  Uiso   1.00
O831   O     0.96386   0.24631   0.75310   0.00000  Uiso   1.00
O832   O     0.70281   0.08702   0.74690   0.00000  Uiso   1.00
O833   O     0.72488   0.23702   0.74502   0.00000  Uiso   1.00
O834   O     0.94178   0.09632   0.75499   0.00000  Uiso   1.00
O835   O     0.96995   0.17397   0.82247   0.00000  Uiso   1.00
O836   O     0.69672   0.15937   0.67753   0.00000  Uiso   1.00
O837   O     0.73098   0.16467   0.81439   0.00000  Uiso   1.00
O838   O     0.93569   0.16866   0.68561   0.00000  Uiso   1.00
Zn839  Zn    0.93700   0.17287   0.75540   0.00000  Uiso   1.00
Zn840  Zn    0.72967   0.16046   0.74461   0.00000  Uiso   1.00
C841   C     0.01518   0.59829   0.74896   0.00000  Uiso   1.00
C842   C     0.31257   0.49470   0.65866   0.00000  Uiso   1.00
C843   C     0.03060   0.51462   0.89442   0.00000  Uiso   1.00
C844   C     0.30257   0.48485   0.60565   0.00000  Uiso   1.00
C845   C     0.02945   0.57149   0.96822   0.00000  Uiso   1.00
C846   C     0.30245   0.42675   0.53258   0.00000  Uiso   1.00
C847   C     0.00593   0.55504   0.92155   0.00000  Uiso   1.00
C848   C     0.32655   0.44374   0.57892   0.00000  Uiso   1.00
C849   C     0.07412   0.48867   0.91574   0.00000  Uiso   1.00
C850   C     0.25913   0.51081   0.58423   0.00000  Uiso   1.00
C851   C     0.10024   0.50663   0.96125   0.00000  Uiso   1.00
C852   C     0.31816   0.40171   0.75108   0.00000  Uiso   1.00
C853   C     0.23207   0.49203   0.53932   0.00000  Uiso   1.00
C854   C     0.07812   0.54978   0.98673   0.00000  Uiso   1.00
C855   C     0.25374   0.44846   0.51412   0.00000  Uiso   1.00
C856   C     0.15082   0.48618   0.97958   0.00000  Uiso   1.00
C857   C     0.18120   0.51225   0.52126   0.00000  Uiso   1.00
C858   C     0.03846   0.41368   0.60008   0.00000  Uiso   1.00
C859   C     0.09537   0.43507   0.60385   0.00000  Uiso   1.00
C860   C     0.13854   0.40544   0.62137   0.00000  Uiso   1.00
C861   C     0.12500   0.35455   0.63575   0.00000  Uiso   1.00
C862   C     0.06833   0.66641   0.63223   0.00000  Uiso   1.00
C863   C     0.15889   0.55677   0.54426   0.00000  Uiso   1.00
C864   C     0.02515   0.36237   0.61419   0.00000  Uiso   1.00
C865   C     0.29398   0.58509   0.90049   0.00000  Uiso   1.00
C866   C     0.30731   0.63625   0.88602   0.00000  Uiso   1.00
C867   C     0.26410   0.66555   0.86804   0.00000  Uiso   1.00
C868   C     0.20738   0.64421   0.86490   0.00000  Uiso   1.00
C869   C     0.19382   0.59344   0.87962   0.00000  Uiso   1.00
C870   C     0.23702   0.56383   0.89713   0.00000  Uiso   1.00
C871   C     0.17267   0.44129   0.95691   0.00000  Uiso   1.00
C872   C     0.10723   0.57371   0.52831   0.00000  Uiso   1.00
C873   C     0.22420   0.42415   0.97291   0.00000  Uiso   1.00
C874   C     0.02311   0.65297   0.74882   0.00000  Uiso   1.00
C875   C     0.31024   0.34703   0.75130   0.00000  Uiso   1.00
C876   C     0.02075   0.50524   0.84135   0.00000  Uiso   1.00
H877   H     0.09161   0.60776   0.54700   0.00000  Uiso   1.00
H878   H     0.01770   0.65338   0.88876   0.00000  Uiso   1.00
H879   H     0.27451   0.37168   0.85700   0.00000  Uiso   1.00
H880   H     0.17394   0.33371   0.85122   0.00000  Uiso   1.00
H881   H     0.14989   0.57700   0.87726   0.00000  Uiso   1.00
H882   H     0.22627   0.52448   0.90809   0.00000  Uiso   1.00
H883   H     0.01242   0.60409   0.98840   0.00000  Uiso   1.00
H884   H     0.31906   0.39377   0.51266   0.00000  Uiso   1.00
H885   H     0.18026   0.58016   0.57453   0.00000  Uiso   1.00
H886   H     0.15074   0.41760   0.92705   0.00000  Uiso   1.00
H887   H     0.06658   0.33713   0.74664   0.00000  Uiso   1.00
H888   H     0.23943   0.38974   0.95451   0.00000  Uiso   1.00
H889   H     0.26677   0.66288   0.75349   0.00000  Uiso   1.00
H890   H     0.16248   0.45702   0.71469   0.00000  Uiso   1.00
H891   H     0.17085   0.54298   0.78534   0.00000  Uiso   1.00
H892   H     0.24358   0.54225   0.60641   0.00000  Uiso   1.00
H893   H     0.09065   0.45804   0.89314   0.00000  Uiso   1.00
H894   H     0.10611   0.47454   0.59320   0.00000  Uiso   1.00
H895   H     0.18244   0.42200   0.62402   0.00000  Uiso   1.00
H896   H     0.15842   0.66504   0.64944   0.00000  Uiso   1.00
H897   H     0.05794   0.62685   0.64299   0.00000  Uiso   1.00
H898   H     0.31481   0.34512   0.61113   0.00000  Uiso   1.00
N899   N     0.14695   0.48550   0.73740   0.00000  Uiso   1.00
N900   N     0.18638   0.51450   0.76261   0.00000  Uiso   1.00
O901   O     0.29719   0.57964   0.75310   0.00000  Uiso   1.00
O902   O     0.03614   0.42036   0.74690   0.00000  Uiso   1.00
O903   O     0.05822   0.57035   0.74502   0.00000  Uiso   1.00
O904   O     0.27512   0.42965   0.75499   0.00000  Uiso   1.00
O905   O     0.30328   0.50730   0.82247   0.00000  Uiso   1.00
O906   O     0.03005   0.49270   0.67753   0.00000  Uiso   1.00
O907   O     0.06431   0.49801   0.81439   0.00000  Uiso   1.00
O908   O     0.26902   0.50199   0.68561   0.00000  Uiso   1.00
Zn909  Zn    0.27033   0.50621   0.75540   0.00000  Uiso   1.00
Zn910  Zn    0.06300   0.49379   0.74461   0.00000  Uiso   1.00
C911   C     0.34851   0.59829   0.74896   0.00000  Uiso   1.00
C912   C     0.64591   0.49470   0.65866   0.00000  Uiso   1.00
C913   C     0.36394   0.51462   0.89442   0.00000  Uiso   1.00
C914   C     0.63591   0.48485   0.60565   0.00000  Uiso   1.00
C915   C     0.36278   0.57149   0.96822   0.00000  Uiso   1.00
C916   C     0.63578   0.42675   0.53258   0.00000  Uiso   1.00
C917   C     0.33926   0.55504   0.92155   0.00000  Uiso   1.00
C918   C     0.65989   0.44374   0.57892   0.00000  Uiso   1.00
C919   C     0.40746   0.48867   0.91574   0.00000  Uiso   1.00
C920   C     0.59246   0.51081   0.58423   0.00000  Uiso   1.00
C921   C     0.43358   0.50663   0.96125   0.00000  Uiso   1.00
C922   C     0.65149   0.40171   0.75108   0.00000  Uiso   1.00
C923   C     0.56540   0.49203   0.53932   0.00000  Uiso   1.00
C924   C     0.41145   0.54978   0.98673   0.00000  Uiso   1.00
C925   C     0.58708   0.44846   0.51412   0.00000  Uiso   1.00
C926   C     0.48415   0.48618   0.97958   0.00000  Uiso   1.00
C927   C     0.51453   0.51225   0.52126   0.00000  Uiso   1.00
C928   C     0.37179   0.41368   0.60008   0.00000  Uiso   1.00
C929   C     0.42871   0.43507   0.60385   0.00000  Uiso   1.00
C930   C     0.47188   0.40544   0.62137   0.00000  Uiso   1.00
C931   C     0.45834   0.35455   0.63575   0.00000  Uiso   1.00
C932   C     0.40166   0.66641   0.63223   0.00000  Uiso   1.00
C933   C     0.49222   0.55677   0.54426   0.00000  Uiso   1.00
C934   C     0.35848   0.36237   0.61419   0.00000  Uiso   1.00
C935   C     0.62731   0.58509   0.90049   0.00000  Uiso   1.00
C936   C     0.64064   0.63625   0.88602   0.00000  Uiso   1.00
C937   C     0.59744   0.66555   0.86804   0.00000  Uiso   1.00
C938   C     0.54072   0.64421   0.86490   0.00000  Uiso   1.00
C939   C     0.52716   0.59344   0.87962   0.00000  Uiso   1.00
C940   C     0.57035   0.56383   0.89713   0.00000  Uiso   1.00
C941   C     0.50601   0.44129   0.95691   0.00000  Uiso   1.00
C942   C     0.44056   0.57371   0.52831   0.00000  Uiso   1.00
C943   C     0.55753   0.42415   0.97291   0.00000  Uiso   1.00
C944   C     0.35644   0.65297   0.74882   0.00000  Uiso   1.00
C945   C     0.64358   0.34703   0.75130   0.00000  Uiso   1.00
C946   C     0.35408   0.50524   0.84135   0.00000  Uiso   1.00
H947   H     0.42494   0.60776   0.54700   0.00000  Uiso   1.00
H948   H     0.35104   0.65338   0.88876   0.00000  Uiso   1.00
H949   H     0.60785   0.37168   0.85700   0.00000  Uiso   1.00
H950   H     0.50727   0.33371   0.85122   0.00000  Uiso   1.00
H951   H     0.48322   0.57700   0.87726   0.00000  Uiso   1.00
H952   H     0.55960   0.52448   0.90809   0.00000  Uiso   1.00
H953   H     0.34575   0.60409   0.98840   0.00000  Uiso   1.00
H954   H     0.65239   0.39377   0.51266   0.00000  Uiso   1.00
H955   H     0.51359   0.58016   0.57453   0.00000  Uiso   1.00
H956   H     0.48407   0.41760   0.92705   0.00000  Uiso   1.00
H957   H     0.39991   0.33713   0.74664   0.00000  Uiso   1.00
H958   H     0.57276   0.38974   0.95451   0.00000  Uiso   1.00
H959   H     0.60010   0.66288   0.75349   0.00000  Uiso   1.00
H960   H     0.49582   0.45702   0.71469   0.00000  Uiso   1.00
H961   H     0.50419   0.54298   0.78534   0.00000  Uiso   1.00
H962   H     0.57691   0.54225   0.60641   0.00000  Uiso   1.00
H963   H     0.42398   0.45804   0.89314   0.00000  Uiso   1.00
H964   H     0.43944   0.47454   0.59320   0.00000  Uiso   1.00
H965   H     0.51578   0.42200   0.62402   0.00000  Uiso   1.00
H966   H     0.49176   0.66504   0.64944   0.00000  Uiso   1.00
H967   H     0.39127   0.62685   0.64299   0.00000  Uiso   1.00
H968   H     0.64814   0.34512   0.61113   0.00000  Uiso   1.00
N969   N     0.48029   0.48550   0.73740   0.00000  Uiso   1.00
N970   N     0.51971   0.51450   0.76261   0.00000  Uiso   1.00
O971   O     0.63052   0.57964   0.75310   0.00000  Uiso   1.00
O972   O     0.36948   0.42036   0.74690   0.00000  Uiso   1.00
O973   O     0.39155   0.57035   0.74502   0.00000  Uiso   1.00
O974   O     0.60845   0.42965   0.75499   0.00000  Uiso   1.00
O975   O     0.63662   0.50730   0.82247   0.00000  Uiso   1.00
O976   O     0.36338   0.49270   0.67753   0.00000  Uiso   1.00
O977   O     0.39764   0.49801   0.81439   0.00000  Uiso   1.00
O978   O     0.60236   0.50199   0.68561   0.00000  Uiso   1.00
Zn979  Zn    0.60366   0.50621   0.75540   0.00000  Uiso   1.00
Zn980  Zn    0.39634   0.49379   0.74461   0.00000  Uiso   1.00
C981   C     0.68184   0.59829   0.74896   0.00000  Uiso   1.00
C982   C     0.97924   0.49470   0.65866   0.00000  Uiso   1.00
C983   C     0.69727   0.51462   0.89442   0.00000  Uiso   1.00
C984   C     0.96924   0.48485   0.60565   0.00000  Uiso   1.00
C985   C     0.69612   0.57149   0.96822   0.00000  Uiso   1.00
C986   C     0.96912   0.42675   0.53258   0.00000  Uiso   1.00
C987   C     0.67260   0.55504   0.92155   0.00000  Uiso   1.00
C988   C     0.99322   0.44374   0.57892   0.00000  Uiso   1.00
C989   C     0.74079   0.48867   0.91574   0.00000  Uiso   1.00
C990   C     0.92580   0.51081   0.58423   0.00000  Uiso   1.00
C991   C     0.76691   0.50663   0.96125   0.00000  Uiso   1.00
C992   C     0.98483   0.40171   0.75108   0.00000  Uiso   1.00
C993   C     0.89873   0.49203   0.53932   0.00000  Uiso   1.00
C994   C     0.74479   0.54978   0.98673   0.00000  Uiso   1.00
C995   C     0.92041   0.44846   0.51412   0.00000  Uiso   1.00
C996   C     0.81748   0.48618   0.97958   0.00000  Uiso   1.00
C997   C     0.84787   0.51225   0.52126   0.00000  Uiso   1.00
C998   C     0.70512   0.41368   0.60008   0.00000  Uiso   1.00
C999   C     0.76204   0.43507   0.60385   0.00000  Uiso   1.00
C1000  C     0.80521   0.40544   0.62137   0.00000  Uiso   1.00
C1001  C     0.79167   0.35455   0.63575   0.00000  Uiso   1.00
C1002  C     0.73499   0.66641   0.63223   0.00000  Uiso   1.00
C1003  C     0.82555   0.55677   0.54426   0.00000  Uiso   1.00
C1004  C     0.69182   0.36237   0.61419   0.00000  Uiso   1.00
C1005  C     0.96064   0.58509   0.90049   0.00000  Uiso   1.00
C1006  C     0.97398   0.63625   0.88602   0.00000  Uiso   1.00
C1007  C     0.93077   0.66555   0.86804   0.00000  Uiso   1.00
C1008  C     0.87405   0.64421   0.86490   0.00000  Uiso   1.00
C1009  C     0.86049   0.59344   0.87962   0.00000  Uiso   1.00
C1010  C     0.90368   0.56383   0.89713   0.00000  Uiso   1.00
C1011  C     0.83934   0.44129   0.95691   0.00000  Uiso   1.00
C1012  C     0.77390   0.57371   0.52831   0.00000  Uiso   1.00
C1013  C     0.89086   0.42415   0.97291   0.00000  Uiso   1.00
C1014  C     0.68977   0.65297   0.74882   0.00000  Uiso   1.00
C1015  C     0.97691   0.34703   0.75130   0.00000  Uiso   1.00
C1016  C     0.68742   0.50524   0.84135   0.00000  Uiso   1.00
H1017  H     0.75827   0.60776   0.54700   0.00000  Uiso   1.00
H1018  H     0.68437   0.65338   0.88876   0.00000  Uiso   1.00
H1019  H     0.94118   0.37168   0.85700   0.00000  Uiso   1.00
H1020  H     0.84061   0.33371   0.85122   0.00000  Uiso   1.00
H1021  H     0.81655   0.57700   0.87726   0.00000  Uiso   1.00
H1022  H     0.89294   0.52448   0.90809   0.00000  Uiso   1.00
H1023  H     0.67908   0.60409   0.98840   0.00000  Uiso   1.00
H1024  H     0.98573   0.39377   0.51266   0.00000  Uiso   1.00
H1025  H     0.84693   0.58016   0.57453   0.00000  Uiso   1.00
H1026  H     0.81741   0.41760   0.92705   0.00000  Uiso   1.00
H1027  H     0.73325   0.33713   0.74664   0.00000  Uiso   1.00
H1028  H     0.90610   0.38974   0.95451   0.00000  Uiso   1.00
H1029  H     0.93344   0.66288   0.75349   0.00000  Uiso   1.00
H1030  H     0.82915   0.45702   0.71469   0.00000  Uiso   1.00
H1031  H     0.83752   0.54298   0.78534   0.00000  Uiso   1.00
H1032  H     0.91024   0.54225   0.60641   0.00000  Uiso   1.00
H1033  H     0.75732   0.45804   0.89314   0.00000  Uiso   1.00
H1034  H     0.77277   0.47454   0.59320   0.00000  Uiso   1.00
H1035  H     0.84911   0.42200   0.62402   0.00000  Uiso   1.00
H1036  H     0.82509   0.66504   0.64944   0.00000  Uiso   1.00
H1037  H     0.72460   0.62685   0.64299   0.00000  Uiso   1.00
H1038  H     0.98148   0.34512   0.61113   0.00000  Uiso   1.00
N1039  N     0.81362   0.48550   0.73740   0.00000  Uiso   1.00
N1040  N     0.85305   0.51450   0.76261   0.00000  Uiso   1.00
O1041  O     0.96386   0.57964   0.75310   0.00000  Uiso   1.00
O1042  O     0.70281   0.42036   0.74690   0.00000  Uiso   1.00
O1043  O     0.72488   0.57035   0.74502   0.00000  Uiso   1.00
O1044  O     0.94178   0.42965   0.75499   0.00000  Uiso   1.00
O1045  O     0.96995   0.50730   0.82247   0.00000  Uiso   1.00
O1046  O     0.69672   0.49270   0.67753   0.00000  Uiso   1.00
O1047  O     0.73098   0.49801   0.81439   0.00000  Uiso   1.00
O1048  O     0.93569   0.50199   0.68561   0.00000  Uiso   1.00
Zn1049 Zn    0.93700   0.50621   0.75540   0.00000  Uiso   1.00
Zn1050 Zn    0.72967   0.49379   0.74461   0.00000  Uiso   1.00
C1051  C     0.01518   0.93162   0.74896   0.00000  Uiso   1.00
C1052  C     0.31257   0.82803   0.65866   0.00000  Uiso   1.00
C1053  C     0.03060   0.84795   0.89442   0.00000  Uiso   1.00
C1054  C     0.30257   0.81818   0.60565   0.00000  Uiso   1.00
C1055  C     0.02945   0.90482   0.96822   0.00000  Uiso   1.00
C1056  C     0.30245   0.76009   0.53258   0.00000  Uiso   1.00
C1057  C     0.00593   0.88837   0.92155   0.00000  Uiso   1.00
C1058  C     0.32655   0.77708   0.57892   0.00000  Uiso   1.00
C1059  C     0.07412   0.82200   0.91574   0.00000  Uiso   1.00
C1060  C     0.25913   0.84414   0.58423   0.00000  Uiso   1.00
C1061  C     0.10024   0.83997   0.96125   0.00000  Uiso   1.00
C1062  C     0.31816   0.73505   0.75108   0.00000  Uiso   1.00
C1063  C     0.23207   0.82536   0.53932   0.00000  Uiso   1.00
C1064  C     0.07812   0.88311   0.98673   0.00000  Uiso   1.00
C1065  C     0.25374   0.78179   0.51412   0.00000  Uiso   1.00
C1066  C     0.15082   0.81952   0.97958   0.00000  Uiso   1.00
C1067  C     0.18120   0.84558   0.52126   0.00000  Uiso   1.00
C1068  C     0.03846   0.74702   0.60008   0.00000  Uiso   1.00
C1069  C     0.09537   0.76840   0.60385   0.00000  Uiso   1.00
C1070  C     0.13854   0.73878   0.62137   0.00000  Uiso   1.00
C1071  C     0.12500   0.68788   0.63575   0.00000  Uiso   1.00
C1072  C     0.06833   0.99974   0.63223   0.00000  Uiso   1.00
C1073  C     0.15889   0.89010   0.54426   0.00000  Uiso   1.00
C1074  C     0.02515   0.69570   0.61419   0.00000  Uiso   1.00
C1075  C     0.29398   0.91842   0.90049   0.00000  Uiso   1.00
C1076  C     0.30731   0.96958   0.88602   0.00000  Uiso   1.00
C1077  C     0.26410   0.99889   0.86804   0.00000  Uiso   1.00
C1078  C     0.20738   0.97754   0.86490   0.00000  Uiso   1.00
C1079  C     0.19382   0.92678   0.87962   0.00000  Uiso   1.00
C1080  C     0.23702   0.89716   0.89713   0.00000  Uiso   1.00
C1081  C     0.17267   0.77462   0.95691   0.00000  Uiso   1.00
C1082  C     0.10723   0.90704   0.52831   0.00000  Uiso   1.00
C1083  C     0.22420   0.75748   0.97291   0.00000  Uiso   1.00
C1084  C     0.02311   0.98631   0.74882   0.00000  Uiso   1.00
C1085  C     0.31024   0.68037   0.75130   0.00000  Uiso   1.00
C1086  C     0.02075   0.83858   0.84135   0.00000  Uiso   1.00
H1087  H     0.09161   0.94110   0.54700   0.00000  Uiso   1.00
H1088  H     0.01770   0.98671   0.88876   0.00000  Uiso   1.00
H1089  H     0.27451   0.70501   0.85700   0.00000  Uiso   1.00
H1090  H     0.17394   0.66704   0.85122   0.00000  Uiso   1.00
H1091  H     0.14989   0.91033   0.87726   0.00000  Uiso   1.00
H1092  H     0.22627   0.85781   0.90809   0.00000  Uiso   1.00
H1093  H     0.01242   0.93742   0.98840   0.00000  Uiso   1.00
H1094  H     0.31906   0.72710   0.51266   0.00000  Uiso   1.00
H1095  H     0.18026   0.91350   0.57453   0.00000  Uiso   1.00
H1096  H     0.15074   0.75093   0.92705   0.00000  Uiso   1.00
H1097  H     0.06658   0.67047   0.74664   0.00000  Uiso   1.00
H1098  H     0.23943   0.72307   0.95451   0.00000  Uiso   1.00
H1099  H     0.26677   0.99621   0.75349   0.00000  Uiso   1.00
H1100  H     0.16248   0.79035   0.71469   0.00000  Uiso   1.00
H1101  H     0.17085   0.87631   0.78534   0.00000  Uiso   1.00
H1102  H     0.24358   0.87559   0.60641   0.00000  Uiso   1.00
H1103  H     0.09065   0.79137   0.89314   0.00000  Uiso   1.00
H1104  H     0.10611   0.80788   0.59320   0.00000  Uiso   1.00
H1105  H     0.18244   0.75534   0.62402   0.00000  Uiso   1.00
H1106  H     0.15842   0.99837   0.64944   0.00000  Uiso   1.00
H1107  H     0.05794   0.96019   0.64299   0.00000  Uiso   1.00
H1108  H     0.31481   0.67845   0.61113   0.00000  Uiso   1.00
N1109  N     0.14695   0.81883   0.73740   0.00000  Uiso   1.00
N1110  N     0.18638   0.84784   0.76261   0.00000  Uiso   1.00
O1111  O     0.29719   0.91298   0.75310   0.00000  Uiso   1.00
O1112  O     0.03614   0.75369   0.74690   0.00000  Uiso   1.00
O1113  O     0.05822   0.90368   0.74502   0.00000  Uiso   1.00
O1114  O     0.27512   0.76298   0.75499   0.00000  Uiso   1.00
O1115  O     0.30328   0.84063   0.82247   0.00000  Uiso   1.00
O1116  O     0.03005   0.82603   0.67753   0.00000  Uiso   1.00
O1117  O     0.06431   0.83134   0.81439   0.00000  Uiso   1.00
O1118  O     0.26902   0.83533   0.68561   0.00000  Uiso   1.00
Zn1119 Zn    0.27033   0.83954   0.75540   0.00000  Uiso   1.00
Zn1120 Zn    0.06300   0.82713   0.74461   0.00000  Uiso   1.00
C1121  C     0.34851   0.93162   0.74896   0.00000  Uiso   1.00
C1122  C     0.64591   0.82803   0.65866   0.00000  Uiso   1.00
C1123  C     0.36394   0.84795   0.89442   0.00000  Uiso   1.00
C1124  C     0.63591   0.81818   0.60565   0.00000  Uiso   1.00
C1125  C     0.36278   0.90482   0.96822   0.00000  Uiso   1.00
C1126  C     0.63578   0.76009   0.53258   0.00000  Uiso   1.00
C1127  C     0.33926   0.88837   0.92155   0.00000  Uiso   1.00
C1128  C     0.65989   0.77708   0.57892   0.00000  Uiso   1.00
C1129  C     0.40746   0.82200   0.91574   0.00000  Uiso   1.00
C1130  C     0.59246   0.84414   0.58423   0.00000  Uiso   1.00
C1131  C     0.43358   0.83997   0.96125   0.00000  Uiso   1.00
C1132  C     0.65149   0.73505   0.75108   0.00000  Uiso   1.00
C1133  C     0.56540   0.82536   0.53932   0.00000  Uiso   1.00
C1134  C     0.41145   0.88311   0.98673   0.00000  Uiso   1.00
C1135  C     0.58708   0.78179   0.51412   0.00000  Uiso   1.00
C1136  C     0.48415   0.81952   0.97958   0.00000  Uiso   1.00
C1137  C     0.51453   0.84558   0.52126   0.00000  Uiso   1.00
C1138  C     0.37179   0.74702   0.60008   0.00000  Uiso   1.00
C1139  C     0.42871   0.76840   0.60385   0.00000  Uiso   1.00
C1140  C     0.47188   0.73878   0.62137   0.00000  Uiso   1.00
C1141  C     0.45834   0.68788   0.63575   0.00000  Uiso   1.00
C1142  C     0.40166   0.99974   0.63223   0.00000  Uiso   1.00
C1143  C     0.49222   0.89010   0.54426   0.00000  Uiso   1.00
C1144  C     0.35848   0.69570   0.61419   0.00000  Uiso   1.00
C1145  C     0.62731   0.91842   0.90049   0.00000  Uiso   1.00
C1146  C     0.64064   0.96958   0.88602   0.00000  Uiso   1.00
C1147  C     0.59744   0.99889   0.86804   0.00000  Uiso   1.00
C1148  C     0.54072   0.97754   0.86490   0.00000  Uiso   1.00
C1149  C     0.52716   0.92678   0.87962   0.00000  Uiso   1.00
C1150  C     0.57035   0.89716   0.89713   0.00000  Uiso   1.00
C1151  C     0.50601   0.77462   0.95691   0.00000  Uiso   1.00
C1152  C     0.44056   0.90704   0.52831   0.00000  Uiso   1.00
C1153  C     0.55753   0.75748   0.97291   0.00000  Uiso   1.00
C1154  C     0.35644   0.98631   0.74882   0.00000  Uiso   1.00
C1155  C     0.64358   0.68037   0.75130   0.00000  Uiso   1.00
C1156  C     0.35408   0.83858   0.84135   0.00000  Uiso   1.00
H1157  H     0.42494   0.94110   0.54700   0.00000  Uiso   1.00
H1158  H     0.35104   0.98671   0.88876   0.00000  Uiso   1.00
H1159  H     0.60785   0.70501   0.85700   0.00000  Uiso   1.00
H1160  H     0.50727   0.66704   0.85122   0.00000  Uiso   1.00
H1161  H     0.48322   0.91033   0.87726   0.00000  Uiso   1.00
H1162  H     0.55960   0.85781   0.90809   0.00000  Uiso   1.00
H1163  H     0.34575   0.93742   0.98840   0.00000  Uiso   1.00
H1164  H     0.65239   0.72710   0.51266   0.00000  Uiso   1.00
H1165  H     0.51359   0.91350   0.57453   0.00000  Uiso   1.00
H1166  H     0.48407   0.75093   0.92705   0.00000  Uiso   1.00
H1167  H     0.39991   0.67047   0.74664   0.00000  Uiso   1.00
H1168  H     0.57276   0.72307   0.95451   0.00000  Uiso   1.00
H1169  H     0.60010   0.99621   0.75349   0.00000  Uiso   1.00
H1170  H     0.49582   0.79035   0.71469   0.00000  Uiso   1.00
H1171  H     0.50419   0.87631   0.78534   0.00000  Uiso   1.00
H1172  H     0.57691   0.87559   0.60641   0.00000  Uiso   1.00
H1173  H     0.42398   0.79137   0.89314   0.00000  Uiso   1.00
H1174  H     0.43944   0.80788   0.59320   0.00000  Uiso   1.00
H1175  H     0.51578   0.75534   0.62402   0.00000  Uiso   1.00
H1176  H     0.49176   0.99837   0.64944   0.00000  Uiso   1.00
H1177  H     0.39127   0.96019   0.64299   0.00000  Uiso   1.00
H1178  H     0.64814   0.67845   0.61113   0.00000  Uiso   1.00
N1179  N     0.48029   0.81883   0.73740   0.00000  Uiso   1.00
N1180  N     0.51971   0.84784   0.76261   0.00000  Uiso   1.00
O1181  O     0.63052   0.91298   0.75310   0.00000  Uiso   1.00
O1182  O     0.36948   0.75369   0.74690   0.00000  Uiso   1.00
O1183  O     0.39155   0.90368   0.74502   0.00000  Uiso   1.00
O1184  O     0.60845   0.76298   0.75499   0.00000  Uiso   1.00
O1185  O     0.63662   0.84063   0.82247   0.00000  Uiso   1.00
O1186  O     0.36338   0.82603   0.67753   0.00000  Uiso   1.00
O1187  O     0.39764   0.83134   0.81439   0.00000  Uiso   1.00
O1188  O     0.60236   0.83533   0.68561   0.00000  Uiso   1.00
Zn1189 Zn    0.60366   0.83954   0.75540   0.00000  Uiso   1.00
Zn1190 Zn    0.39634   0.82713   0.74461   0.00000  Uiso   1.00
C1191  C     0.68184   0.93162   0.74896   0.00000  Uiso   1.00
C1192  C     0.97924   0.82803   0.65866   0.00000  Uiso   1.00
C1193  C     0.69727   0.84795   0.89442   0.00000  Uiso   1.00
C1194  C     0.96924   0.81818   0.60565   0.00000  Uiso   1.00
C1195  C     0.69612   0.90482   0.96822   0.00000  Uiso   1.00
C1196  C     0.96912   0.76009   0.53258   0.00000  Uiso   1.00
C1197  C     0.67260   0.88837   0.92155   0.00000  Uiso   1.00
C1198  C     0.99322   0.77708   0.57892   0.00000  Uiso   1.00
C1199  C     0.74079   0.82200   0.91574   0.00000  Uiso   1.00
C1200  C     0.92580   0.84414   0.58423   0.00000  Uiso   1.00
C1201  C     0.76691   0.83997   0.96125   0.00000  Uiso   1.00
C1202  C     0.98483   0.73505   0.75108   0.00000  Uiso   1.00
C1203  C     0.89873   0.82536   0.53932   0.00000  Uiso   1.00
C1204  C     0.74479   0.88311   0.98673   0.00000  Uiso   1.00
C1205  C     0.92041   0.78179   0.51412   0.00000  Uiso   1.00
C1206  C     0.81748   0.81952   0.97958   0.00000  Uiso   1.00
C1207  C     0.84787   0.84558   0.52126   0.00000  Uiso   1.00
C1208  C     0.70512   0.74702   0.60008   0.00000  Uiso   1.00
C1209  C     0.76204   0.76840   0.60385   0.00000  Uiso   1.00
C1210  C     0.80521   0.73878   0.62137   0.00000  Uiso   1.00
C1211  C     0.79167   0.68788   0.63575   0.00000  Uiso   1.00
C1212  C     0.73499   0.99974   0.63223   0.00000  Uiso   1.00
C1213  C     0.82555   0.89010   0.54426   0.00000  Uiso   1.00
C1214  C     0.69182   0.69570   0.61419   0.00000  Uiso   1.00
C1215  C     0.96064   0.91842   0.90049   0.00000  Uiso   1.00
C1216  C     0.97398   0.96958   0.88602   0.00000  Uiso   1.00
C1217  C     0.93077   0.99889   0.86804   0.00000  Uiso   1.00
C1218  C     0.87405   0.97754   0.86490   0.00000  Uiso   1.00
C1219  C     0.86049   0.92678   0.87962   0.00000  Uiso   1.00
C1220  C     0.90368   0.89716   0.89713   0.00000  Uiso   1.00
C1221  C     0.83934   0.77462   0.95691   0.00000  Uiso   1.00
C1222  C     0.77390   0.90704   0.52831   0.00000  Uiso   1.00
C1223  C     0.89086   0.75748   0.97291   0.00000  Uiso   1.00
C1224  C     0.68977   0.98631   0.74882   0.00000  Uiso   1.00
C1225  C     0.97691   0.68037   0.75130   0.00000  Uiso   1.00
C1226  C     0.68742   0.83858   0.84135   0.00000  Uiso   1.00
H1227  H     0.75827   0.94110   0.54700   0.00000  Uiso   1.00
H1228  H     0.68437   0.98671   0.88876   0.00000  Uiso   1.00
H1229  H     0.94118   0.70501   0.85700   0.00000  Uiso   1.00
H1230  H     0.84061   0.66704   0.85122   0.00000  Uiso   1.00
H1231  H     0.81655   0.91033   0.87726   0.00000  Uiso   1.00
H1232  H     0.89294   0.85781   0.90809   0.00000  Uiso   1.00
H1233  H     0.67908   0.93742   0.98840   0.00000  Uiso   1.00
H1234  H     0.98573   0.72710   0.51266   0.00000  Uiso   1.00
H1235  H     0.84693   0.91350   0.57453   0.00000  Uiso   1.00
H1236  H     0.81741   0.75093   0.92705   0.00000  Uiso   1.00
H1237  H     0.73325   0.67047   0.74664   0.00000  Uiso   1.00
H1238  H     0.90610   0.72307   0.95451   0.00000  Uiso   1.00
H1239  H     0.93344   0.99621   0.75349   0.00000  Uiso   1.00
H1240  H     0.82915   0.79035   0.71469   0.00000  Uiso   1.00
H1241  H     0.83752   0.87631   0.78534   0.00000  Uiso   1.00
H1242  H     0.91024   0.87559   0.60641   0.00000  Uiso   1.00
H1243  H     0.75732   0.79137   0.89314   0.00000  Uiso   1.00
H1244  H     0.77277   0.80788   0.59320   0.00000  Uiso   1.00
H1245  H     0.84911   0.75534   0.62402   0.00000  Uiso   1.00
H1246  H     0.82509   0.99837   0.64944   0.00000  Uiso   1.00
H1247  H     0.72460   0.96019   0.64299   0.00000  Uiso   1.00
H1248  H     0.98148   0.67845   0.61113   0.00000  Uiso   1.00
N1249  N     0.81362   0.81883   0.73740   0.00000  Uiso   1.00
N1250  N     0.85305   0.84784   0.76261   0.00000  Uiso   1.00
O1251  O     0.96386   0.91298   0.75310   0.00000  Uiso   1.00
O1252  O     0.70281   0.75369   0.74690   0.00000  Uiso   1.00
O1253  O     0.72488   0.90368   0.74502   0.00000  Uiso   1.00
O1254  O     0.94178   0.76298   0.75499   0.00000  Uiso   1.00
O1255  O     0.96995   0.84063   0.82247   0.00000  Uiso   1.00
O1256  O     0.69672   0.82603   0.67753   0.00000  Uiso   1.00
O1257  O     0.73098   0.83134   0.81439   0.00000  Uiso   1.00
O1258  O     0.93569   0.83533   0.68561   0.00000  Uiso   1.00
Zn1259 Zn    0.93700   0.83954   0.75540   0.00000  Uiso   1.00
Zn1260 Zn    0.72967   0.82713   0.74461   0.00000  Uiso   1.00
loop_
_geom_bond_atom_site_label_1
_geom_bond_atom_site_label_2
_geom_bond_distance
_geom_bond_site_symmetry_2
_ccdc_geom_bond_type
C1     C34     1.399   .     S
C1     O63     1.289   .     A
C1     O201    1.273   1_455 S
C2     C4      1.457   .     S
C2     O68     1.301   .     A
C2     O136    1.287   .     S
C3     C9      1.388   .     A
C3     C7      1.413   .     A
C3     C36     1.457   .     S
C4     C8      1.413   .     A
C4     C10     1.388   .     A
C5     C14     1.399   .     A
C5     H43     1.086   .     S
C5     C7      1.395   .     A
C6     H44     1.086   .     S
C6     C15     1.399   .     A
C6     C8      1.395   .     A
C7     C165    1.478   1_455 S
C8     C88     1.478   .     S
C9     C11     1.398   .     A
C9     H53     1.076   .     S
C10    C13     1.398   .     A
C10    H52     1.076   .     S
C11    C16     1.420   .     A
C11    C14     1.417   .     A
C12    C35     1.399   .     S
C12    O64     1.289   .     A
C12    O132    1.273   .     S
C13    C17     1.421   .     A
C13    C15     1.417   .     A
C14    C662    1.386   .     S
C15    C663    1.386   1_554 S
C16    C31     1.417   .     A
C16    C647    1.422   .     S
C17    C23     1.417   .     A
C17    C646    1.422   1_554 S
C18    C19     1.403   .     A
C18    C24     1.405   .     A
C18    C148    1.478   1_455 S
C19    C20     1.398   .     A
C19    H54     1.081   .     S
C20    H55     1.082   .     S
C20    C21     1.398   .     A
C21    C442    1.398   1_545 S
C21    H476    1.082   1_545 S
C22    H57     1.083   .     S
C22    C231    1.398   .     S
C22    C234    1.398   .     S
C23    C32     1.383   .     A
C23    H45     1.075   .     S
C24    C442    1.398   1_545 S
C24    H198    1.083   1_455 S
C25    C30     1.402   .     A
C25    C26     1.405   .     A
C25    C77     1.478   .     S
C26    C27     1.398   .     A
C26    H108    1.083   .     S
C27    C28     1.398   .     A
C27    H249    1.083   .     S
C28    C29     1.398   .     A
C28    H250    1.083   .     S
C29    C30     1.399   .     A
C29    H41     1.082   .     S
C30    H42     1.081   .     S
C31    C33     1.383   .     A
C31    H46     1.076   .     S
C32    H37     1.082   .     S
C32    C644    1.386   1_554 S
C33    H48     1.082   .     S
C33    C645    1.386   .     S
C34    C385    1.340   1_455 S
C34    H257    1.088   .     S
C35    C524    1.340   1_545 S
C35    H469    1.088   1_545 S
C36    O67     1.301   .     A
C36    O205    1.287   1_455 S
H38    C166    1.083   1_455 S
H39    C447    1.083   1_545 S
H40    C448    1.083   1_545 S
H47    C454    1.088   1_545 S
H49    C245    1.088   .     S
H50    N59     1.028   .     S
H51    N60     1.028   .     S
H56    C231    1.082   .     S
H58    C94     1.083   .     S
N59    N60     1.291   .     D
N59    Zn70    2.016   .     S
N60    Zn69    2.016   .     S
O61    Zn69    1.942   .     S
O61    C71     1.273   .     S
O62    Zn70    1.942   .     S
O62    C152    1.273   1_455 S
O63    Zn70    1.973   .     S
O64    Zn69    1.973   .     S
O65    Zn69    1.952   .     S
O65    C106    1.287   .     S
O66    Zn70    1.952   .     S
O66    C142    1.287   1_455 S
O67    Zn70    1.894   .     S
O68    Zn69    1.894   .     S
C71    C104    1.399   .     S
C71    O133    1.289   .     A
C72    C74     1.457   .     S
C72    O138    1.301   .     A
C72    O206    1.287   .     S
C73    C79     1.388   .     A
C73    C77     1.413   .     A
C73    C106    1.457   .     S
C74    C78     1.413   .     A
C74    C80     1.388   .     A
C75    C84     1.399   .     A
C75    H113    1.086   .     S
C75    C77     1.395   .     A
C76    H114    1.086   .     S
C76    C85     1.399   .     A
C76    C78     1.395   .     A
C78    C158    1.478   .     S
C79    C81     1.398   .     A
C79    H123    1.076   .     S
C80    C83     1.398   .     A
C80    H122    1.076   .     S
C81    C86     1.420   .     A
C81    C84     1.417   .     A
C82    C105    1.399   .     S
C82    O134    1.289   .     A
C82    O202    1.273   .     S
C83    C87     1.421   .     A
C83    C85     1.417   .     A
C84    C732    1.386   .     S
C85    C733    1.386   1_554 S
C86    C101    1.417   .     A
C86    C717    1.422   .     S
C87    C93     1.417   .     A
C87    C716    1.422   1_554 S
C88    C89     1.403   .     A
C88    C94     1.405   .     A
C89    C90     1.398   .     A
C89    H124    1.081   .     S
C90    H125    1.082   .     S
C90    C91     1.398   .     A
C91    C512    1.398   1_545 S
C91    H546    1.082   1_545 S
C92    H127    1.083   .     S
C92    C301    1.398   .     S
C92    C304    1.398   .     S
C93    C102    1.383   .     A
C93    H115    1.075   .     S
C94    C512    1.398   1_545 S
C95    C100    1.402   .     A
C95    C96     1.405   .     A
C95    C147    1.478   .     S
C96    C97     1.398   .     A
C96    H178    1.083   .     S
C97    C98     1.398   .     A
C97    H319    1.083   .     S
C98    C99     1.398   .     A
C98    H320    1.083   .     S
C99    C100    1.399   .     A
C99    H111    1.082   .     S
C100   H112    1.081   .     S
C101   C103    1.383   .     A
C101   H116    1.076   .     S
C102   H107    1.082   .     S
C102   C714    1.386   1_554 S
C103   H118    1.082   .     S
C103   C715    1.386   .     S
C104   C245    1.340   .     S
C104   H327    1.088   .     S
C105   C594    1.340   1_545 S
C105   H539    1.088   1_545 S
C106   O137    1.301   .     A
H109   C517    1.083   1_545 S
H110   C518    1.083   1_545 S
H117   C524    1.088   1_545 S
H119   C315    1.088   .     S
H120   N129    1.028   .     S
H121   N130    1.028   .     S
H126   C301    1.082   .     S
H128   C164    1.083   .     S
N129   N130    1.291   .     D
N129   Zn140   2.016   .     S
N130   Zn139   2.016   .     S
O131   Zn139   1.942   .     S
O131   C141    1.273   .     S
O132   Zn140   1.942   .     S
O133   Zn140   1.973   .     S
O134   Zn139   1.973   .     S
O135   Zn139   1.952   .     S
O135   C176    1.287   .     S
O136   Zn140   1.952   .     S
O137   Zn140   1.894   .     S
O138   Zn139   1.894   .     S
C141   C174    1.399   .     S
C141   O203    1.289   .     A
C142   C144    1.457   .     S
C142   O208    1.301   .     A
C142   O66     1.287   1_655 S
C143   C149    1.388   .     A
C143   C147    1.413   .     A
C143   C176    1.457   .     S
C144   C148    1.413   .     A
C144   C150    1.388   .     A
C145   C154    1.399   .     A
C145   H183    1.086   .     S
C145   C147    1.395   .     A
C146   H184    1.086   .     S
C146   C155    1.399   .     A
C146   C148    1.395   .     A
C148   C18     1.478   1_655 S
C149   C151    1.398   .     A
C149   H193    1.076   .     S
C150   C153    1.398   .     A
C150   H192    1.076   .     S
C151   C156    1.420   .     A
C151   C154    1.417   .     A
C152   C175    1.399   .     S
C152   O204    1.289   .     A
C152   O62     1.273   1_655 S
C153   C157    1.421   .     A
C153   C155    1.417   .     A
C154   C802    1.386   .     S
C155   C803    1.386   1_554 S
C156   C171    1.417   .     A
C156   C787    1.422   .     S
C157   C163    1.417   .     A
C157   C786    1.422   1_554 S
C158   C159    1.403   .     A
C158   C164    1.405   .     A
C159   C160    1.398   .     A
C159   H194    1.081   .     S
C160   H195    1.082   .     S
C160   C161    1.398   .     A
C161   C582    1.398   1_545 S
C161   H616    1.082   1_545 S
C162   H197    1.083   .     S
C162   C371    1.398   .     S
C162   C374    1.398   .     S
C163   C172    1.383   .     A
C163   H185    1.075   .     S
C164   C582    1.398   1_545 S
C165   C170    1.402   .     A
C165   C166    1.405   .     A
C165   C7      1.478   1_655 S
C166   C167    1.398   .     A
C166   H38     1.083   1_655 S
C167   C168    1.398   .     A
C167   H389    1.083   .     S
C168   C169    1.398   .     A
C168   H390    1.083   .     S
C169   C170    1.399   .     A
C169   H181    1.082   .     S
C170   H182    1.081   .     S
C171   C173    1.383   .     A
C171   H186    1.076   .     S
C172   H177    1.082   .     S
C172   C784    1.386   1_554 S
C173   H188    1.082   .     S
C173   C785    1.386   .     S
C174   C315    1.340   .     S
C174   H397    1.088   .     S
C175   C454    1.340   1_645 S
C175   H609    1.088   1_545 S
C176   O207    1.301   .     A
H179   C587    1.083   1_545 S
H180   C588    1.083   1_545 S
H187   C594    1.088   1_545 S
H189   C385    1.088   .     S
H190   N199    1.028   .     S
H191   N200    1.028   .     S
H196   C371    1.082   .     S
H198   C24     1.083   1_655 S
N199   N200    1.291   .     D
N199   Zn210   2.016   .     S
N200   Zn209   2.016   .     S
O201   Zn209   1.942   .     S
O201   C1      1.273   1_655 S
O202   Zn210   1.942   .     S
O203   Zn210   1.973   .     S
O204   Zn209   1.973   .     S
O205   Zn209   1.952   .     S
O205   C36     1.287   1_655 S
O206   Zn210   1.952   .     S
O207   Zn210   1.894   .     S
O208   Zn209   1.894   .     S
C211   C244    1.399   .     S
C211   O273    1.289   .     A
C211   O411    1.273   1_455 S
C212   C214    1.457   .     S
C212   O278    1.301   .     A
C212   O346    1.287   .     S
C213   C219    1.388   .     A
C213   C217    1.413   .     A
C213   C246    1.457   .     S
C214   C218    1.413   .     A
C214   C220    1.388   .     A
C215   C224    1.399   .     A
C215   H253    1.086   .     S
C215   C217    1.395   .     A
C216   H254    1.086   .     S
C216   C225    1.399   .     A
C216   C218    1.395   .     A
C217   C375    1.478   1_455 S
C218   C298    1.478   .     S
C219   C221    1.398   .     A
C219   H263    1.076   .     S
C220   C223    1.398   .     A
C220   H262    1.076   .     S
C221   C226    1.420   .     A
C221   C224    1.417   .     A
C222   C245    1.399   .     S
C222   O274    1.289   .     A
C222   O342    1.273   .     S
C223   C227    1.421   .     A
C223   C225    1.417   .     A
C224   C872    1.386   .     S
C225   C873    1.386   1_554 S
C226   C241    1.417   .     A
C226   C857    1.422   .     S
C227   C233    1.417   .     A
C227   C856    1.422   1_554 S
C228   C229    1.403   .     A
C228   C234    1.405   .     A
C228   C358    1.478   1_455 S
C229   C230    1.398   .     A
C229   H264    1.081   .     S
C230   H265    1.082   .     S
C230   C231    1.398   .     A
C232   H267    1.083   .     S
C232   C441    1.398   .     S
C232   C444    1.398   .     S
C233   C242    1.383   .     A
C233   H255    1.075   .     S
C234   H408    1.083   1_455 S
C235   C240    1.402   .     A
C235   C236    1.405   .     A
C235   C287    1.478   .     S
C236   C237    1.398   .     A
C236   H318    1.083   .     S
C237   C238    1.398   .     A
C237   H459    1.083   .     S
C238   C239    1.398   .     A
C238   H460    1.083   .     S
C239   C240    1.399   .     A
C239   H251    1.082   .     S
C240   H252    1.081   .     S
C241   C243    1.383   .     A
C241   H256    1.076   .     S
C242   H247    1.082   .     S
C242   C854    1.386   1_554 S
C243   H258    1.082   .     S
C243   C855    1.386   .     S
C244   C595    1.340   1_455 S
C244   H467    1.088   .     S
C246   O277    1.301   .     A
C246   O415    1.287   1_455 S
H248   C376    1.083   1_455 S
H259   C455    1.088   .     S
H260   N269    1.028   .     S
H261   N270    1.028   .     S
H266   C441    1.082   .     S
H268   C304    1.083   .     S
N269   N270    1.291   .     D
N269   Zn280   2.016   .     S
N270   Zn279   2.016   .     S
O271   Zn279   1.942   .     S
O271   C281    1.273   .     S
O272   Zn280   1.942   .     S
O272   C362    1.273   1_455 S
O273   Zn280   1.973   .     S
O274   Zn279   1.973   .     S
O275   Zn279   1.952   .     S
O275   C316    1.287   .     S
O276   Zn280   1.952   .     S
O276   C352    1.287   1_455 S
O277   Zn280   1.894   .     S
O278   Zn279   1.894   .     S
C281   C314    1.399   .     S
C281   O343    1.289   .     A
C282   C284    1.457   .     S
C282   O348    1.301   .     A
C282   O416    1.287   .     S
C283   C289    1.388   .     A
C283   C287    1.413   .     A
C283   C316    1.457   .     S
C284   C288    1.413   .     A
C284   C290    1.388   .     A
C285   C294    1.399   .     A
C285   H323    1.086   .     S
C285   C287    1.395   .     A
C286   H324    1.086   .     S
C286   C295    1.399   .     A
C286   C288    1.395   .     A
C288   C368    1.478   .     S
C289   C291    1.398   .     A
C289   H333    1.076   .     S
C290   C293    1.398   .     A
C290   H332    1.076   .     S
C291   C296    1.420   .     A
C291   C294    1.417   .     A
C292   C315    1.399   .     S
C292   O344    1.289   .     A
C292   O412    1.273   .     S
C293   C297    1.421   .     A
C293   C295    1.417   .     A
C294   C942    1.386   .     S
C295   C943    1.386   1_554 S
C296   C311    1.417   .     A
C296   C927    1.422   .     S
C297   C303    1.417   .     A
C297   C926    1.422   1_554 S
C298   C299    1.403   .     A
C298   C304    1.405   .     A
C299   C300    1.398   .     A
C299   H334    1.081   .     S
C300   H335    1.082   .     S
C300   C301    1.398   .     A
C302   H337    1.083   .     S
C302   C511    1.398   .     S
C302   C514    1.398   .     S
C303   C312    1.383   .     A
C303   H325    1.075   .     S
C305   C310    1.402   .     A
C305   C306    1.405   .     A
C305   C357    1.478   .     S
C306   C307    1.398   .     A
C306   H388    1.083   .     S
C307   C308    1.398   .     A
C307   H529    1.083   .     S
C308   C309    1.398   .     A
C308   H530    1.083   .     S
C309   C310    1.399   .     A
C309   H321    1.082   .     S
C310   H322    1.081   .     S
C311   C313    1.383   .     A
C311   H326    1.076   .     S
C312   H317    1.082   .     S
C312   C924    1.386   1_554 S
C313   H328    1.082   .     S
C313   C925    1.386   .     S
C314   C455    1.340   .     S
C314   H537    1.088   .     S
C316   O347    1.301   .     A
H329   C525    1.088   .     S
H330   N339    1.028   .     S
H331   N340    1.028   .     S
H336   C511    1.082   .     S
H338   C374    1.083   .     S
N339   N340    1.291   .     D
N339   Zn350   2.016   .     S
N340   Zn349   2.016   .     S
O341   Zn349   1.942   .     S
O341   C351    1.273   .     S
O342   Zn350   1.942   .     S
O343   Zn350   1.973   .     S
O344   Zn349   1.973   .     S
O345   Zn349   1.952   .     S
O345   C386    1.287   .     S
O346   Zn350   1.952   .     S
O347   Zn350   1.894   .     S
O348   Zn349   1.894   .     S
C351   C384    1.399   .     S
C351   O413    1.289   .     A
C352   C354    1.457   .     S
C352   O418    1.301   .     A
C352   O276    1.287   1_655 S
C353   C359    1.388   .     A
C353   C357    1.413   .     A
C353   C386    1.457   .     S
C354   C358    1.413   .     A
C354   C360    1.388   .     A
C355   C364    1.399   .     A
C355   H393    1.086   .     S
C355   C357    1.395   .     A
C356   H394    1.086   .     S
C356   C365    1.399   .     A
C356   C358    1.395   .     A
C358   C228    1.478   1_655 S
C359   C361    1.398   .     A
C359   H403    1.076   .     S
C360   C363    1.398   .     A
C360   H402    1.076   .     S
C361   C366    1.420   .     A
C361   C364    1.417   .     A
C362   C385    1.399   .     S
C362   O414    1.289   .     A
C362   O272    1.273   1_655 S
C363   C367    1.421   .     A
C363   C365    1.417   .     A
C364   C1012   1.386   .     S
C365   C1013   1.386   1_554 S
C366   C381    1.417   .     A
C366   C997    1.422   .     S
C367   C373    1.417   .     A
C367   C996    1.422   1_554 S
C368   C369    1.403   .     A
C368   C374    1.405   .     A
C369   C370    1.398   .     A
C369   H404    1.081   .     S
C370   H405    1.082   .     S
C370   C371    1.398   .     A
C372   H407    1.083   .     S
C372   C581    1.398   .     S
C372   C584    1.398   .     S
C373   C382    1.383   .     A
C373   H395    1.075   .     S
C375   C380    1.402   .     A
C375   C376    1.405   .     A
C375   C217    1.478   1_655 S
C376   C377    1.398   .     A
C376   H248    1.083   1_655 S
C377   C378    1.398   .     A
C377   H599    1.083   .     S
C378   C379    1.398   .     A
C378   H600    1.083   .     S
C379   C380    1.399   .     A
C379   H391    1.082   .     S
C380   H392    1.081   .     S
C381   C383    1.383   .     A
C381   H396    1.076   .     S
C382   H387    1.082   .     S
C382   C994    1.386   1_554 S
C383   H398    1.082   .     S
C383   C995    1.386   .     S
C384   C525    1.340   .     S
C384   H607    1.088   .     S
C385   C34     1.340   1_655 S
C386   O417    1.301   .     A
H399   C595    1.088   .     S
H400   N409    1.028   .     S
H401   N410    1.028   .     S
H406   C581    1.082   .     S
H408   C234    1.083   1_655 S
N409   N410    1.291   .     D
N409   Zn420   2.016   .     S
N410   Zn419   2.016   .     S
O411   Zn419   1.942   .     S
O411   C211    1.273   1_655 S
O412   Zn420   1.942   .     S
O413   Zn420   1.973   .     S
O414   Zn419   1.973   .     S
O415   Zn419   1.952   .     S
O415   C246    1.287   1_655 S
O416   Zn420   1.952   .     S
O417   Zn420   1.894   .     S
O418   Zn419   1.894   .     S
C421   C454    1.399   .     S
C421   O483    1.289   .     A
C421   O621    1.273   1_455 S
C422   C424    1.457   .     S
C422   O488    1.301   .     A
C422   O556    1.287   .     S
C423   C429    1.388   .     A
C423   C427    1.413   .     A
C423   C456    1.457   .     S
C424   C428    1.413   .     A
C424   C430    1.388   .     A
C425   C434    1.399   .     A
C425   H463    1.086   .     S
C425   C427    1.395   .     A
C426   H464    1.086   .     S
C426   C435    1.399   .     A
C426   C428    1.395   .     A
C427   C585    1.478   1_455 S
C428   C508    1.478   .     S
C429   C431    1.398   .     A
C429   H473    1.076   .     S
C430   C433    1.398   .     A
C430   H472    1.076   .     S
C431   C436    1.420   .     A
C431   C434    1.417   .     A
C432   C455    1.399   .     S
C432   O484    1.289   .     A
C432   O552    1.273   .     S
C433   C437    1.421   .     A
C433   C435    1.417   .     A
C434   C1082   1.386   .     S
C435   C1083   1.386   1_554 S
C436   C451    1.417   .     A
C436   C1067   1.422   .     S
C437   C443    1.417   .     A
C437   C1066   1.422   1_554 S
C438   C439    1.403   .     A
C438   C444    1.405   .     A
C438   C568    1.478   1_455 S
C439   C440    1.398   .     A
C439   H474    1.081   .     S
C440   H475    1.082   .     S
C440   C441    1.398   .     A
C442   H477    1.083   .     S
C442   C21     1.398   1_565 S
C442   C24     1.398   1_565 S
C443   C452    1.383   .     A
C443   H465    1.075   .     S
C444   H618    1.083   1_455 S
C445   C450    1.402   .     A
C445   C446    1.405   .     A
C445   C497    1.478   .     S
C446   C447    1.398   .     A
C446   H528    1.083   .     S
C447   C448    1.398   .     A
C447   H39     1.083   1_565 S
C448   C449    1.398   .     A
C448   H40     1.083   1_565 S
C449   C450    1.399   .     A
C449   H461    1.082   .     S
C450   H462    1.081   .     S
C451   C453    1.383   .     A
C451   H466    1.076   .     S
C452   H457    1.082   .     S
C452   C1064   1.386   1_554 S
C453   H468    1.082   .     S
C453   C1065   1.386   .     S
C454   C175    1.340   1_465 S
C454   H47     1.088   1_565 S
C456   O487    1.301   .     A
C456   O625    1.287   1_455 S
H458   C586    1.083   1_455 S
H469   C35     1.088   1_565 S
H470   N479    1.028   .     S
H471   N480    1.028   .     S
H476   C21     1.082   1_565 S
H478   C514    1.083   .     S
N479   N480    1.291   .     D
N479   Zn490   2.016   .     S
N480   Zn489   2.016   .     S
O481   Zn489   1.942   .     S
O481   C491    1.273   .     S
O482   Zn490   1.942   .     S
O482   C572    1.273   1_455 S
O483   Zn490   1.973   .     S
O484   Zn489   1.973   .     S
O485   Zn489   1.952   .     S
O485   C526    1.287   .     S
O486   Zn490   1.952   .     S
O486   C562    1.287   1_455 S
O487   Zn490   1.894   .     S
O488   Zn489   1.894   .     S
C491   C524    1.399   .     S
C491   O553    1.289   .     A
C492   C494    1.457   .     S
C492   O558    1.301   .     A
C492   O626    1.287   .     S
C493   C499    1.388   .     A
C493   C497    1.413   .     A
C493   C526    1.457   .     S
C494   C498    1.413   .     A
C494   C500    1.388   .     A
C495   C504    1.399   .     A
C495   H533    1.086   .     S
C495   C497    1.395   .     A
C496   H534    1.086   .     S
C496   C505    1.399   .     A
C496   C498    1.395   .     A
C498   C578    1.478   .     S
C499   C501    1.398   .     A
C499   H543    1.076   .     S
C500   C503    1.398   .     A
C500   H542    1.076   .     S
C501   C506    1.420   .     A
C501   C504    1.417   .     A
C502   C525    1.399   .     S
C502   O554    1.289   .     A
C502   O622    1.273   .     S
C503   C507    1.421   .     A
C503   C505    1.417   .     A
C504   C1152   1.386   .     S
C505   C1153   1.386   1_554 S
C506   C521    1.417   .     A
C506   C1137   1.422   .     S
C507   C513    1.417   .     A
C507   C1136   1.422   1_554 S
C508   C509    1.403   .     A
C508   C514    1.405   .     A
C509   C510    1.398   .     A
C509   H544    1.081   .     S
C510   H545    1.082   .     S
C510   C511    1.398   .     A
C512   H547    1.083   .     S
C512   C91     1.398   1_565 S
C512   C94     1.398   1_565 S
C513   C522    1.383   .     A
C513   H535    1.075   .     S
C515   C520    1.402   .     A
C515   C516    1.405   .     A
C515   C567    1.478   .     S
C516   C517    1.398   .     A
C516   H598    1.083   .     S
C517   C518    1.398   .     A
C517   H109    1.083   1_565 S
C518   C519    1.398   .     A
C518   H110    1.083   1_565 S
C519   C520    1.399   .     A
C519   H531    1.082   .     S
C520   H532    1.081   .     S
C521   C523    1.383   .     A
C521   H536    1.076   .     S
C522   H527    1.082   .     S
C522   C1134   1.386   1_554 S
C523   H538    1.082   .     S
C523   C1135   1.386   .     S
C524   C35     1.340   1_565 S
C524   H117    1.088   1_565 S
C526   O557    1.301   .     A
H539   C105    1.088   1_565 S
H540   N549    1.028   .     S
H541   N550    1.028   .     S
H546   C91     1.082   1_565 S
H548   C584    1.083   .     S
N549   N550    1.291   .     D
N549   Zn560   2.016   .     S
N550   Zn559   2.016   .     S
O551   Zn559   1.942   .     S
O551   C561    1.273   .     S
O552   Zn560   1.942   .     S
O553   Zn560   1.973   .     S
O554   Zn559   1.973   .     S
O555   Zn559   1.952   .     S
O555   C596    1.287   .     S
O556   Zn560   1.952   .     S
O557   Zn560   1.894   .     S
O558   Zn559   1.894   .     S
C561   C594    1.399   .     S
C561   O623    1.289   .     A
C562   C564    1.457   .     S
C562   O628    1.301   .     A
C562   O486    1.287   1_655 S
C563   C569    1.388   .     A
C563   C567    1.413   .     A
C563   C596    1.457   .     S
C564   C568    1.413   .     A
C564   C570    1.388   .     A
C565   C574    1.399   .     A
C565   H603    1.086   .     S
C565   C567    1.395   .     A
C566   H604    1.086   .     S
C566   C575    1.399   .     A
C566   C568    1.395   .     A
C568   C438    1.478   1_655 S
C569   C571    1.398   .     A
C569   H613    1.076   .     S
C570   C573    1.398   .     A
C570   H612    1.076   .     S
C571   C576    1.420   .     A
C571   C574    1.417   .     A
C572   C595    1.399   .     S
C572   O624    1.289   .     A
C572   O482    1.273   1_655 S
C573   C577    1.421   .     A
C573   C575    1.417   .     A
C574   C1222   1.386   .     S
C575   C1223   1.386   1_554 S
C576   C591    1.417   .     A
C576   C1207   1.422   .     S
C577   C583    1.417   .     A
C577   C1206   1.422   1_554 S
C578   C579    1.403   .     A
C578   C584    1.405   .     A
C579   C580    1.398   .     A
C579   H614    1.081   .     S
C580   H615    1.082   .     S
C580   C581    1.398   .     A
C582   H617    1.083   .     S
C582   C161    1.398   1_565 S
C582   C164    1.398   1_565 S
C583   C592    1.383   .     A
C583   H605    1.075   .     S
C585   C590    1.402   .     A
C585   C586    1.405   .     A
C585   C427    1.478   1_655 S
C586   C587    1.398   .     A
C586   H458    1.083   1_655 S
C587   C588    1.398   .     A
C587   H179    1.083   1_565 S
C588   C589    1.398   .     A
C588   H180    1.083   1_565 S
C589   C590    1.399   .     A
C589   H601    1.082   .     S
C590   H602    1.081   .     S
C591   C593    1.383   .     A
C591   H606    1.076   .     S
C592   H597    1.082   .     S
C592   C1204   1.386   1_554 S
C593   H608    1.082   .     S
C593   C1205   1.386   .     S
C594   C105    1.340   1_565 S
C594   H187    1.088   1_565 S
C595   C244    1.340   1_655 S
C596   O627    1.301   .     A
H609   C175    1.088   1_565 S
H610   N619    1.028   .     S
H611   N620    1.028   .     S
H616   C161    1.082   1_565 S
H618   C444    1.083   1_655 S
N619   N620    1.291   .     D
N619   Zn630   2.016   .     S
N620   Zn629   2.016   .     S
O621   Zn629   1.942   .     S
O621   C421    1.273   1_655 S
O622   Zn630   1.942   .     S
O623   Zn630   1.973   .     S
O624   Zn629   1.973   .     S
O625   Zn629   1.952   .     S
O625   C456    1.287   1_655 S
O626   Zn630   1.952   .     S
O627   Zn630   1.894   .     S
O628   Zn629   1.894   .     S
C631   C664    1.399   .     S
C631   O693    1.289   .     A
C631   O831    1.273   1_455 S
C632   C634    1.457   .     S
C632   O698    1.301   .     A
C632   O766    1.287   .     S
C633   C639    1.388   .     A
C633   C637    1.413   .     A
C633   C666    1.457   .     S
C634   C638    1.413   .     A
C634   C640    1.388   .     A
C635   C644    1.399   .     A
C635   H673    1.086   .     S
C635   C637    1.395   .     A
C636   H674    1.086   .     S
C636   C645    1.399   .     A
C636   C638    1.395   .     A
C637   C795    1.478   1_455 S
C638   C718    1.478   .     S
C639   C641    1.398   .     A
C639   H683    1.076   .     S
C640   C643    1.398   .     A
C640   H682    1.076   .     S
C641   C646    1.420   .     A
C641   C644    1.417   .     A
C642   C665    1.399   .     S
C642   O694    1.289   .     A
C642   O762    1.273   .     S
C643   C647    1.421   .     A
C643   C645    1.417   .     A
C644   C32     1.386   1_556 S
C646   C661    1.417   .     A
C646   C17     1.422   1_556 S
C647   C653    1.417   .     A
C648   C649    1.403   .     A
C648   C654    1.405   .     A
C648   C778    1.478   1_455 S
C649   C650    1.398   .     A
C649   H684    1.081   .     S
C650   H685    1.082   .     S
C650   C651    1.398   .     A
C651   C1072   1.398   1_545 S
C651   H1106   1.082   1_545 S
C652   H687    1.083   .     S
C652   C861    1.398   .     S
C652   C864    1.398   .     S
C653   C662    1.383   .     A
C653   H675    1.075   .     S
C654   C1072   1.398   1_545 S
C654   H828    1.083   1_455 S
C655   C660    1.402   .     A
C655   C656    1.405   .     A
C655   C707    1.478   .     S
C656   C657    1.398   .     A
C656   H738    1.083   .     S
C657   C658    1.398   .     A
C657   H879    1.083   .     S
C658   C659    1.398   .     A
C658   H880    1.083   .     S
C659   C660    1.399   .     A
C659   H671    1.082   .     S
C660   H672    1.081   .     S
C661   C663    1.383   .     A
C661   H676    1.076   .     S
C662   H667    1.082   .     S
C663   H678    1.082   .     S
C663   C15     1.386   1_556 S
C664   C1015   1.340   1_455 S
C664   H887    1.088   .     S
C665   C1154   1.340   1_545 S
C665   H1099   1.088   1_545 S
C666   O697    1.301   .     A
C666   O835    1.287   1_455 S
H668   C796    1.083   1_455 S
H669   C1077   1.083   1_545 S
H670   C1078   1.083   1_545 S
H677   C1084   1.088   1_545 S
H679   C875    1.088   .     S
H680   N689    1.028   .     S
H681   N690    1.028   .     S
H686   C861    1.082   .     S
H688   C724    1.083   .     S
N689   N690    1.291   .     D
N689   Zn700   2.016   .     S
N690   Zn699   2.016   .     S
O691   Zn699   1.942   .     S
O691   C701    1.273   .     S
O692   Zn700   1.942   .     S
O692   C782    1.273   1_455 S
O693   Zn700   1.973   .     S
O694   Zn699   1.973   .     S
O695   Zn699   1.952   .     S
O695   C736    1.287   .     S
O696   Zn700   1.952   .     S
O696   C772    1.287   1_455 S
O697   Zn700   1.894   .     S
O698   Zn699   1.894   .     S
C701   C734    1.399   .     S
C701   O763    1.289   .     A
C702   C704    1.457   .     S
C702   O768    1.301   .     A
C702   O836    1.287   .     S
C703   C709    1.388   .     A
C703   C707    1.413   .     A
C703   C736    1.457   .     S
C704   C708    1.413   .     A
C704   C710    1.388   .     A
C705   C714    1.399   .     A
C705   H743    1.086   .     S
C705   C707    1.395   .     A
C706   H744    1.086   .     S
C706   C715    1.399   .     A
C706   C708    1.395   .     A
C708   C788    1.478   .     S
C709   C711    1.398   .     A
C709   H753    1.076   .     S
C710   C713    1.398   .     A
C710   H752    1.076   .     S
C711   C716    1.420   .     A
C711   C714    1.417   .     A
C712   C735    1.399   .     S
C712   O764    1.289   .     A
C712   O832    1.273   .     S
C713   C717    1.421   .     A
C713   C715    1.417   .     A
C714   C102    1.386   1_556 S
C716   C731    1.417   .     A
C716   C87     1.422   1_556 S
C717   C723    1.417   .     A
C718   C719    1.403   .     A
C718   C724    1.405   .     A
C719   C720    1.398   .     A
C719   H754    1.081   .     S
C720   H755    1.082   .     S
C720   C721    1.398   .     A
C721   C1142   1.398   1_545 S
C721   H1176   1.082   1_545 S
C722   H757    1.083   .     S
C722   C931    1.398   .     S
C722   C934    1.398   .     S
C723   C732    1.383   .     A
C723   H745    1.075   .     S
C724   C1142   1.398   1_545 S
C725   C730    1.402   .     A
C725   C726    1.405   .     A
C725   C777    1.478   .     S
C726   C727    1.398   .     A
C726   H808    1.083   .     S
C727   C728    1.398   .     A
C727   H949    1.083   .     S
C728   C729    1.398   .     A
C728   H950    1.083   .     S
C729   C730    1.399   .     A
C729   H741    1.082   .     S
C730   H742    1.081   .     S
C731   C733    1.383   .     A
C731   H746    1.076   .     S
C732   H737    1.082   .     S
C733   H748    1.082   .     S
C733   C85     1.386   1_556 S
C734   C875    1.340   .     S
C734   H957    1.088   .     S
C735   C1224   1.340   1_545 S
C735   H1169   1.088   1_545 S
C736   O767    1.301   .     A
H739   C1147   1.083   1_545 S
H740   C1148   1.083   1_545 S
H747   C1154   1.088   1_545 S
H749   C945    1.088   .     S
H750   N759    1.028   .     S
H751   N760    1.028   .     S
H756   C931    1.082   .     S
H758   C794    1.083   .     S
N759   N760    1.291   .     D
N759   Zn770   2.016   .     S
N760   Zn769   2.016   .     S
O761   Zn769   1.942   .     S
O761   C771    1.273   .     S
O762   Zn770   1.942   .     S
O763   Zn770   1.973   .     S
O764   Zn769   1.973   .     S
O765   Zn769   1.952   .     S
O765   C806    1.287   .     S
O766   Zn770   1.952   .     S
O767   Zn770   1.894   .     S
O768   Zn769   1.894   .     S
C771   C804    1.399   .     S
C771   O833    1.289   .     A
C772   C774    1.457   .     S
C772   O838    1.301   .     A
C772   O696    1.287   1_655 S
C773   C779    1.388   .     A
C773   C777    1.413   .     A
C773   C806    1.457   .     S
C774   C778    1.413   .     A
C774   C780    1.388   .     A
C775   C784    1.399   .     A
C775   H813    1.086   .     S
C775   C777    1.395   .     A
C776   H814    1.086   .     S
C776   C785    1.399   .     A
C776   C778    1.395   .     A
C778   C648    1.478   1_655 S
C779   C781    1.398   .     A
C779   H823    1.076   .     S
C780   C783    1.398   .     A
C780   H822    1.076   .     S
C781   C786    1.420   .     A
C781   C784    1.417   .     A
C782   C805    1.399   .     S
C782   O834    1.289   .     A
C782   O692    1.273   1_655 S
C783   C787    1.421   .     A
C783   C785    1.417   .     A
C784   C172    1.386   1_556 S
C786   C801    1.417   .     A
C786   C157    1.422   1_556 S
C787   C793    1.417   .     A
C788   C789    1.403   .     A
C788   C794    1.405   .     A
C789   C790    1.398   .     A
C789   H824    1.081   .     S
C790   H825    1.082   .     S
C790   C791    1.398   .     A
C791   C1212   1.398   1_545 S
C791   H1246   1.082   1_545 S
C792   H827    1.083   .     S
C792   C1001   1.398   .     S
C792   C1004   1.398   .     S
C793   C802    1.383   .     A
C793   H815    1.075   .     S
C794   C1212   1.398   1_545 S
C795   C800    1.402   .     A
C795   C796    1.405   .     A
C795   C637    1.478   1_655 S
C796   C797    1.398   .     A
C796   H668    1.083   1_655 S
C797   C798    1.398   .     A
C797   H1019   1.083   .     S
C798   C799    1.398   .     A
C798   H1020   1.083   .     S
C799   C800    1.399   .     A
C799   H811    1.082   .     S
C800   H812    1.081   .     S
C801   C803    1.383   .     A
C801   H816    1.076   .     S
C802   H807    1.082   .     S
C803   H818    1.082   .     S
C803   C155    1.386   1_556 S
C804   C945    1.340   .     S
C804   H1027   1.088   .     S
C805   C1084   1.340   1_645 S
C805   H1239   1.088   1_545 S
C806   O837    1.301   .     A
H809   C1217   1.083   1_545 S
H810   C1218   1.083   1_545 S
H817   C1224   1.088   1_545 S
H819   C1015   1.088   .     S
H820   N829    1.028   .     S
H821   N830    1.028   .     S
H826   C1001   1.082   .     S
H828   C654    1.083   1_655 S
N829   N830    1.291   .     D
N829   Zn840   2.016   .     S
N830   Zn839   2.016   .     S
O831   Zn839   1.942   .     S
O831   C631    1.273   1_655 S
O832   Zn840   1.942   .     S
O833   Zn840   1.973   .     S
O834   Zn839   1.973   .     S
O835   Zn839   1.952   .     S
O835   C666    1.287   1_655 S
O836   Zn840   1.952   .     S
O837   Zn840   1.894   .     S
O838   Zn839   1.894   .     S
C841   C874    1.399   .     S
C841   O903    1.289   .     A
C841   O1041   1.273   1_455 S
C842   C844    1.457   .     S
C842   O908    1.301   .     A
C842   O976    1.287   .     S
C843   C849    1.388   .     A
C843   C847    1.413   .     A
C843   C876    1.457   .     S
C844   C848    1.413   .     A
C844   C850    1.388   .     A
C845   C854    1.399   .     A
C845   H883    1.086   .     S
C845   C847    1.395   .     A
C846   H884    1.086   .     S
C846   C855    1.399   .     A
C846   C848    1.395   .     A
C847   C1005   1.478   1_455 S
C848   C928    1.478   .     S
C849   C851    1.398   .     A
C849   H893    1.076   .     S
C850   C853    1.398   .     A
C850   H892    1.076   .     S
C851   C856    1.420   .     A
C851   C854    1.417   .     A
C852   C875    1.399   .     S
C852   O904    1.289   .     A
C852   O972    1.273   .     S
C853   C857    1.421   .     A
C853   C855    1.417   .     A
C854   C242    1.386   1_556 S
C856   C871    1.417   .     A
C856   C227    1.422   1_556 S
C857   C863    1.417   .     A
C858   C859    1.403   .     A
C858   C864    1.405   .     A
C858   C988    1.478   1_455 S
C859   C860    1.398   .     A
C859   H894    1.081   .     S
C860   H895    1.082   .     S
C860   C861    1.398   .     A
C862   H897    1.083   .     S
C862   C1071   1.398   .     S
C862   C1074   1.398   .     S
C863   C872    1.383   .     A
C863   H885    1.075   .     S
C864   H1038   1.083   1_455 S
C865   C870    1.402   .     A
C865   C866    1.405   .     A
C865   C917    1.478   .     S
C866   C867    1.398   .     A
C866   H948    1.083   .     S
C867   C868    1.398   .     A
C867   H1089   1.083   .     S
C868   C869    1.398   .     A
C868   H1090   1.083   .     S
C869   C870    1.399   .     A
C869   H881    1.082   .     S
C870   H882    1.081   .     S
C871   C873    1.383   .     A
C871   H886    1.076   .     S
C872   H877    1.082   .     S
C873   H888    1.082   .     S
C873   C225    1.386   1_556 S
C874   C1225   1.340   1_455 S
C874   H1097   1.088   .     S
C876   O907    1.301   .     A
C876   O1045   1.287   1_455 S
H878   C1006   1.083   1_455 S
H889   C1085   1.088   .     S
H890   N899    1.028   .     S
H891   N900    1.028   .     S
H896   C1071   1.082   .     S
H898   C934    1.083   .     S
N899   N900    1.291   .     D
N899   Zn910   2.016   .     S
N900   Zn909   2.016   .     S
O901   Zn909   1.942   .     S
O901   C911    1.273   .     S
O902   Zn910   1.942   .     S
O902   C992    1.273   1_455 S
O903   Zn910   1.973   .     S
O904   Zn909   1.973   .     S
O905   Zn909   1.952   .     S
O905   C946    1.287   .     S
O906   Zn910   1.952   .     S
O906   C982    1.287   1_455 S
O907   Zn910   1.894   .     S
O908   Zn909   1.894   .     S
C911   C944    1.399   .     S
C911   O973    1.289   .     A
C912   C914    1.457   .     S
C912   O978    1.301   .     A
C912   O1046   1.287   .     S
C913   C919    1.388   .     A
C913   C917    1.413   .     A
C913   C946    1.457   .     S
C914   C918    1.413   .     A
C914   C920    1.388   .     A
C915   C924    1.399   .     A
C915   H953    1.086   .     S
C915   C917    1.395   .     A
C916   H954    1.086   .     S
C916   C925    1.399   .     A
C916   C918    1.395   .     A
C918   C998    1.478   .     S
C919   C921    1.398   .     A
C919   H963    1.076   .     S
C920   C923    1.398   .     A
C920   H962    1.076   .     S
C921   C926    1.420   .     A
C921   C924    1.417   .     A
C922   C945    1.399   .     S
C922   O974    1.289   .     A
C922   O1042   1.273   .     S
C923   C927    1.421   .     A
C923   C925    1.417   .     A
C924   C312    1.386   1_556 S
C926   C941    1.417   .     A
C926   C297    1.422   1_556 S
C927   C933    1.417   .     A
C928   C929    1.403   .     A
C928   C934    1.405   .     A
C929   C930    1.398   .     A
C929   H964    1.081   .     S
C930   H965    1.082   .     S
C930   C931    1.398   .     A
C932   H967    1.083   .     S
C932   C1141   1.398   .     S
C932   C1144   1.398   .     S
C933   C942    1.383   .     A
C933   H955    1.075   .     S
C935   C940    1.402   .     A
C935   C936    1.405   .     A
C935   C987    1.478   .     S
C936   C937    1.398   .     A
C936   H1018   1.083   .     S
C937   C938    1.398   .     A
C937   H1159   1.083   .     S
C938   C939    1.398   .     A
C938   H1160   1.083   .     S
C939   C940    1.399   .     A
C939   H951    1.082   .     S
C940   H952    1.081   .     S
C941   C943    1.383   .     A
C941   H956    1.076   .     S
C942   H947    1.082   .     S
C943   H958    1.082   .     S
C943   C295    1.386   1_556 S
C944   C1085   1.340   .     S
C944   H1167   1.088   .     S
C946   O977    1.301   .     A
H959   C1155   1.088   .     S
H960   N969    1.028   .     S
H961   N970    1.028   .     S
H966   C1141   1.082   .     S
H968   C1004   1.083   .     S
N969   N970    1.291   .     D
N969   Zn980   2.016   .     S
N970   Zn979   2.016   .     S
O971   Zn979   1.942   .     S
O971   C981    1.273   .     S
O972   Zn980   1.942   .     S
O973   Zn980   1.973   .     S
O974   Zn979   1.973   .     S
O975   Zn979   1.952   .     S
O975   C1016   1.287   .     S
O976   Zn980   1.952   .     S
O977   Zn980   1.894   .     S
O978   Zn979   1.894   .     S
C981   C1014   1.399   .     S
C981   O1043   1.289   .     A
C982   C984    1.457   .     S
C982   O1048   1.301   .     A
C982   O906    1.287   1_655 S
C983   C989    1.388   .     A
C983   C987    1.413   .     A
C983   C1016   1.457   .     S
C984   C988    1.413   .     A
C984   C990    1.388   .     A
C985   C994    1.399   .     A
C985   H1023   1.086   .     S
C985   C987    1.395   .     A
C986   H1024   1.086   .     S
C986   C995    1.399   .     A
C986   C988    1.395   .     A
C988   C858    1.478   1_655 S
C989   C991    1.398   .     A
C989   H1033   1.076   .     S
C990   C993    1.398   .     A
C990   H1032   1.076   .     S
C991   C996    1.420   .     A
C991   C994    1.417   .     A
C992   C1015   1.399   .     S
C992   O1044   1.289   .     A
C992   O902    1.273   1_655 S
C993   C997    1.421   .     A
C993   C995    1.417   .     A
C994   C382    1.386   1_556 S
C996   C1011   1.417   .     A
C996   C367    1.422   1_556 S
C997   C1003   1.417   .     A
C998   C999    1.403   .     A
C998   C1004   1.405   .     A
C999   C1000   1.398   .     A
C999   H1034   1.081   .     S
C1000  H1035   1.082   .     S
C1000  C1001   1.398   .     A
C1002  H1037   1.083   .     S
C1002  C1211   1.398   .     S
C1002  C1214   1.398   .     S
C1003  C1012   1.383   .     A
C1003  H1025   1.075   .     S
C1005  C1010   1.402   .     A
C1005  C1006   1.405   .     A
C1005  C847    1.478   1_655 S
C1006  C1007   1.398   .     A
C1006  H878    1.083   1_655 S
C1007  C1008   1.398   .     A
C1007  H1229   1.083   .     S
C1008  C1009   1.398   .     A
C1008  H1230   1.083   .     S
C1009  C1010   1.399   .     A
C1009  H1021   1.082   .     S
C1010  H1022   1.081   .     S
C1011  C1013   1.383   .     A
C1011  H1026   1.076   .     S
C1012  H1017   1.082   .     S
C1013  H1028   1.082   .     S
C1013  C365    1.386   1_556 S
C1014  C1155   1.340   .     S
C1014  H1237   1.088   .     S
C1015  C664    1.340   1_655 S
C1016  O1047   1.301   .     A
H1029  C1225   1.088   .     S
H1030  N1039   1.028   .     S
H1031  N1040   1.028   .     S
H1036  C1211   1.082   .     S
H1038  C864    1.083   1_655 S
N1039  N1040   1.291   .     D
N1039  Zn1050  2.016   .     S
N1040  Zn1049  2.016   .     S
O1041  Zn1049  1.942   .     S
O1041  C841    1.273   1_655 S
O1042  Zn1050  1.942   .     S
O1043  Zn1050  1.973   .     S
O1044  Zn1049  1.973   .     S
O1045  Zn1049  1.952   .     S
O1045  C876    1.287   1_655 S
O1046  Zn1050  1.952   .     S
O1047  Zn1050  1.894   .     S
O1048  Zn1049  1.894   .     S
C1051  C1084   1.399   .     S
C1051  O1113   1.289   .     A
C1051  O1251   1.273   1_455 S
C1052  C1054   1.457   .     S
C1052  O1118   1.301   .     A
C1052  O1186   1.287   .     S
C1053  C1059   1.388   .     A
C1053  C1057   1.413   .     A
C1053  C1086   1.457   .     S
C1054  C1058   1.413   .     A
C1054  C1060   1.388   .     A
C1055  C1064   1.399   .     A
C1055  H1093   1.086   .     S
C1055  C1057   1.395   .     A
C1056  H1094   1.086   .     S
C1056  C1065   1.399   .     A
C1056  C1058   1.395   .     A
C1057  C1215   1.478   1_455 S
C1058  C1138   1.478   .     S
C1059  C1061   1.398   .     A
C1059  H1103   1.076   .     S
C1060  C1063   1.398   .     A
C1060  H1102   1.076   .     S
C1061  C1066   1.420   .     A
C1061  C1064   1.417   .     A
C1062  C1085   1.399   .     S
C1062  O1114   1.289   .     A
C1062  O1182   1.273   .     S
C1063  C1067   1.421   .     A
C1063  C1065   1.417   .     A
C1064  C452    1.386   1_556 S
C1066  C1081   1.417   .     A
C1066  C437    1.422   1_556 S
C1067  C1073   1.417   .     A
C1068  C1069   1.403   .     A
C1068  C1074   1.405   .     A
C1068  C1198   1.478   1_455 S
C1069  C1070   1.398   .     A
C1069  H1104   1.081   .     S
C1070  H1105   1.082   .     S
C1070  C1071   1.398   .     A
C1072  H1107   1.083   .     S
C1072  C651    1.398   1_565 S
C1072  C654    1.398   1_565 S
C1073  C1082   1.383   .     A
C1073  H1095   1.075   .     S
C1074  H1248   1.083   1_455 S
C1075  C1080   1.402   .     A
C1075  C1076   1.405   .     A
C1075  C1127   1.478   .     S
C1076  C1077   1.398   .     A
C1076  H1158   1.083   .     S
C1077  C1078   1.398   .     A
C1077  H669    1.083   1_565 S
C1078  C1079   1.398   .     A
C1078  H670    1.083   1_565 S
C1079  C1080   1.399   .     A
C1079  H1091   1.082   .     S
C1080  H1092   1.081   .     S
C1081  C1083   1.383   .     A
C1081  H1096   1.076   .     S
C1082  H1087   1.082   .     S
C1083  H1098   1.082   .     S
C1083  C435    1.386   1_556 S
C1084  C805    1.340   1_465 S
C1084  H677    1.088   1_565 S
C1086  O1117   1.301   .     A
C1086  O1255   1.287   1_455 S
H1088  C1216   1.083   1_455 S
H1099  C665    1.088   1_565 S
H1100  N1109   1.028   .     S
H1101  N1110   1.028   .     S
H1106  C651    1.082   1_565 S
H1108  C1144   1.083   .     S
N1109  N1110   1.291   .     D
N1109  Zn1120  2.016   .     S
N1110  Zn1119  2.016   .     S
O1111  Zn1119  1.942   .     S
O1111  C1121   1.273   .     S
O1112  Zn1120  1.942   .     S
O1112  C1202   1.273   1_455 S
O1113  Zn1120  1.973   .     S
O1114  Zn1119  1.973   .     S
O1115  Zn1119  1.952   .     S
O1115  C1156   1.287   .     S
O1116  Zn1120  1.952   .     S
O1116  C1192   1.287   1_455 S
O1117  Zn1120  1.894   .     S
O1118  Zn1119  1.894   .     S
C1121  C1154   1.399   .     S
C1121  O1183   1.289   .     A
C1122  C1124   1.457   .     S
C1122  O1188   1.301   .     A
C1122  O1256   1.287   .     S
C1123  C1129   1.388   .     A
C1123  C1127   1.413   .     A
C1123  C1156   1.457   .     S
C1124  C1128   1.413   .     A
C1124  C1130   1.388   .     A
C1125  C1134   1.399   .     A
C1125  H1163   1.086   .     S
C1125  C1127   1.395   .     A
C1126  H1164   1.086   .     S
C1126  C1135   1.399   .     A
C1126  C1128   1.395   .     A
C1128  C1208   1.478   .     S
C1129  C1131   1.398   .     A
C1129  H1173   1.076   .     S
C1130  C1133   1.398   .     A
C1130  H1172   1.076   .     S
C1131  C1136   1.420   .     A
C1131  C1134   1.417   .     A
C1132  C1155   1.399   .     S
C1132  O1184   1.289   .     A
C1132  O1252   1.273   .     S
C1133  C1137   1.421   .     A
C1133  C1135   1.417   .     A
C1134  C522    1.386   1_556 S
C1136  C1151   1.417   .     A
C1136  C507    1.422   1_556 S
C1137  C1143   1.417   .     A
C1138  C1139   1.403   .     A
C1138  C1144   1.405   .     A
C1139  C1140   1.398   .     A
C1139  H1174   1.081   .     S
C1140  H1175   1.082   .     S
C1140  C1141   1.398   .     A
C1142  H1177   1.083   .     S
C1142  C721    1.398   1_565 S
C1142  C724    1.398   1_565 S
C1143  C1152   1.383   .     A
C1143  H1165   1.075   .     S
C1145  C1150   1.402   .     A
C1145  C1146   1.405   .     A
C1145  C1197   1.478   .     S
C1146  C1147   1.398   .     A
C1146  H1228   1.083   .     S
C1147  C1148   1.398   .     A
C1147  H739    1.083   1_565 S
C1148  C1149   1.398   .     A
C1148  H740    1.083   1_565 S
C1149  C1150   1.399   .     A
C1149  H1161   1.082   .     S
C1150  H1162   1.081   .     S
C1151  C1153   1.383   .     A
C1151  H1166   1.076   .     S
C1152  H1157   1.082   .     S
C1153  H1168   1.082   .     S
C1153  C505    1.386   1_556 S
C1154  C665    1.340   1_565 S
C1154  H747    1.088   1_565 S
C1156  O1187   1.301   .     A
H1169  C735    1.088   1_565 S
H1170  N1179   1.028   .     S
H1171  N1180   1.028   .     S
H1176  C721    1.082   1_565 S
H1178  C1214   1.083   .     S
N1179  N1180   1.291   .     D
N1179  Zn1190  2.016   .     S
N1180  Zn1189  2.016   .     S
O1181  Zn1189  1.942   .     S
O1181  C1191   1.273   .     S
O1182  Zn1190  1.942   .     S
O1183  Zn1190  1.973   .     S
O1184  Zn1189  1.973   .     S
O1185  Zn1189  1.952   .     S
O1185  C1226   1.287   .     S
O1186  Zn1190  1.952   .     S
O1187  Zn1190  1.894   .     S
O1188  Zn1189  1.894   .     S
C1191  C1224   1.399   .     S
C1191  O1253   1.289   .     A
C1192  C1194   1.457   .     S
C1192  O1258   1.301   .     A
C1192  O1116   1.287   1_655 S
C1193  C1199   1.388   .     A
C1193  C1197   1.413   .     A
C1193  C1226   1.457   .     S
C1194  C1198   1.413   .     A
C1194  C1200   1.388   .     A
C1195  C1204   1.399   .     A
C1195  H1233   1.086   .     S
C1195  C1197   1.395   .     A
C1196  H1234   1.086   .     S
C1196  C1205   1.399   .     A
C1196  C1198   1.395   .     A
C1198  C1068   1.478   1_655 S
C1199  C1201   1.398   .     A
C1199  H1243   1.076   .     S
C1200  C1203   1.398   .     A
C1200  H1242   1.076   .     S
C1201  C1206   1.420   .     A
C1201  C1204   1.417   .     A
C1202  C1225   1.399   .     S
C1202  O1254   1.289   .     A
C1202  O1112   1.273   1_655 S
C1203  C1207   1.421   .     A
C1203  C1205   1.417   .     A
C1204  C592    1.386   1_556 S
C1206  C1221   1.417   .     A
C1206  C577    1.422   1_556 S
C1207  C1213   1.417   .     A
C1208  C1209   1.403   .     A
C1208  C1214   1.405   .     A
C1209  C1210   1.398   .     A
C1209  H1244   1.081   .     S
C1210  H1245   1.082   .     S
C1210  C1211   1.398   .     A
C1212  H1247   1.083   .     S
C1212  C791    1.398   1_565 S
C1212  C794    1.398   1_565 S
C1213  C1222   1.383   .     A
C1213  H1235   1.075   .     S
C1215  C1220   1.402   .     A
C1215  C1216   1.405   .     A
C1215  C1057   1.478   1_655 S
C1216  C1217   1.398   .     A
C1216  H1088   1.083   1_655 S
C1217  C1218   1.398   .     A
C1217  H809    1.083   1_565 S
C1218  C1219   1.398   .     A
C1218  H810    1.083   1_565 S
C1219  C1220   1.399   .     A
C1219  H1231   1.082   .     S
C1220  H1232   1.081   .     S
C1221  C1223   1.383   .     A
C1221  H1236   1.076   .     S
C1222  H1227   1.082   .     S
C1223  H1238   1.082   .     S
C1223  C575    1.386   1_556 S
C1224  C735    1.340   1_565 S
C1224  H817    1.088   1_565 S
C1225  C874    1.340   1_655 S
C1226  O1257   1.301   .     A
H1239  C805    1.088   1_565 S
H1240  N1249   1.028   .     S
H1241  N1250   1.028   .     S
H1246  C791    1.082   1_565 S
H1248  C1074   1.083   1_655 S
N1249  N1250   1.291   .     D
N1249  Zn1260  2.016   .     S
N1250  Zn1259  2.016   .     S
O1251  Zn1259  1.942   .     S
O1251  C1051   1.273   1_655 S
O1252  Zn1260  1.942   .     S
O1253  Zn1260  1.973   .     S
O1254  Zn1259  1.973   .     S
O1255  Zn1259  1.952   .     S
O1255  C1086   1.287   1_655 S
O1256  Zn1260  1.952   .     S
O1257  Zn1260  1.894   .     S
O1258  Zn1259  1.894   .     S
