data_str_m2_o10_o16_pcu_sym.37
_audit_creation_date              2020-01-03
_audit_creation_method            'Materials Studio'
_symmetry_space_group_name_H-M    'P1'
_symmetry_Int_Tables_number       1
_symmetry_cell_setting            triclinic
loop_
_symmetry_equiv_pos_as_xyz
  x,y,z
_cell_length_a                    22.2738
_cell_length_b                    26.1583
_cell_length_c                    26.8113
_cell_angle_alpha                 94.1000
_cell_angle_beta                  77.4235
_cell_angle_gamma                 103.0872
loop_
_atom_site_label
_atom_site_type_symbol
_atom_site_fract_x
_atom_site_fract_y
_atom_site_fract_z
_atom_site_U_iso_or_equiv
_atom_site_adp_type
_atom_site_occupancy
O1     O     0.12797   0.23807   0.24633   0.00000  Uiso   1.00
O2     O     0.22858   0.24755   0.25587   0.00000  Uiso   1.00
C3     C     0.18215   0.26666   0.24997   0.00000  Uiso   1.00
O4     O     0.09181   0.15960   0.31840   0.00000  Uiso   1.00
O5     O     0.19242   0.16908   0.32793   0.00000  Uiso   1.00
C6     C     0.13321   0.16608   0.34724   0.00000  Uiso   1.00
Cu7    Cu    0.10710   0.16105   0.24436   0.00000  Uiso   1.00
Cu8    Cu    0.22623   0.17228   0.25565   0.00000  Uiso   1.00
O9     O     0.10476   0.08578   0.24414   0.00000  Uiso   1.00
O10    O     0.20536   0.09526   0.25367   0.00000  Uiso   1.00
O11    O     0.14092   0.16425   0.17207   0.00000  Uiso   1.00
O12    O     0.24152   0.17373   0.18161   0.00000  Uiso   1.00
C13    C     0.15233   0.06674   0.24640   0.00000  Uiso   1.00
C14    C     0.20054   0.17041   0.15295   0.00000  Uiso   1.00
C15    C     0.29311   0.22588   0.02685   0.00000  Uiso   1.00
H16    H     0.31557   0.22171   0.10003   0.00000  Uiso   1.00
H17    H     0.30361   0.25852   0.43322   0.00000  Uiso   1.00
H18    H     0.00572   0.24990   0.01140   0.00000  Uiso   1.00
C19    C     0.22078   0.17912   0.09794   0.00000  Uiso   1.00
C20    C     0.05083   0.13898   0.42430   0.00000  Uiso   1.00
C21    C     0.03273   0.12893   0.47615   0.00000  Uiso   1.00
C22    C     0.07634   0.14282   0.00753   0.00000  Uiso   1.00
C23    C     0.13921   0.16931   0.48784   0.00000  Uiso   1.00
C24    C     0.15544   0.18464   0.43607   0.00000  Uiso   1.00
C25    C     0.18633   0.18164   0.01789   0.00000  Uiso   1.00
C26    C     0.24644   0.21313   0.49749   0.00000  Uiso   1.00
C27    C     0.25883   0.23269   0.44850   0.00000  Uiso   1.00
C28    C     0.21381   0.21938   0.41855   0.00000  Uiso   1.00
C29    C     0.17569   0.16350   0.06768   0.00000  Uiso   1.00
C30    C     0.28022   0.20920   0.07703   0.00000  Uiso   1.00
C31    C     0.11249   0.16521   0.40335   0.00000  Uiso   1.00
H32    H     0.13197   0.13778   0.08450   0.00000  Uiso   1.00
H33    H     0.01692   0.12475   0.40030   0.00000  Uiso   1.00
H34    H     0.05875   0.13340   0.04724   0.00000  Uiso   1.00
H35    H     0.31820   0.10890   0.49196   0.00000  Uiso   1.00
H36    H     0.22503   0.23790   0.38193   0.00000  Uiso   1.00
C37    C     0.18970   0.32248   0.25043   0.00000  Uiso   1.00
H38    H     0.22946   0.01243   0.26512   0.00000  Uiso   1.00
C39    C     0.14652   0.01131   0.23793   0.00000  Uiso   1.00
N40    N     0.31574   0.18074   0.26416   0.00000  Uiso   1.00
H41    H     0.00372   0.20594   0.28958   0.00000  Uiso   1.00
N42    N     0.01759   0.15259   0.23584   0.00000  Uiso   1.00
H43    H     0.32961   0.12740   0.21042   0.00000  Uiso   1.00
N44    N     0.09717   0.31598   0.21327   0.00000  Uiso   1.00
O45    O     0.03883   0.31871   0.23158   0.00000  Uiso   1.00
O46    O     0.11152   0.29270   0.16911   0.00000  Uiso   1.00
O47    O     0.46131   0.23807   0.24633   0.00000  Uiso   1.00
O48    O     0.56191   0.24755   0.25587   0.00000  Uiso   1.00
C49    C     0.51548   0.26666   0.24997   0.00000  Uiso   1.00
O50    O     0.42515   0.15960   0.31840   0.00000  Uiso   1.00
O51    O     0.52575   0.16908   0.32793   0.00000  Uiso   1.00
C52    C     0.46654   0.16608   0.34724   0.00000  Uiso   1.00
Cu53   Cu    0.44043   0.16105   0.24436   0.00000  Uiso   1.00
Cu54   Cu    0.55957   0.17228   0.25565   0.00000  Uiso   1.00
O55    O     0.43809   0.08578   0.24414   0.00000  Uiso   1.00
O56    O     0.53869   0.09526   0.25367   0.00000  Uiso   1.00
O57    O     0.47425   0.16425   0.17207   0.00000  Uiso   1.00
O58    O     0.57485   0.17373   0.18161   0.00000  Uiso   1.00
C59    C     0.48567   0.06674   0.24640   0.00000  Uiso   1.00
C60    C     0.53388   0.17041   0.15295   0.00000  Uiso   1.00
C61    C     0.62644   0.22588   0.02685   0.00000  Uiso   1.00
H62    H     0.64891   0.22171   0.10003   0.00000  Uiso   1.00
H63    H     0.63694   0.25852   0.43322   0.00000  Uiso   1.00
H64    H     0.33905   0.24990   0.01140   0.00000  Uiso   1.00
C65    C     0.55412   0.17912   0.09794   0.00000  Uiso   1.00
C66    C     0.38417   0.13898   0.42430   0.00000  Uiso   1.00
C67    C     0.36606   0.12893   0.47615   0.00000  Uiso   1.00
C68    C     0.40967   0.14282   0.00753   0.00000  Uiso   1.00
C69    C     0.47254   0.16931   0.48784   0.00000  Uiso   1.00
C70    C     0.48878   0.18464   0.43607   0.00000  Uiso   1.00
C71    C     0.51967   0.18164   0.01789   0.00000  Uiso   1.00
C72    C     0.57977   0.21313   0.49749   0.00000  Uiso   1.00
C73    C     0.59217   0.23269   0.44850   0.00000  Uiso   1.00
C74    C     0.54715   0.21938   0.41855   0.00000  Uiso   1.00
C75    C     0.50902   0.16350   0.06768   0.00000  Uiso   1.00
C76    C     0.61356   0.20920   0.07703   0.00000  Uiso   1.00
C77    C     0.44583   0.16521   0.40335   0.00000  Uiso   1.00
H78    H     0.46531   0.13778   0.08450   0.00000  Uiso   1.00
H79    H     0.35025   0.12475   0.40030   0.00000  Uiso   1.00
H80    H     0.39209   0.13340   0.04724   0.00000  Uiso   1.00
H81    H     0.65153   0.10890   0.49196   0.00000  Uiso   1.00
H82    H     0.55836   0.23790   0.38193   0.00000  Uiso   1.00
C83    C     0.52304   0.32248   0.25043   0.00000  Uiso   1.00
H84    H     0.56279   0.01243   0.26512   0.00000  Uiso   1.00
C85    C     0.47986   0.01131   0.23793   0.00000  Uiso   1.00
N86    N     0.64908   0.18074   0.26416   0.00000  Uiso   1.00
H87    H     0.33705   0.20594   0.28958   0.00000  Uiso   1.00
N88    N     0.35092   0.15259   0.23584   0.00000  Uiso   1.00
H89    H     0.66294   0.12740   0.21042   0.00000  Uiso   1.00
N90    N     0.43050   0.31598   0.21327   0.00000  Uiso   1.00
O91    O     0.37217   0.31871   0.23158   0.00000  Uiso   1.00
O92    O     0.44485   0.29270   0.16911   0.00000  Uiso   1.00
O93    O     0.79464   0.23807   0.24633   0.00000  Uiso   1.00
O94    O     0.89524   0.24755   0.25587   0.00000  Uiso   1.00
C95    C     0.84882   0.26666   0.24997   0.00000  Uiso   1.00
O96    O     0.75848   0.15960   0.31840   0.00000  Uiso   1.00
O97    O     0.85908   0.16908   0.32793   0.00000  Uiso   1.00
C98    C     0.79987   0.16608   0.34724   0.00000  Uiso   1.00
Cu99   Cu    0.77377   0.16105   0.24436   0.00000  Uiso   1.00
Cu100  Cu    0.89290   0.17228   0.25565   0.00000  Uiso   1.00
O101   O     0.77142   0.08578   0.24414   0.00000  Uiso   1.00
O102   O     0.87203   0.09526   0.25367   0.00000  Uiso   1.00
O103   O     0.80758   0.16425   0.17207   0.00000  Uiso   1.00
O104   O     0.90819   0.17373   0.18161   0.00000  Uiso   1.00
C105   C     0.81900   0.06674   0.24640   0.00000  Uiso   1.00
C106   C     0.86721   0.17041   0.15295   0.00000  Uiso   1.00
C107   C     0.95978   0.22588   0.02685   0.00000  Uiso   1.00
H108   H     0.98224   0.22171   0.10003   0.00000  Uiso   1.00
H109   H     0.97027   0.25852   0.43322   0.00000  Uiso   1.00
H110   H     0.67239   0.24990   0.01140   0.00000  Uiso   1.00
C111   C     0.88745   0.17912   0.09794   0.00000  Uiso   1.00
C112   C     0.71750   0.13898   0.42430   0.00000  Uiso   1.00
C113   C     0.69940   0.12893   0.47615   0.00000  Uiso   1.00
C114   C     0.74300   0.14282   0.00753   0.00000  Uiso   1.00
C115   C     0.80588   0.16931   0.48784   0.00000  Uiso   1.00
C116   C     0.82211   0.18464   0.43607   0.00000  Uiso   1.00
C117   C     0.85300   0.18164   0.01789   0.00000  Uiso   1.00
C118   C     0.91311   0.21313   0.49749   0.00000  Uiso   1.00
C119   C     0.92550   0.23269   0.44850   0.00000  Uiso   1.00
C120   C     0.88048   0.21938   0.41855   0.00000  Uiso   1.00
C121   C     0.84236   0.16350   0.06768   0.00000  Uiso   1.00
C122   C     0.94689   0.20920   0.07703   0.00000  Uiso   1.00
C123   C     0.77916   0.16521   0.40335   0.00000  Uiso   1.00
H124   H     0.79864   0.13778   0.08450   0.00000  Uiso   1.00
H125   H     0.68359   0.12475   0.40030   0.00000  Uiso   1.00
H126   H     0.72542   0.13340   0.04724   0.00000  Uiso   1.00
H127   H     0.98487   0.10890   0.49196   0.00000  Uiso   1.00
H128   H     0.89170   0.23790   0.38193   0.00000  Uiso   1.00
C129   C     0.85637   0.32248   0.25043   0.00000  Uiso   1.00
H130   H     0.89612   0.01243   0.26512   0.00000  Uiso   1.00
C131   C     0.81319   0.01131   0.23793   0.00000  Uiso   1.00
N132   N     0.98241   0.18074   0.26416   0.00000  Uiso   1.00
H133   H     0.67039   0.20594   0.28958   0.00000  Uiso   1.00
N134   N     0.68426   0.15259   0.23584   0.00000  Uiso   1.00
H135   H     0.99627   0.12740   0.21042   0.00000  Uiso   1.00
N136   N     0.76383   0.31598   0.21327   0.00000  Uiso   1.00
O137   O     0.70550   0.31871   0.23158   0.00000  Uiso   1.00
O138   O     0.77819   0.29270   0.16911   0.00000  Uiso   1.00
O139   O     0.12797   0.57141   0.24633   0.00000  Uiso   1.00
O140   O     0.22858   0.58089   0.25587   0.00000  Uiso   1.00
C141   C     0.18215   0.59999   0.24997   0.00000  Uiso   1.00
O142   O     0.09181   0.49293   0.31840   0.00000  Uiso   1.00
O143   O     0.19242   0.50241   0.32793   0.00000  Uiso   1.00
C144   C     0.13321   0.49941   0.34724   0.00000  Uiso   1.00
Cu145  Cu    0.10710   0.49439   0.24436   0.00000  Uiso   1.00
Cu146  Cu    0.22623   0.50561   0.25565   0.00000  Uiso   1.00
O147   O     0.10476   0.41911   0.24414   0.00000  Uiso   1.00
O148   O     0.20536   0.42859   0.25367   0.00000  Uiso   1.00
O149   O     0.14092   0.49759   0.17207   0.00000  Uiso   1.00
O150   O     0.24152   0.50707   0.18161   0.00000  Uiso   1.00
C151   C     0.15233   0.40007   0.24640   0.00000  Uiso   1.00
C152   C     0.20054   0.50374   0.15295   0.00000  Uiso   1.00
C153   C     0.29311   0.55921   0.02685   0.00000  Uiso   1.00
H154   H     0.31557   0.55505   0.10003   0.00000  Uiso   1.00
H155   H     0.30361   0.59186   0.43322   0.00000  Uiso   1.00
H156   H     0.00572   0.58323   0.01140   0.00000  Uiso   1.00
C157   C     0.22078   0.51245   0.09794   0.00000  Uiso   1.00
C158   C     0.05083   0.47231   0.42430   0.00000  Uiso   1.00
C159   C     0.03273   0.46226   0.47615   0.00000  Uiso   1.00
C160   C     0.07634   0.47616   0.00753   0.00000  Uiso   1.00
C161   C     0.13921   0.50264   0.48784   0.00000  Uiso   1.00
C162   C     0.15544   0.51798   0.43607   0.00000  Uiso   1.00
C163   C     0.18633   0.51497   0.01789   0.00000  Uiso   1.00
C164   C     0.24644   0.54646   0.49749   0.00000  Uiso   1.00
C165   C     0.25883   0.56602   0.44850   0.00000  Uiso   1.00
C166   C     0.21381   0.55272   0.41855   0.00000  Uiso   1.00
C167   C     0.17569   0.49683   0.06768   0.00000  Uiso   1.00
C168   C     0.28022   0.54254   0.07703   0.00000  Uiso   1.00
C169   C     0.11249   0.49855   0.40335   0.00000  Uiso   1.00
H170   H     0.13197   0.47112   0.08450   0.00000  Uiso   1.00
H171   H     0.01692   0.45808   0.40030   0.00000  Uiso   1.00
H172   H     0.05875   0.46673   0.04724   0.00000  Uiso   1.00
H173   H     0.31820   0.44224   0.49196   0.00000  Uiso   1.00
H174   H     0.22503   0.57123   0.38193   0.00000  Uiso   1.00
C175   C     0.18970   0.65582   0.25043   0.00000  Uiso   1.00
H176   H     0.22946   0.34576   0.26512   0.00000  Uiso   1.00
C177   C     0.14652   0.34465   0.23793   0.00000  Uiso   1.00
N178   N     0.31574   0.51407   0.26416   0.00000  Uiso   1.00
H179   H     0.00372   0.53927   0.28958   0.00000  Uiso   1.00
N180   N     0.01759   0.48593   0.23584   0.00000  Uiso   1.00
H181   H     0.32961   0.46074   0.21042   0.00000  Uiso   1.00
N182   N     0.09717   0.64931   0.21327   0.00000  Uiso   1.00
O183   O     0.03883   0.65204   0.23158   0.00000  Uiso   1.00
O184   O     0.11152   0.62603   0.16911   0.00000  Uiso   1.00
O185   O     0.46131   0.57141   0.24633   0.00000  Uiso   1.00
O186   O     0.56191   0.58089   0.25587   0.00000  Uiso   1.00
C187   C     0.51548   0.59999   0.24997   0.00000  Uiso   1.00
O188   O     0.42515   0.49293   0.31840   0.00000  Uiso   1.00
O189   O     0.52575   0.50241   0.32793   0.00000  Uiso   1.00
C190   C     0.46654   0.49941   0.34724   0.00000  Uiso   1.00
Cu191  Cu    0.44043   0.49439   0.24436   0.00000  Uiso   1.00
Cu192  Cu    0.55957   0.50561   0.25565   0.00000  Uiso   1.00
O193   O     0.43809   0.41911   0.24414   0.00000  Uiso   1.00
O194   O     0.53869   0.42859   0.25367   0.00000  Uiso   1.00
O195   O     0.47425   0.49759   0.17207   0.00000  Uiso   1.00
O196   O     0.57485   0.50707   0.18161   0.00000  Uiso   1.00
C197   C     0.48567   0.40007   0.24640   0.00000  Uiso   1.00
C198   C     0.53388   0.50374   0.15295   0.00000  Uiso   1.00
C199   C     0.62644   0.55921   0.02685   0.00000  Uiso   1.00
H200   H     0.64891   0.55505   0.10003   0.00000  Uiso   1.00
H201   H     0.63694   0.59186   0.43322   0.00000  Uiso   1.00
H202   H     0.33905   0.58323   0.01140   0.00000  Uiso   1.00
C203   C     0.55412   0.51245   0.09794   0.00000  Uiso   1.00
C204   C     0.38417   0.47231   0.42430   0.00000  Uiso   1.00
C205   C     0.36606   0.46226   0.47615   0.00000  Uiso   1.00
C206   C     0.40967   0.47616   0.00753   0.00000  Uiso   1.00
C207   C     0.47254   0.50264   0.48784   0.00000  Uiso   1.00
C208   C     0.48878   0.51798   0.43607   0.00000  Uiso   1.00
C209   C     0.51967   0.51497   0.01789   0.00000  Uiso   1.00
C210   C     0.57977   0.54646   0.49749   0.00000  Uiso   1.00
C211   C     0.59217   0.56602   0.44850   0.00000  Uiso   1.00
C212   C     0.54715   0.55272   0.41855   0.00000  Uiso   1.00
C213   C     0.50902   0.49683   0.06768   0.00000  Uiso   1.00
C214   C     0.61356   0.54254   0.07703   0.00000  Uiso   1.00
C215   C     0.44583   0.49855   0.40335   0.00000  Uiso   1.00
H216   H     0.46531   0.47112   0.08450   0.00000  Uiso   1.00
H217   H     0.35025   0.45808   0.40030   0.00000  Uiso   1.00
H218   H     0.39209   0.46673   0.04724   0.00000  Uiso   1.00
H219   H     0.65153   0.44224   0.49196   0.00000  Uiso   1.00
H220   H     0.55836   0.57123   0.38193   0.00000  Uiso   1.00
C221   C     0.52304   0.65582   0.25043   0.00000  Uiso   1.00
H222   H     0.56279   0.34576   0.26512   0.00000  Uiso   1.00
C223   C     0.47986   0.34465   0.23793   0.00000  Uiso   1.00
N224   N     0.64908   0.51407   0.26416   0.00000  Uiso   1.00
H225   H     0.33705   0.53927   0.28958   0.00000  Uiso   1.00
N226   N     0.35092   0.48593   0.23584   0.00000  Uiso   1.00
H227   H     0.66294   0.46074   0.21042   0.00000  Uiso   1.00
N228   N     0.43050   0.64931   0.21327   0.00000  Uiso   1.00
O229   O     0.37217   0.65204   0.23158   0.00000  Uiso   1.00
O230   O     0.44485   0.62603   0.16911   0.00000  Uiso   1.00
O231   O     0.79464   0.57141   0.24633   0.00000  Uiso   1.00
O232   O     0.89524   0.58089   0.25587   0.00000  Uiso   1.00
C233   C     0.84882   0.59999   0.24997   0.00000  Uiso   1.00
O234   O     0.75848   0.49293   0.31840   0.00000  Uiso   1.00
O235   O     0.85908   0.50241   0.32793   0.00000  Uiso   1.00
C236   C     0.79987   0.49941   0.34724   0.00000  Uiso   1.00
Cu237  Cu    0.77377   0.49439   0.24436   0.00000  Uiso   1.00
Cu238  Cu    0.89290   0.50561   0.25565   0.00000  Uiso   1.00
O239   O     0.77142   0.41911   0.24414   0.00000  Uiso   1.00
O240   O     0.87203   0.42859   0.25367   0.00000  Uiso   1.00
O241   O     0.80758   0.49759   0.17207   0.00000  Uiso   1.00
O242   O     0.90819   0.50707   0.18161   0.00000  Uiso   1.00
C243   C     0.81900   0.40007   0.24640   0.00000  Uiso   1.00
C244   C     0.86721   0.50374   0.15295   0.00000  Uiso   1.00
C245   C     0.95978   0.55921   0.02685   0.00000  Uiso   1.00
H246   H     0.98224   0.55505   0.10003   0.00000  Uiso   1.00
H247   H     0.97027   0.59186   0.43322   0.00000  Uiso   1.00
H248   H     0.67239   0.58323   0.01140   0.00000  Uiso   1.00
C249   C     0.88745   0.51245   0.09794   0.00000  Uiso   1.00
C250   C     0.71750   0.47231   0.42430   0.00000  Uiso   1.00
C251   C     0.69940   0.46226   0.47615   0.00000  Uiso   1.00
C252   C     0.74300   0.47616   0.00753   0.00000  Uiso   1.00
C253   C     0.80588   0.50264   0.48784   0.00000  Uiso   1.00
C254   C     0.82211   0.51798   0.43607   0.00000  Uiso   1.00
C255   C     0.85300   0.51497   0.01789   0.00000  Uiso   1.00
C256   C     0.91311   0.54646   0.49749   0.00000  Uiso   1.00
C257   C     0.92550   0.56602   0.44850   0.00000  Uiso   1.00
C258   C     0.88048   0.55272   0.41855   0.00000  Uiso   1.00
C259   C     0.84236   0.49683   0.06768   0.00000  Uiso   1.00
C260   C     0.94689   0.54254   0.07703   0.00000  Uiso   1.00
C261   C     0.77916   0.49855   0.40335   0.00000  Uiso   1.00
H262   H     0.79864   0.47112   0.08450   0.00000  Uiso   1.00
H263   H     0.68359   0.45808   0.40030   0.00000  Uiso   1.00
H264   H     0.72542   0.46673   0.04724   0.00000  Uiso   1.00
H265   H     0.98487   0.44224   0.49196   0.00000  Uiso   1.00
H266   H     0.89170   0.57123   0.38193   0.00000  Uiso   1.00
C267   C     0.85637   0.65582   0.25043   0.00000  Uiso   1.00
H268   H     0.89612   0.34576   0.26512   0.00000  Uiso   1.00
C269   C     0.81319   0.34465   0.23793   0.00000  Uiso   1.00
N270   N     0.98241   0.51407   0.26416   0.00000  Uiso   1.00
H271   H     0.67039   0.53927   0.28958   0.00000  Uiso   1.00
N272   N     0.68426   0.48593   0.23584   0.00000  Uiso   1.00
H273   H     0.99627   0.46074   0.21042   0.00000  Uiso   1.00
N274   N     0.76383   0.64931   0.21327   0.00000  Uiso   1.00
O275   O     0.70550   0.65204   0.23158   0.00000  Uiso   1.00
O276   O     0.77819   0.62603   0.16911   0.00000  Uiso   1.00
O277   O     0.12797   0.90474   0.24633   0.00000  Uiso   1.00
O278   O     0.22858   0.91422   0.25587   0.00000  Uiso   1.00
C279   C     0.18215   0.93333   0.24997   0.00000  Uiso   1.00
O280   O     0.09181   0.82627   0.31840   0.00000  Uiso   1.00
O281   O     0.19242   0.83575   0.32793   0.00000  Uiso   1.00
C282   C     0.13321   0.83274   0.34724   0.00000  Uiso   1.00
Cu283  Cu    0.10710   0.82772   0.24436   0.00000  Uiso   1.00
Cu284  Cu    0.22623   0.83895   0.25565   0.00000  Uiso   1.00
O285   O     0.10476   0.75245   0.24414   0.00000  Uiso   1.00
O286   O     0.20536   0.76193   0.25367   0.00000  Uiso   1.00
O287   O     0.14092   0.83092   0.17207   0.00000  Uiso   1.00
O288   O     0.24152   0.84040   0.18161   0.00000  Uiso   1.00
C289   C     0.15233   0.73341   0.24640   0.00000  Uiso   1.00
C290   C     0.20054   0.83708   0.15295   0.00000  Uiso   1.00
C291   C     0.29311   0.89255   0.02685   0.00000  Uiso   1.00
H292   H     0.31557   0.88838   0.10003   0.00000  Uiso   1.00
H293   H     0.30361   0.92519   0.43322   0.00000  Uiso   1.00
H294   H     0.00572   0.91656   0.01140   0.00000  Uiso   1.00
C295   C     0.22078   0.84578   0.09794   0.00000  Uiso   1.00
C296   C     0.05083   0.80565   0.42430   0.00000  Uiso   1.00
C297   C     0.03273   0.79560   0.47615   0.00000  Uiso   1.00
C298   C     0.07634   0.80949   0.00753   0.00000  Uiso   1.00
C299   C     0.13921   0.83597   0.48784   0.00000  Uiso   1.00
C300   C     0.15544   0.85131   0.43607   0.00000  Uiso   1.00
C301   C     0.18633   0.84830   0.01789   0.00000  Uiso   1.00
C302   C     0.24644   0.87979   0.49749   0.00000  Uiso   1.00
C303   C     0.25883   0.89936   0.44850   0.00000  Uiso   1.00
C304   C     0.21381   0.88605   0.41855   0.00000  Uiso   1.00
C305   C     0.17569   0.83016   0.06768   0.00000  Uiso   1.00
C306   C     0.28022   0.87587   0.07703   0.00000  Uiso   1.00
C307   C     0.11249   0.83188   0.40335   0.00000  Uiso   1.00
H308   H     0.13197   0.80445   0.08450   0.00000  Uiso   1.00
H309   H     0.01692   0.79142   0.40030   0.00000  Uiso   1.00
H310   H     0.05875   0.80007   0.04724   0.00000  Uiso   1.00
H311   H     0.31820   0.77557   0.49196   0.00000  Uiso   1.00
H312   H     0.22503   0.90457   0.38193   0.00000  Uiso   1.00
C313   C     0.18970   0.98915   0.25043   0.00000  Uiso   1.00
H314   H     0.22946   0.67909   0.26512   0.00000  Uiso   1.00
C315   C     0.14652   0.67798   0.23793   0.00000  Uiso   1.00
N316   N     0.31574   0.84741   0.26416   0.00000  Uiso   1.00
H317   H     0.00372   0.87260   0.28958   0.00000  Uiso   1.00
N318   N     0.01759   0.81926   0.23584   0.00000  Uiso   1.00
H319   H     0.32961   0.79407   0.21042   0.00000  Uiso   1.00
N320   N     0.09717   0.98264   0.21327   0.00000  Uiso   1.00
O321   O     0.03883   0.98537   0.23158   0.00000  Uiso   1.00
O322   O     0.11152   0.95937   0.16911   0.00000  Uiso   1.00
O323   O     0.46131   0.90474   0.24633   0.00000  Uiso   1.00
O324   O     0.56191   0.91422   0.25587   0.00000  Uiso   1.00
C325   C     0.51548   0.93333   0.24997   0.00000  Uiso   1.00
O326   O     0.42515   0.82627   0.31840   0.00000  Uiso   1.00
O327   O     0.52575   0.83575   0.32793   0.00000  Uiso   1.00
C328   C     0.46654   0.83274   0.34724   0.00000  Uiso   1.00
Cu329  Cu    0.44043   0.82772   0.24436   0.00000  Uiso   1.00
Cu330  Cu    0.55957   0.83895   0.25565   0.00000  Uiso   1.00
O331   O     0.43809   0.75245   0.24414   0.00000  Uiso   1.00
O332   O     0.53869   0.76193   0.25367   0.00000  Uiso   1.00
O333   O     0.47425   0.83092   0.17207   0.00000  Uiso   1.00
O334   O     0.57485   0.84040   0.18161   0.00000  Uiso   1.00
C335   C     0.48567   0.73341   0.24640   0.00000  Uiso   1.00
C336   C     0.53388   0.83708   0.15295   0.00000  Uiso   1.00
C337   C     0.62644   0.89255   0.02685   0.00000  Uiso   1.00
H338   H     0.64891   0.88838   0.10003   0.00000  Uiso   1.00
H339   H     0.63694   0.92519   0.43322   0.00000  Uiso   1.00
H340   H     0.33905   0.91656   0.01140   0.00000  Uiso   1.00
C341   C     0.55412   0.84578   0.09794   0.00000  Uiso   1.00
C342   C     0.38417   0.80565   0.42430   0.00000  Uiso   1.00
C343   C     0.36606   0.79560   0.47615   0.00000  Uiso   1.00
C344   C     0.40967   0.80949   0.00753   0.00000  Uiso   1.00
C345   C     0.47254   0.83597   0.48784   0.00000  Uiso   1.00
C346   C     0.48878   0.85131   0.43607   0.00000  Uiso   1.00
C347   C     0.51967   0.84830   0.01789   0.00000  Uiso   1.00
C348   C     0.57977   0.87979   0.49749   0.00000  Uiso   1.00
C349   C     0.59217   0.89936   0.44850   0.00000  Uiso   1.00
C350   C     0.54715   0.88605   0.41855   0.00000  Uiso   1.00
C351   C     0.50902   0.83016   0.06768   0.00000  Uiso   1.00
C352   C     0.61356   0.87587   0.07703   0.00000  Uiso   1.00
C353   C     0.44583   0.83188   0.40335   0.00000  Uiso   1.00
H354   H     0.46531   0.80445   0.08450   0.00000  Uiso   1.00
H355   H     0.35025   0.79142   0.40030   0.00000  Uiso   1.00
H356   H     0.39209   0.80007   0.04724   0.00000  Uiso   1.00
H357   H     0.65153   0.77557   0.49196   0.00000  Uiso   1.00
H358   H     0.55836   0.90457   0.38193   0.00000  Uiso   1.00
C359   C     0.52304   0.98915   0.25043   0.00000  Uiso   1.00
H360   H     0.56279   0.67909   0.26512   0.00000  Uiso   1.00
C361   C     0.47986   0.67798   0.23793   0.00000  Uiso   1.00
N362   N     0.64908   0.84741   0.26416   0.00000  Uiso   1.00
H363   H     0.33705   0.87260   0.28958   0.00000  Uiso   1.00
N364   N     0.35092   0.81926   0.23584   0.00000  Uiso   1.00
H365   H     0.66294   0.79407   0.21042   0.00000  Uiso   1.00
N366   N     0.43050   0.98264   0.21327   0.00000  Uiso   1.00
O367   O     0.37217   0.98537   0.23158   0.00000  Uiso   1.00
O368   O     0.44485   0.95937   0.16911   0.00000  Uiso   1.00
O369   O     0.79464   0.90474   0.24633   0.00000  Uiso   1.00
O370   O     0.89524   0.91422   0.25587   0.00000  Uiso   1.00
C371   C     0.84882   0.93333   0.24997   0.00000  Uiso   1.00
O372   O     0.75848   0.82627   0.31840   0.00000  Uiso   1.00
O373   O     0.85908   0.83575   0.32793   0.00000  Uiso   1.00
C374   C     0.79987   0.83274   0.34724   0.00000  Uiso   1.00
Cu375  Cu    0.77377   0.82772   0.24436   0.00000  Uiso   1.00
Cu376  Cu    0.89290   0.83895   0.25565   0.00000  Uiso   1.00
O377   O     0.77142   0.75245   0.24414   0.00000  Uiso   1.00
O378   O     0.87203   0.76193   0.25367   0.00000  Uiso   1.00
O379   O     0.80758   0.83092   0.17207   0.00000  Uiso   1.00
O380   O     0.90819   0.84040   0.18161   0.00000  Uiso   1.00
C381   C     0.81900   0.73341   0.24640   0.00000  Uiso   1.00
C382   C     0.86721   0.83708   0.15295   0.00000  Uiso   1.00
C383   C     0.95978   0.89255   0.02685   0.00000  Uiso   1.00
H384   H     0.98224   0.88838   0.10003   0.00000  Uiso   1.00
H385   H     0.97027   0.92519   0.43322   0.00000  Uiso   1.00
H386   H     0.67239   0.91656   0.01140   0.00000  Uiso   1.00
C387   C     0.88745   0.84578   0.09794   0.00000  Uiso   1.00
C388   C     0.71750   0.80565   0.42430   0.00000  Uiso   1.00
C389   C     0.69940   0.79560   0.47615   0.00000  Uiso   1.00
C390   C     0.74300   0.80949   0.00753   0.00000  Uiso   1.00
C391   C     0.80588   0.83597   0.48784   0.00000  Uiso   1.00
C392   C     0.82211   0.85131   0.43607   0.00000  Uiso   1.00
C393   C     0.85300   0.84830   0.01789   0.00000  Uiso   1.00
C394   C     0.91311   0.87979   0.49749   0.00000  Uiso   1.00
C395   C     0.92550   0.89936   0.44850   0.00000  Uiso   1.00
C396   C     0.88048   0.88605   0.41855   0.00000  Uiso   1.00
C397   C     0.84236   0.83016   0.06768   0.00000  Uiso   1.00
C398   C     0.94689   0.87587   0.07703   0.00000  Uiso   1.00
C399   C     0.77916   0.83188   0.40335   0.00000  Uiso   1.00
H400   H     0.79864   0.80445   0.08450   0.00000  Uiso   1.00
H401   H     0.68359   0.79142   0.40030   0.00000  Uiso   1.00
H402   H     0.72542   0.80007   0.04724   0.00000  Uiso   1.00
H403   H     0.98487   0.77557   0.49196   0.00000  Uiso   1.00
H404   H     0.89170   0.90457   0.38193   0.00000  Uiso   1.00
C405   C     0.85637   0.98915   0.25043   0.00000  Uiso   1.00
H406   H     0.89612   0.67909   0.26512   0.00000  Uiso   1.00
C407   C     0.81319   0.67798   0.23793   0.00000  Uiso   1.00
N408   N     0.98241   0.84741   0.26416   0.00000  Uiso   1.00
H409   H     0.67039   0.87260   0.28958   0.00000  Uiso   1.00
N410   N     0.68426   0.81926   0.23584   0.00000  Uiso   1.00
H411   H     0.99627   0.79407   0.21042   0.00000  Uiso   1.00
N412   N     0.76383   0.98264   0.21327   0.00000  Uiso   1.00
O413   O     0.70550   0.98537   0.23158   0.00000  Uiso   1.00
O414   O     0.77819   0.95937   0.16911   0.00000  Uiso   1.00
O415   O     0.12797   0.23807   0.74633   0.00000  Uiso   1.00
O416   O     0.22858   0.24755   0.75587   0.00000  Uiso   1.00
C417   C     0.18215   0.26666   0.74997   0.00000  Uiso   1.00
O418   O     0.09181   0.15960   0.81840   0.00000  Uiso   1.00
O419   O     0.19242   0.16908   0.82793   0.00000  Uiso   1.00
C420   C     0.13321   0.16608   0.84724   0.00000  Uiso   1.00
Cu421  Cu    0.10710   0.16105   0.74436   0.00000  Uiso   1.00
Cu422  Cu    0.22623   0.17228   0.75565   0.00000  Uiso   1.00
O423   O     0.10476   0.08578   0.74414   0.00000  Uiso   1.00
O424   O     0.20536   0.09526   0.75367   0.00000  Uiso   1.00
O425   O     0.14092   0.16425   0.67207   0.00000  Uiso   1.00
O426   O     0.24152   0.17373   0.68161   0.00000  Uiso   1.00
C427   C     0.15233   0.06674   0.74640   0.00000  Uiso   1.00
C428   C     0.20054   0.17041   0.65295   0.00000  Uiso   1.00
C429   C     0.29311   0.22588   0.52685   0.00000  Uiso   1.00
H430   H     0.31557   0.22171   0.60003   0.00000  Uiso   1.00
H431   H     0.30361   0.25852   0.93322   0.00000  Uiso   1.00
H432   H     0.00572   0.24990   0.51140   0.00000  Uiso   1.00
C433   C     0.22078   0.17912   0.59794   0.00000  Uiso   1.00
C434   C     0.05083   0.13898   0.92430   0.00000  Uiso   1.00
C435   C     0.03273   0.12893   0.97615   0.00000  Uiso   1.00
C436   C     0.07634   0.14282   0.50753   0.00000  Uiso   1.00
C437   C     0.13921   0.16931   0.98784   0.00000  Uiso   1.00
C438   C     0.15544   0.18464   0.93607   0.00000  Uiso   1.00
C439   C     0.18633   0.18164   0.51789   0.00000  Uiso   1.00
C440   C     0.24644   0.21313   0.99749   0.00000  Uiso   1.00
C441   C     0.25883   0.23269   0.94850   0.00000  Uiso   1.00
C442   C     0.21381   0.21938   0.91855   0.00000  Uiso   1.00
C443   C     0.17569   0.16350   0.56768   0.00000  Uiso   1.00
C444   C     0.28022   0.20920   0.57703   0.00000  Uiso   1.00
C445   C     0.11249   0.16521   0.90335   0.00000  Uiso   1.00
H446   H     0.13197   0.13778   0.58450   0.00000  Uiso   1.00
H447   H     0.01692   0.12475   0.90030   0.00000  Uiso   1.00
H448   H     0.05875   0.13340   0.54724   0.00000  Uiso   1.00
H449   H     0.31820   0.10890   0.99196   0.00000  Uiso   1.00
H450   H     0.22503   0.23790   0.88193   0.00000  Uiso   1.00
C451   C     0.18970   0.32248   0.75043   0.00000  Uiso   1.00
H452   H     0.22946   0.01243   0.76512   0.00000  Uiso   1.00
C453   C     0.14652   0.01131   0.73793   0.00000  Uiso   1.00
N454   N     0.31574   0.18074   0.76416   0.00000  Uiso   1.00
H455   H     0.00372   0.20594   0.78958   0.00000  Uiso   1.00
N456   N     0.01759   0.15259   0.73584   0.00000  Uiso   1.00
H457   H     0.32961   0.12740   0.71042   0.00000  Uiso   1.00
N458   N     0.09717   0.31598   0.71327   0.00000  Uiso   1.00
O459   O     0.03883   0.31871   0.73158   0.00000  Uiso   1.00
O460   O     0.11152   0.29270   0.66911   0.00000  Uiso   1.00
O461   O     0.46131   0.23807   0.74633   0.00000  Uiso   1.00
O462   O     0.56191   0.24755   0.75587   0.00000  Uiso   1.00
C463   C     0.51548   0.26666   0.74997   0.00000  Uiso   1.00
O464   O     0.42515   0.15960   0.81840   0.00000  Uiso   1.00
O465   O     0.52575   0.16908   0.82793   0.00000  Uiso   1.00
C466   C     0.46654   0.16608   0.84724   0.00000  Uiso   1.00
Cu467  Cu    0.44043   0.16105   0.74436   0.00000  Uiso   1.00
Cu468  Cu    0.55957   0.17228   0.75565   0.00000  Uiso   1.00
O469   O     0.43809   0.08578   0.74414   0.00000  Uiso   1.00
O470   O     0.53869   0.09526   0.75367   0.00000  Uiso   1.00
O471   O     0.47425   0.16425   0.67207   0.00000  Uiso   1.00
O472   O     0.57485   0.17373   0.68161   0.00000  Uiso   1.00
C473   C     0.48567   0.06674   0.74640   0.00000  Uiso   1.00
C474   C     0.53388   0.17041   0.65295   0.00000  Uiso   1.00
C475   C     0.62644   0.22588   0.52685   0.00000  Uiso   1.00
H476   H     0.64891   0.22171   0.60003   0.00000  Uiso   1.00
H477   H     0.63694   0.25852   0.93322   0.00000  Uiso   1.00
H478   H     0.33905   0.24990   0.51140   0.00000  Uiso   1.00
C479   C     0.55412   0.17912   0.59794   0.00000  Uiso   1.00
C480   C     0.38417   0.13898   0.92430   0.00000  Uiso   1.00
C481   C     0.36606   0.12893   0.97615   0.00000  Uiso   1.00
C482   C     0.40967   0.14282   0.50753   0.00000  Uiso   1.00
C483   C     0.47254   0.16931   0.98784   0.00000  Uiso   1.00
C484   C     0.48878   0.18464   0.93607   0.00000  Uiso   1.00
C485   C     0.51967   0.18164   0.51789   0.00000  Uiso   1.00
C486   C     0.57977   0.21313   0.99749   0.00000  Uiso   1.00
C487   C     0.59217   0.23269   0.94850   0.00000  Uiso   1.00
C488   C     0.54715   0.21938   0.91855   0.00000  Uiso   1.00
C489   C     0.50902   0.16350   0.56768   0.00000  Uiso   1.00
C490   C     0.61356   0.20920   0.57703   0.00000  Uiso   1.00
C491   C     0.44583   0.16521   0.90335   0.00000  Uiso   1.00
H492   H     0.46531   0.13778   0.58450   0.00000  Uiso   1.00
H493   H     0.35025   0.12475   0.90030   0.00000  Uiso   1.00
H494   H     0.39209   0.13340   0.54724   0.00000  Uiso   1.00
H495   H     0.65153   0.10890   0.99196   0.00000  Uiso   1.00
H496   H     0.55836   0.23790   0.88193   0.00000  Uiso   1.00
C497   C     0.52304   0.32248   0.75043   0.00000  Uiso   1.00
H498   H     0.56279   0.01243   0.76512   0.00000  Uiso   1.00
C499   C     0.47986   0.01131   0.73793   0.00000  Uiso   1.00
N500   N     0.64908   0.18074   0.76416   0.00000  Uiso   1.00
H501   H     0.33705   0.20594   0.78958   0.00000  Uiso   1.00
N502   N     0.35092   0.15259   0.73584   0.00000  Uiso   1.00
H503   H     0.66294   0.12740   0.71042   0.00000  Uiso   1.00
N504   N     0.43050   0.31598   0.71327   0.00000  Uiso   1.00
O505   O     0.37217   0.31871   0.73158   0.00000  Uiso   1.00
O506   O     0.44485   0.29270   0.66911   0.00000  Uiso   1.00
O507   O     0.79464   0.23807   0.74633   0.00000  Uiso   1.00
O508   O     0.89524   0.24755   0.75587   0.00000  Uiso   1.00
C509   C     0.84882   0.26666   0.74997   0.00000  Uiso   1.00
O510   O     0.75848   0.15960   0.81840   0.00000  Uiso   1.00
O511   O     0.85908   0.16908   0.82793   0.00000  Uiso   1.00
C512   C     0.79987   0.16608   0.84724   0.00000  Uiso   1.00
Cu513  Cu    0.77377   0.16105   0.74436   0.00000  Uiso   1.00
Cu514  Cu    0.89290   0.17228   0.75565   0.00000  Uiso   1.00
O515   O     0.77142   0.08578   0.74414   0.00000  Uiso   1.00
O516   O     0.87203   0.09526   0.75367   0.00000  Uiso   1.00
O517   O     0.80758   0.16425   0.67207   0.00000  Uiso   1.00
O518   O     0.90819   0.17373   0.68161   0.00000  Uiso   1.00
C519   C     0.81900   0.06674   0.74640   0.00000  Uiso   1.00
C520   C     0.86721   0.17041   0.65295   0.00000  Uiso   1.00
C521   C     0.95978   0.22588   0.52685   0.00000  Uiso   1.00
H522   H     0.98224   0.22171   0.60003   0.00000  Uiso   1.00
H523   H     0.97027   0.25852   0.93322   0.00000  Uiso   1.00
H524   H     0.67239   0.24990   0.51140   0.00000  Uiso   1.00
C525   C     0.88745   0.17912   0.59794   0.00000  Uiso   1.00
C526   C     0.71750   0.13898   0.92430   0.00000  Uiso   1.00
C527   C     0.69940   0.12893   0.97615   0.00000  Uiso   1.00
C528   C     0.74300   0.14282   0.50753   0.00000  Uiso   1.00
C529   C     0.80588   0.16931   0.98784   0.00000  Uiso   1.00
C530   C     0.82211   0.18464   0.93607   0.00000  Uiso   1.00
C531   C     0.85300   0.18164   0.51789   0.00000  Uiso   1.00
C532   C     0.91311   0.21313   0.99749   0.00000  Uiso   1.00
C533   C     0.92550   0.23269   0.94850   0.00000  Uiso   1.00
C534   C     0.88048   0.21938   0.91855   0.00000  Uiso   1.00
C535   C     0.84236   0.16350   0.56768   0.00000  Uiso   1.00
C536   C     0.94689   0.20920   0.57703   0.00000  Uiso   1.00
C537   C     0.77916   0.16521   0.90335   0.00000  Uiso   1.00
H538   H     0.79864   0.13778   0.58450   0.00000  Uiso   1.00
H539   H     0.68359   0.12475   0.90030   0.00000  Uiso   1.00
H540   H     0.72542   0.13340   0.54724   0.00000  Uiso   1.00
H541   H     0.98487   0.10890   0.99196   0.00000  Uiso   1.00
H542   H     0.89170   0.23790   0.88193   0.00000  Uiso   1.00
C543   C     0.85637   0.32248   0.75043   0.00000  Uiso   1.00
H544   H     0.89612   0.01243   0.76512   0.00000  Uiso   1.00
C545   C     0.81319   0.01131   0.73793   0.00000  Uiso   1.00
N546   N     0.98241   0.18074   0.76416   0.00000  Uiso   1.00
H547   H     0.67039   0.20594   0.78958   0.00000  Uiso   1.00
N548   N     0.68426   0.15259   0.73584   0.00000  Uiso   1.00
H549   H     0.99627   0.12740   0.71042   0.00000  Uiso   1.00
N550   N     0.76383   0.31598   0.71327   0.00000  Uiso   1.00
O551   O     0.70550   0.31871   0.73158   0.00000  Uiso   1.00
O552   O     0.77819   0.29270   0.66911   0.00000  Uiso   1.00
O553   O     0.12797   0.57141   0.74633   0.00000  Uiso   1.00
O554   O     0.22858   0.58089   0.75587   0.00000  Uiso   1.00
C555   C     0.18215   0.59999   0.74997   0.00000  Uiso   1.00
O556   O     0.09181   0.49293   0.81840   0.00000  Uiso   1.00
O557   O     0.19242   0.50241   0.82793   0.00000  Uiso   1.00
C558   C     0.13321   0.49941   0.84724   0.00000  Uiso   1.00
Cu559  Cu    0.10710   0.49439   0.74436   0.00000  Uiso   1.00
Cu560  Cu    0.22623   0.50561   0.75565   0.00000  Uiso   1.00
O561   O     0.10476   0.41911   0.74414   0.00000  Uiso   1.00
O562   O     0.20536   0.42859   0.75367   0.00000  Uiso   1.00
O563   O     0.14092   0.49759   0.67207   0.00000  Uiso   1.00
O564   O     0.24152   0.50707   0.68161   0.00000  Uiso   1.00
C565   C     0.15233   0.40007   0.74640   0.00000  Uiso   1.00
C566   C     0.20054   0.50374   0.65295   0.00000  Uiso   1.00
C567   C     0.29311   0.55921   0.52685   0.00000  Uiso   1.00
H568   H     0.31557   0.55505   0.60003   0.00000  Uiso   1.00
H569   H     0.30361   0.59186   0.93322   0.00000  Uiso   1.00
H570   H     0.00572   0.58323   0.51140   0.00000  Uiso   1.00
C571   C     0.22078   0.51245   0.59794   0.00000  Uiso   1.00
C572   C     0.05083   0.47231   0.92430   0.00000  Uiso   1.00
C573   C     0.03273   0.46226   0.97615   0.00000  Uiso   1.00
C574   C     0.07634   0.47616   0.50753   0.00000  Uiso   1.00
C575   C     0.13921   0.50264   0.98784   0.00000  Uiso   1.00
C576   C     0.15544   0.51798   0.93607   0.00000  Uiso   1.00
C577   C     0.18633   0.51497   0.51789   0.00000  Uiso   1.00
C578   C     0.24644   0.54646   0.99749   0.00000  Uiso   1.00
C579   C     0.25883   0.56602   0.94850   0.00000  Uiso   1.00
C580   C     0.21381   0.55272   0.91855   0.00000  Uiso   1.00
C581   C     0.17569   0.49683   0.56768   0.00000  Uiso   1.00
C582   C     0.28022   0.54254   0.57703   0.00000  Uiso   1.00
C583   C     0.11249   0.49855   0.90335   0.00000  Uiso   1.00
H584   H     0.13197   0.47112   0.58450   0.00000  Uiso   1.00
H585   H     0.01692   0.45808   0.90030   0.00000  Uiso   1.00
H586   H     0.05875   0.46673   0.54724   0.00000  Uiso   1.00
H587   H     0.31820   0.44224   0.99196   0.00000  Uiso   1.00
H588   H     0.22503   0.57123   0.88193   0.00000  Uiso   1.00
C589   C     0.18970   0.65582   0.75043   0.00000  Uiso   1.00
H590   H     0.22946   0.34576   0.76512   0.00000  Uiso   1.00
C591   C     0.14652   0.34465   0.73793   0.00000  Uiso   1.00
N592   N     0.31574   0.51407   0.76416   0.00000  Uiso   1.00
H593   H     0.00372   0.53927   0.78958   0.00000  Uiso   1.00
N594   N     0.01759   0.48593   0.73584   0.00000  Uiso   1.00
H595   H     0.32961   0.46074   0.71042   0.00000  Uiso   1.00
N596   N     0.09717   0.64931   0.71327   0.00000  Uiso   1.00
O597   O     0.03883   0.65204   0.73158   0.00000  Uiso   1.00
O598   O     0.11152   0.62603   0.66911   0.00000  Uiso   1.00
O599   O     0.46131   0.57141   0.74633   0.00000  Uiso   1.00
O600   O     0.56191   0.58089   0.75587   0.00000  Uiso   1.00
C601   C     0.51548   0.59999   0.74997   0.00000  Uiso   1.00
O602   O     0.42515   0.49293   0.81840   0.00000  Uiso   1.00
O603   O     0.52575   0.50241   0.82793   0.00000  Uiso   1.00
C604   C     0.46654   0.49941   0.84724   0.00000  Uiso   1.00
Cu605  Cu    0.44043   0.49439   0.74436   0.00000  Uiso   1.00
Cu606  Cu    0.55957   0.50561   0.75565   0.00000  Uiso   1.00
O607   O     0.43809   0.41911   0.74414   0.00000  Uiso   1.00
O608   O     0.53869   0.42859   0.75367   0.00000  Uiso   1.00
O609   O     0.47425   0.49759   0.67207   0.00000  Uiso   1.00
O610   O     0.57485   0.50707   0.68161   0.00000  Uiso   1.00
C611   C     0.48567   0.40007   0.74640   0.00000  Uiso   1.00
C612   C     0.53388   0.50374   0.65295   0.00000  Uiso   1.00
C613   C     0.62644   0.55921   0.52685   0.00000  Uiso   1.00
H614   H     0.64891   0.55505   0.60003   0.00000  Uiso   1.00
H615   H     0.63694   0.59186   0.93322   0.00000  Uiso   1.00
H616   H     0.33905   0.58323   0.51140   0.00000  Uiso   1.00
C617   C     0.55412   0.51245   0.59794   0.00000  Uiso   1.00
C618   C     0.38417   0.47231   0.92430   0.00000  Uiso   1.00
C619   C     0.36606   0.46226   0.97615   0.00000  Uiso   1.00
C620   C     0.40967   0.47616   0.50753   0.00000  Uiso   1.00
C621   C     0.47254   0.50264   0.98784   0.00000  Uiso   1.00
C622   C     0.48878   0.51798   0.93607   0.00000  Uiso   1.00
C623   C     0.51967   0.51497   0.51789   0.00000  Uiso   1.00
C624   C     0.57977   0.54646   0.99749   0.00000  Uiso   1.00
C625   C     0.59217   0.56602   0.94850   0.00000  Uiso   1.00
C626   C     0.54715   0.55272   0.91855   0.00000  Uiso   1.00
C627   C     0.50902   0.49683   0.56768   0.00000  Uiso   1.00
C628   C     0.61356   0.54254   0.57703   0.00000  Uiso   1.00
C629   C     0.44583   0.49855   0.90335   0.00000  Uiso   1.00
H630   H     0.46531   0.47112   0.58450   0.00000  Uiso   1.00
H631   H     0.35025   0.45808   0.90030   0.00000  Uiso   1.00
H632   H     0.39209   0.46673   0.54724   0.00000  Uiso   1.00
H633   H     0.65153   0.44224   0.99196   0.00000  Uiso   1.00
H634   H     0.55836   0.57123   0.88193   0.00000  Uiso   1.00
C635   C     0.52304   0.65582   0.75043   0.00000  Uiso   1.00
H636   H     0.56279   0.34576   0.76512   0.00000  Uiso   1.00
C637   C     0.47986   0.34465   0.73793   0.00000  Uiso   1.00
N638   N     0.64908   0.51407   0.76416   0.00000  Uiso   1.00
H639   H     0.33705   0.53927   0.78958   0.00000  Uiso   1.00
N640   N     0.35092   0.48593   0.73584   0.00000  Uiso   1.00
H641   H     0.66294   0.46074   0.71042   0.00000  Uiso   1.00
N642   N     0.43050   0.64931   0.71327   0.00000  Uiso   1.00
O643   O     0.37217   0.65204   0.73158   0.00000  Uiso   1.00
O644   O     0.44485   0.62603   0.66911   0.00000  Uiso   1.00
O645   O     0.79464   0.57141   0.74633   0.00000  Uiso   1.00
O646   O     0.89524   0.58089   0.75587   0.00000  Uiso   1.00
C647   C     0.84882   0.59999   0.74997   0.00000  Uiso   1.00
O648   O     0.75848   0.49293   0.81840   0.00000  Uiso   1.00
O649   O     0.85908   0.50241   0.82793   0.00000  Uiso   1.00
C650   C     0.79987   0.49941   0.84724   0.00000  Uiso   1.00
Cu651  Cu    0.77377   0.49439   0.74436   0.00000  Uiso   1.00
Cu652  Cu    0.89290   0.50561   0.75565   0.00000  Uiso   1.00
O653   O     0.77142   0.41911   0.74414   0.00000  Uiso   1.00
O654   O     0.87203   0.42859   0.75367   0.00000  Uiso   1.00
O655   O     0.80758   0.49759   0.67207   0.00000  Uiso   1.00
O656   O     0.90819   0.50707   0.68161   0.00000  Uiso   1.00
C657   C     0.81900   0.40007   0.74640   0.00000  Uiso   1.00
C658   C     0.86721   0.50374   0.65295   0.00000  Uiso   1.00
C659   C     0.95978   0.55921   0.52685   0.00000  Uiso   1.00
H660   H     0.98224   0.55505   0.60003   0.00000  Uiso   1.00
H661   H     0.97027   0.59186   0.93322   0.00000  Uiso   1.00
H662   H     0.67239   0.58323   0.51140   0.00000  Uiso   1.00
C663   C     0.88745   0.51245   0.59794   0.00000  Uiso   1.00
C664   C     0.71750   0.47231   0.92430   0.00000  Uiso   1.00
C665   C     0.69940   0.46226   0.97615   0.00000  Uiso   1.00
C666   C     0.74300   0.47616   0.50753   0.00000  Uiso   1.00
C667   C     0.80588   0.50264   0.98784   0.00000  Uiso   1.00
C668   C     0.82211   0.51798   0.93607   0.00000  Uiso   1.00
C669   C     0.85300   0.51497   0.51789   0.00000  Uiso   1.00
C670   C     0.91311   0.54646   0.99749   0.00000  Uiso   1.00
C671   C     0.92550   0.56602   0.94850   0.00000  Uiso   1.00
C672   C     0.88048   0.55272   0.91855   0.00000  Uiso   1.00
C673   C     0.84236   0.49683   0.56768   0.00000  Uiso   1.00
C674   C     0.94689   0.54254   0.57703   0.00000  Uiso   1.00
C675   C     0.77916   0.49855   0.90335   0.00000  Uiso   1.00
H676   H     0.79864   0.47112   0.58450   0.00000  Uiso   1.00
H677   H     0.68359   0.45808   0.90030   0.00000  Uiso   1.00
H678   H     0.72542   0.46673   0.54724   0.00000  Uiso   1.00
H679   H     0.98487   0.44224   0.99196   0.00000  Uiso   1.00
H680   H     0.89170   0.57123   0.88193   0.00000  Uiso   1.00
C681   C     0.85637   0.65582   0.75043   0.00000  Uiso   1.00
H682   H     0.89612   0.34576   0.76512   0.00000  Uiso   1.00
C683   C     0.81319   0.34465   0.73793   0.00000  Uiso   1.00
N684   N     0.98241   0.51407   0.76416   0.00000  Uiso   1.00
H685   H     0.67039   0.53927   0.78958   0.00000  Uiso   1.00
N686   N     0.68426   0.48593   0.73584   0.00000  Uiso   1.00
H687   H     0.99627   0.46074   0.71042   0.00000  Uiso   1.00
N688   N     0.76383   0.64931   0.71327   0.00000  Uiso   1.00
O689   O     0.70550   0.65204   0.73158   0.00000  Uiso   1.00
O690   O     0.77819   0.62603   0.66911   0.00000  Uiso   1.00
O691   O     0.12797   0.90474   0.74633   0.00000  Uiso   1.00
O692   O     0.22858   0.91422   0.75587   0.00000  Uiso   1.00
C693   C     0.18215   0.93333   0.74997   0.00000  Uiso   1.00
O694   O     0.09181   0.82627   0.81840   0.00000  Uiso   1.00
O695   O     0.19242   0.83575   0.82793   0.00000  Uiso   1.00
C696   C     0.13321   0.83274   0.84724   0.00000  Uiso   1.00
Cu697  Cu    0.10710   0.82772   0.74436   0.00000  Uiso   1.00
Cu698  Cu    0.22623   0.83895   0.75565   0.00000  Uiso   1.00
O699   O     0.10476   0.75245   0.74414   0.00000  Uiso   1.00
O700   O     0.20536   0.76193   0.75367   0.00000  Uiso   1.00
O701   O     0.14092   0.83092   0.67207   0.00000  Uiso   1.00
O702   O     0.24152   0.84040   0.68161   0.00000  Uiso   1.00
C703   C     0.15233   0.73341   0.74640   0.00000  Uiso   1.00
C704   C     0.20054   0.83708   0.65295   0.00000  Uiso   1.00
C705   C     0.29311   0.89255   0.52685   0.00000  Uiso   1.00
H706   H     0.31557   0.88838   0.60003   0.00000  Uiso   1.00
H707   H     0.30361   0.92519   0.93322   0.00000  Uiso   1.00
H708   H     0.00572   0.91656   0.51140   0.00000  Uiso   1.00
C709   C     0.22078   0.84578   0.59794   0.00000  Uiso   1.00
C710   C     0.05083   0.80565   0.92430   0.00000  Uiso   1.00
C711   C     0.03273   0.79560   0.97615   0.00000  Uiso   1.00
C712   C     0.07634   0.80949   0.50753   0.00000  Uiso   1.00
C713   C     0.13921   0.83597   0.98784   0.00000  Uiso   1.00
C714   C     0.15544   0.85131   0.93607   0.00000  Uiso   1.00
C715   C     0.18633   0.84830   0.51789   0.00000  Uiso   1.00
C716   C     0.24644   0.87979   0.99749   0.00000  Uiso   1.00
C717   C     0.25883   0.89936   0.94850   0.00000  Uiso   1.00
C718   C     0.21381   0.88605   0.91855   0.00000  Uiso   1.00
C719   C     0.17569   0.83016   0.56768   0.00000  Uiso   1.00
C720   C     0.28022   0.87587   0.57703   0.00000  Uiso   1.00
C721   C     0.11249   0.83188   0.90335   0.00000  Uiso   1.00
H722   H     0.13197   0.80445   0.58450   0.00000  Uiso   1.00
H723   H     0.01692   0.79142   0.90030   0.00000  Uiso   1.00
H724   H     0.05875   0.80007   0.54724   0.00000  Uiso   1.00
H725   H     0.31820   0.77557   0.99196   0.00000  Uiso   1.00
H726   H     0.22503   0.90457   0.88193   0.00000  Uiso   1.00
C727   C     0.18970   0.98915   0.75043   0.00000  Uiso   1.00
H728   H     0.22946   0.67909   0.76512   0.00000  Uiso   1.00
C729   C     0.14652   0.67798   0.73793   0.00000  Uiso   1.00
N730   N     0.31574   0.84741   0.76416   0.00000  Uiso   1.00
H731   H     0.00372   0.87260   0.78958   0.00000  Uiso   1.00
N732   N     0.01759   0.81926   0.73584   0.00000  Uiso   1.00
H733   H     0.32961   0.79407   0.71042   0.00000  Uiso   1.00
N734   N     0.09717   0.98264   0.71327   0.00000  Uiso   1.00
O735   O     0.03883   0.98537   0.73158   0.00000  Uiso   1.00
O736   O     0.11152   0.95937   0.66911   0.00000  Uiso   1.00
O737   O     0.46131   0.90474   0.74633   0.00000  Uiso   1.00
O738   O     0.56191   0.91422   0.75587   0.00000  Uiso   1.00
C739   C     0.51548   0.93333   0.74997   0.00000  Uiso   1.00
O740   O     0.42515   0.82627   0.81840   0.00000  Uiso   1.00
O741   O     0.52575   0.83575   0.82793   0.00000  Uiso   1.00
C742   C     0.46654   0.83274   0.84724   0.00000  Uiso   1.00
Cu743  Cu    0.44043   0.82772   0.74436   0.00000  Uiso   1.00
Cu744  Cu    0.55957   0.83895   0.75565   0.00000  Uiso   1.00
O745   O     0.43809   0.75245   0.74414   0.00000  Uiso   1.00
O746   O     0.53869   0.76193   0.75367   0.00000  Uiso   1.00
O747   O     0.47425   0.83092   0.67207   0.00000  Uiso   1.00
O748   O     0.57485   0.84040   0.68161   0.00000  Uiso   1.00
C749   C     0.48567   0.73341   0.74640   0.00000  Uiso   1.00
C750   C     0.53388   0.83708   0.65295   0.00000  Uiso   1.00
C751   C     0.62644   0.89255   0.52685   0.00000  Uiso   1.00
H752   H     0.64891   0.88838   0.60003   0.00000  Uiso   1.00
H753   H     0.63694   0.92519   0.93322   0.00000  Uiso   1.00
H754   H     0.33905   0.91656   0.51140   0.00000  Uiso   1.00
C755   C     0.55412   0.84578   0.59794   0.00000  Uiso   1.00
C756   C     0.38417   0.80565   0.92430   0.00000  Uiso   1.00
C757   C     0.36606   0.79560   0.97615   0.00000  Uiso   1.00
C758   C     0.40967   0.80949   0.50753   0.00000  Uiso   1.00
C759   C     0.47254   0.83597   0.98784   0.00000  Uiso   1.00
C760   C     0.48878   0.85131   0.93607   0.00000  Uiso   1.00
C761   C     0.51967   0.84830   0.51789   0.00000  Uiso   1.00
C762   C     0.57977   0.87979   0.99749   0.00000  Uiso   1.00
C763   C     0.59217   0.89936   0.94850   0.00000  Uiso   1.00
C764   C     0.54715   0.88605   0.91855   0.00000  Uiso   1.00
C765   C     0.50902   0.83016   0.56768   0.00000  Uiso   1.00
C766   C     0.61356   0.87587   0.57703   0.00000  Uiso   1.00
C767   C     0.44583   0.83188   0.90335   0.00000  Uiso   1.00
H768   H     0.46531   0.80445   0.58450   0.00000  Uiso   1.00
H769   H     0.35025   0.79142   0.90030   0.00000  Uiso   1.00
H770   H     0.39209   0.80007   0.54724   0.00000  Uiso   1.00
H771   H     0.65153   0.77557   0.99196   0.00000  Uiso   1.00
H772   H     0.55836   0.90457   0.88193   0.00000  Uiso   1.00
C773   C     0.52304   0.98915   0.75043   0.00000  Uiso   1.00
H774   H     0.56279   0.67909   0.76512   0.00000  Uiso   1.00
C775   C     0.47986   0.67798   0.73793   0.00000  Uiso   1.00
N776   N     0.64908   0.84741   0.76416   0.00000  Uiso   1.00
H777   H     0.33705   0.87260   0.78958   0.00000  Uiso   1.00
N778   N     0.35092   0.81926   0.73584   0.00000  Uiso   1.00
H779   H     0.66294   0.79407   0.71042   0.00000  Uiso   1.00
N780   N     0.43050   0.98264   0.71327   0.00000  Uiso   1.00
O781   O     0.37217   0.98537   0.73158   0.00000  Uiso   1.00
O782   O     0.44485   0.95937   0.66911   0.00000  Uiso   1.00
O783   O     0.79464   0.90474   0.74633   0.00000  Uiso   1.00
O784   O     0.89524   0.91422   0.75587   0.00000  Uiso   1.00
C785   C     0.84882   0.93333   0.74997   0.00000  Uiso   1.00
O786   O     0.75848   0.82627   0.81840   0.00000  Uiso   1.00
O787   O     0.85908   0.83575   0.82793   0.00000  Uiso   1.00
C788   C     0.79987   0.83274   0.84724   0.00000  Uiso   1.00
Cu789  Cu    0.77377   0.82772   0.74436   0.00000  Uiso   1.00
Cu790  Cu    0.89290   0.83895   0.75565   0.00000  Uiso   1.00
O791   O     0.77142   0.75245   0.74414   0.00000  Uiso   1.00
O792   O     0.87203   0.76193   0.75367   0.00000  Uiso   1.00
O793   O     0.80758   0.83092   0.67207   0.00000  Uiso   1.00
O794   O     0.90819   0.84040   0.68161   0.00000  Uiso   1.00
C795   C     0.81900   0.73341   0.74640   0.00000  Uiso   1.00
C796   C     0.86721   0.83708   0.65295   0.00000  Uiso   1.00
C797   C     0.95978   0.89255   0.52685   0.00000  Uiso   1.00
H798   H     0.98224   0.88838   0.60003   0.00000  Uiso   1.00
H799   H     0.97027   0.92519   0.93322   0.00000  Uiso   1.00
H800   H     0.67239   0.91656   0.51140   0.00000  Uiso   1.00
C801   C     0.88745   0.84578   0.59794   0.00000  Uiso   1.00
C802   C     0.71750   0.80565   0.92430   0.00000  Uiso   1.00
C803   C     0.69940   0.79560   0.97615   0.00000  Uiso   1.00
C804   C     0.74300   0.80949   0.50753   0.00000  Uiso   1.00
C805   C     0.80588   0.83597   0.98784   0.00000  Uiso   1.00
C806   C     0.82211   0.85131   0.93607   0.00000  Uiso   1.00
C807   C     0.85300   0.84830   0.51789   0.00000  Uiso   1.00
C808   C     0.91311   0.87979   0.99749   0.00000  Uiso   1.00
C809   C     0.92550   0.89936   0.94850   0.00000  Uiso   1.00
C810   C     0.88048   0.88605   0.91855   0.00000  Uiso   1.00
C811   C     0.84236   0.83016   0.56768   0.00000  Uiso   1.00
C812   C     0.94689   0.87587   0.57703   0.00000  Uiso   1.00
C813   C     0.77916   0.83188   0.90335   0.00000  Uiso   1.00
H814   H     0.79864   0.80445   0.58450   0.00000  Uiso   1.00
H815   H     0.68359   0.79142   0.90030   0.00000  Uiso   1.00
H816   H     0.72542   0.80007   0.54724   0.00000  Uiso   1.00
H817   H     0.98487   0.77557   0.99196   0.00000  Uiso   1.00
H818   H     0.89170   0.90457   0.88193   0.00000  Uiso   1.00
C819   C     0.85637   0.98915   0.75043   0.00000  Uiso   1.00
H820   H     0.89612   0.67909   0.76512   0.00000  Uiso   1.00
C821   C     0.81319   0.67798   0.73793   0.00000  Uiso   1.00
N822   N     0.98241   0.84741   0.76416   0.00000  Uiso   1.00
H823   H     0.67039   0.87260   0.78958   0.00000  Uiso   1.00
N824   N     0.68426   0.81926   0.73584   0.00000  Uiso   1.00
H825   H     0.99627   0.79407   0.71042   0.00000  Uiso   1.00
N826   N     0.76383   0.98264   0.71327   0.00000  Uiso   1.00
O827   O     0.70550   0.98537   0.73158   0.00000  Uiso   1.00
O828   O     0.77819   0.95937   0.66911   0.00000  Uiso   1.00
loop_
_geom_bond_atom_site_label_1
_geom_bond_atom_site_label_2
_geom_bond_distance
_geom_bond_site_symmetry_2
_ccdc_geom_bond_type
O1     Cu7     1.962   .     S
O1     C3      1.287   .     A
O2     C3      1.289   .     A
O2     Cu8     1.957   .     S
C3     C37     1.431   .     S
O4     Cu7     1.941   .     S
O4     C6      1.303   .     A
O5     Cu8     1.921   .     S
O5     C6      1.294   .     A
C6     C31     1.475   .     S
Cu7    Cu8     2.684   .     S
Cu7    O11     1.921   .     S
Cu7    N42     2.017   .     S
Cu7    O9      1.957   .     S
Cu8    O12     1.941   .     S
Cu8    O10     1.962   .     S
Cu8    N40     2.017   .     S
O9     C13     1.283   .     A
O10    C13     1.292   .     A
O11    C14     1.293   .     A
O12    C14     1.300   .     A
C13    C39     1.432   .     S
C14    C19     1.464   .     S
C15    C30     1.393   .     A
C15    H64     1.084   .     S
C15    C440    1.405   1_554 S
H16    C30     1.083   .     S
H17    C27     1.084   .     S
H18    C107    1.084   1_455 S
C19    C30     1.398   .     A
C19    C29     1.399   .     A
C20    C21     1.387   .     A
C20    H33     1.083   .     S
C20    C31     1.402   .     A
C21    C436    1.391   .     S
C21    H127    1.083   1_455 S
C22    H34     1.077   .     S
C22    C435    1.391   1_554 S
C22    C437    1.418   1_554 S
C23    C24     1.419   .     A
C23    C436    1.418   .     S
C23    C439    1.426   .     S
C24    C31     1.423   .     A
C24    C28     1.413   .     A
C25    C29     1.402   .     A
C25    C437    1.426   1_554 S
C25    C440    1.420   1_554 S
C26    C27     1.392   .     A
C26    C439    1.420   .     S
C26    C429    1.405   .     S
C27    C28     1.387   .     A
C28    H36     1.080   .     S
C29    H32     1.077   .     S
H35    C67     1.083   .     S
C37    H176    1.088   .     S
C37    C177    1.340   .     S
H38    C313    1.088   1_545 S
C39    C313    1.340   1_545 S
C39    N320    1.442   1_545 S
N40    H87     1.029   .     S
N40    N88     1.286   .     S
H41    N132    1.029   1_455 S
N42    N132    1.286   1_455 S
N42    H135    1.029   1_455 S
H43    N88     1.029   .     S
N44    O45     1.301   .     A
N44    O46     1.302   .     A
N44    C177    1.442   .     S
O47    Cu53    1.962   .     S
O47    C49     1.287   .     A
O48    C49     1.289   .     A
O48    Cu54    1.957   .     S
C49    C83     1.431   .     S
O50    Cu53    1.941   .     S
O50    C52     1.303   .     A
O51    Cu54    1.921   .     S
O51    C52     1.294   .     A
C52    C77     1.475   .     S
Cu53   Cu54    2.684   .     S
Cu53   O57     1.921   .     S
Cu53   N88     2.017   .     S
Cu53   O55     1.957   .     S
Cu54   O58     1.941   .     S
Cu54   O56     1.962   .     S
Cu54   N86     2.017   .     S
O55    C59     1.283   .     A
O56    C59     1.292   .     A
O57    C60     1.293   .     A
O58    C60     1.300   .     A
C59    C85     1.432   .     S
C60    C65     1.464   .     S
C61    C76     1.393   .     A
C61    H110    1.084   .     S
C61    C486    1.405   1_554 S
H62    C76     1.083   .     S
H63    C73     1.084   .     S
C65    C76     1.398   .     A
C65    C75     1.399   .     A
C66    C67     1.387   .     A
C66    H79     1.083   .     S
C66    C77     1.402   .     A
C67    C482    1.391   .     S
C68    H80     1.077   .     S
C68    C481    1.391   1_554 S
C68    C483    1.418   1_554 S
C69    C70     1.419   .     A
C69    C482    1.418   .     S
C69    C485    1.426   .     S
C70    C77     1.423   .     A
C70    C74     1.413   .     A
C71    C75     1.402   .     A
C71    C483    1.426   1_554 S
C71    C486    1.420   1_554 S
C72    C73     1.392   .     A
C72    C485    1.420   .     S
C72    C475    1.405   .     S
C73    C74     1.387   .     A
C74    H82     1.080   .     S
C75    H78     1.077   .     S
H81    C113    1.083   .     S
C83    H222    1.088   .     S
C83    C223    1.340   .     S
H84    C359    1.088   1_545 S
C85    C359    1.340   1_545 S
C85    N366    1.442   1_545 S
N86    H133    1.029   .     S
N86    N134    1.286   .     S
H89    N134    1.029   .     S
N90    O91     1.301   .     A
N90    O92     1.302   .     A
N90    C223    1.442   .     S
O93    Cu99    1.962   .     S
O93    C95     1.287   .     A
O94    C95     1.289   .     A
O94    Cu100   1.957   .     S
C95    C129    1.431   .     S
O96    Cu99    1.941   .     S
O96    C98     1.303   .     A
O97    Cu100   1.921   .     S
O97    C98     1.294   .     A
C98    C123    1.475   .     S
Cu99   Cu100   2.684   .     S
Cu99   O103    1.921   .     S
Cu99   N134    2.017   .     S
Cu99   O101    1.957   .     S
Cu100  O104    1.941   .     S
Cu100  O102    1.962   .     S
Cu100  N132    2.017   .     S
O101   C105    1.283   .     A
O102   C105    1.292   .     A
O103   C106    1.293   .     A
O104   C106    1.300   .     A
C105   C131    1.432   .     S
C106   C111    1.464   .     S
C107   C122    1.393   .     A
C107   H18     1.084   1_655 S
C107   C532    1.405   1_554 S
H108   C122    1.083   .     S
H109   C119    1.084   .     S
C111   C122    1.398   .     A
C111   C121    1.399   .     A
C112   C113    1.387   .     A
C112   H125    1.083   .     S
C112   C123    1.402   .     A
C113   C528    1.391   .     S
C114   H126    1.077   .     S
C114   C527    1.391   1_554 S
C114   C529    1.418   1_554 S
C115   C116    1.419   .     A
C115   C528    1.418   .     S
C115   C531    1.426   .     S
C116   C123    1.423   .     A
C116   C120    1.413   .     A
C117   C121    1.402   .     A
C117   C529    1.426   1_554 S
C117   C532    1.420   1_554 S
C118   C119    1.392   .     A
C118   C531    1.420   .     S
C118   C521    1.405   .     S
C119   C120    1.387   .     A
C120   H128    1.080   .     S
C121   H124    1.077   .     S
H127   C21     1.083   1_655 S
C129   H268    1.088   .     S
C129   C269    1.340   .     S
H130   C405    1.088   1_545 S
C131   C405    1.340   1_545 S
C131   N412    1.442   1_545 S
N132   H41     1.029   1_655 S
N132   N42     1.286   1_655 S
H135   N42     1.029   1_655 S
N136   O137    1.301   .     A
N136   O138    1.302   .     A
N136   C269    1.442   .     S
O139   Cu145   1.962   .     S
O139   C141    1.287   .     A
O140   C141    1.289   .     A
O140   Cu146   1.957   .     S
C141   C175    1.431   .     S
O142   Cu145   1.941   .     S
O142   C144    1.303   .     A
O143   Cu146   1.921   .     S
O143   C144    1.294   .     A
C144   C169    1.475   .     S
Cu145  Cu146   2.684   .     S
Cu145  O149    1.921   .     S
Cu145  N180    2.017   .     S
Cu145  O147    1.957   .     S
Cu146  O150    1.941   .     S
Cu146  O148    1.962   .     S
Cu146  N178    2.017   .     S
O147   C151    1.283   .     A
O148   C151    1.292   .     A
O149   C152    1.293   .     A
O150   C152    1.300   .     A
C151   C177    1.432   .     S
C152   C157    1.464   .     S
C153   C168    1.393   .     A
C153   H202    1.084   .     S
C153   C578    1.405   1_554 S
H154   C168    1.083   .     S
H155   C165    1.084   .     S
H156   C245    1.084   1_455 S
C157   C168    1.398   .     A
C157   C167    1.399   .     A
C158   C159    1.387   .     A
C158   H171    1.083   .     S
C158   C169    1.402   .     A
C159   C574    1.391   .     S
C159   H265    1.083   1_455 S
C160   H172    1.077   .     S
C160   C573    1.391   1_554 S
C160   C575    1.418   1_554 S
C161   C162    1.419   .     A
C161   C574    1.418   .     S
C161   C577    1.426   .     S
C162   C169    1.423   .     A
C162   C166    1.413   .     A
C163   C167    1.402   .     A
C163   C575    1.426   1_554 S
C163   C578    1.420   1_554 S
C164   C165    1.392   .     A
C164   C577    1.420   .     S
C164   C567    1.405   .     S
C165   C166    1.387   .     A
C166   H174    1.080   .     S
C167   H170    1.077   .     S
H173   C205    1.083   .     S
C175   H314    1.088   .     S
C175   C315    1.340   .     S
N178   H225    1.029   .     S
N178   N226    1.286   .     S
H179   N270    1.029   1_455 S
N180   N270    1.286   1_455 S
N180   H273    1.029   1_455 S
H181   N226    1.029   .     S
N182   O183    1.301   .     A
N182   O184    1.302   .     A
N182   C315    1.442   .     S
O185   Cu191   1.962   .     S
O185   C187    1.287   .     A
O186   C187    1.289   .     A
O186   Cu192   1.957   .     S
C187   C221    1.431   .     S
O188   Cu191   1.941   .     S
O188   C190    1.303   .     A
O189   Cu192   1.921   .     S
O189   C190    1.294   .     A
C190   C215    1.475   .     S
Cu191  Cu192   2.684   .     S
Cu191  O195    1.921   .     S
Cu191  N226    2.017   .     S
Cu191  O193    1.957   .     S
Cu192  O196    1.941   .     S
Cu192  O194    1.962   .     S
Cu192  N224    2.017   .     S
O193   C197    1.283   .     A
O194   C197    1.292   .     A
O195   C198    1.293   .     A
O196   C198    1.300   .     A
C197   C223    1.432   .     S
C198   C203    1.464   .     S
C199   C214    1.393   .     A
C199   H248    1.084   .     S
C199   C624    1.405   1_554 S
H200   C214    1.083   .     S
H201   C211    1.084   .     S
C203   C214    1.398   .     A
C203   C213    1.399   .     A
C204   C205    1.387   .     A
C204   H217    1.083   .     S
C204   C215    1.402   .     A
C205   C620    1.391   .     S
C206   H218    1.077   .     S
C206   C619    1.391   1_554 S
C206   C621    1.418   1_554 S
C207   C208    1.419   .     A
C207   C620    1.418   .     S
C207   C623    1.426   .     S
C208   C215    1.423   .     A
C208   C212    1.413   .     A
C209   C213    1.402   .     A
C209   C621    1.426   1_554 S
C209   C624    1.420   1_554 S
C210   C211    1.392   .     A
C210   C623    1.420   .     S
C210   C613    1.405   .     S
C211   C212    1.387   .     A
C212   H220    1.080   .     S
C213   H216    1.077   .     S
H219   C251    1.083   .     S
C221   H360    1.088   .     S
C221   C361    1.340   .     S
N224   H271    1.029   .     S
N224   N272    1.286   .     S
H227   N272    1.029   .     S
N228   O229    1.301   .     A
N228   O230    1.302   .     A
N228   C361    1.442   .     S
O231   Cu237   1.962   .     S
O231   C233    1.287   .     A
O232   C233    1.289   .     A
O232   Cu238   1.957   .     S
C233   C267    1.431   .     S
O234   Cu237   1.941   .     S
O234   C236    1.303   .     A
O235   Cu238   1.921   .     S
O235   C236    1.294   .     A
C236   C261    1.475   .     S
Cu237  Cu238   2.684   .     S
Cu237  O241    1.921   .     S
Cu237  N272    2.017   .     S
Cu237  O239    1.957   .     S
Cu238  O242    1.941   .     S
Cu238  O240    1.962   .     S
Cu238  N270    2.017   .     S
O239   C243    1.283   .     A
O240   C243    1.292   .     A
O241   C244    1.293   .     A
O242   C244    1.300   .     A
C243   C269    1.432   .     S
C244   C249    1.464   .     S
C245   C260    1.393   .     A
C245   H156    1.084   1_655 S
C245   C670    1.405   1_554 S
H246   C260    1.083   .     S
H247   C257    1.084   .     S
C249   C260    1.398   .     A
C249   C259    1.399   .     A
C250   C251    1.387   .     A
C250   H263    1.083   .     S
C250   C261    1.402   .     A
C251   C666    1.391   .     S
C252   H264    1.077   .     S
C252   C665    1.391   1_554 S
C252   C667    1.418   1_554 S
C253   C254    1.419   .     A
C253   C666    1.418   .     S
C253   C669    1.426   .     S
C254   C261    1.423   .     A
C254   C258    1.413   .     A
C255   C259    1.402   .     A
C255   C667    1.426   1_554 S
C255   C670    1.420   1_554 S
C256   C257    1.392   .     A
C256   C669    1.420   .     S
C256   C659    1.405   .     S
C257   C258    1.387   .     A
C258   H266    1.080   .     S
C259   H262    1.077   .     S
H265   C159    1.083   1_655 S
C267   H406    1.088   .     S
C267   C407    1.340   .     S
N270   H179    1.029   1_655 S
N270   N180    1.286   1_655 S
H273   N180    1.029   1_655 S
N274   O275    1.301   .     A
N274   O276    1.302   .     A
N274   C407    1.442   .     S
O277   Cu283   1.962   .     S
O277   C279    1.287   .     A
O278   C279    1.289   .     A
O278   Cu284   1.957   .     S
C279   C313    1.431   .     S
O280   Cu283   1.941   .     S
O280   C282    1.303   .     A
O281   Cu284   1.921   .     S
O281   C282    1.294   .     A
C282   C307    1.475   .     S
Cu283  Cu284   2.684   .     S
Cu283  O287    1.921   .     S
Cu283  N318    2.017   .     S
Cu283  O285    1.957   .     S
Cu284  O288    1.941   .     S
Cu284  O286    1.962   .     S
Cu284  N316    2.017   .     S
O285   C289    1.283   .     A
O286   C289    1.292   .     A
O287   C290    1.293   .     A
O288   C290    1.300   .     A
C289   C315    1.432   .     S
C290   C295    1.464   .     S
C291   C306    1.393   .     A
C291   H340    1.084   .     S
C291   C716    1.405   1_554 S
H292   C306    1.083   .     S
H293   C303    1.084   .     S
H294   C383    1.084   1_455 S
C295   C306    1.398   .     A
C295   C305    1.399   .     A
C296   C297    1.387   .     A
C296   H309    1.083   .     S
C296   C307    1.402   .     A
C297   C712    1.391   .     S
C297   H403    1.083   1_455 S
C298   H310    1.077   .     S
C298   C711    1.391   1_554 S
C298   C713    1.418   1_554 S
C299   C300    1.419   .     A
C299   C712    1.418   .     S
C299   C715    1.426   .     S
C300   C307    1.423   .     A
C300   C304    1.413   .     A
C301   C305    1.402   .     A
C301   C713    1.426   1_554 S
C301   C716    1.420   1_554 S
C302   C303    1.392   .     A
C302   C715    1.420   .     S
C302   C705    1.405   .     S
C303   C304    1.387   .     A
C304   H312    1.080   .     S
C305   H308    1.077   .     S
H311   C343    1.083   .     S
C313   H38     1.088   1_565 S
C313   C39     1.340   1_565 S
N316   H363    1.029   .     S
N316   N364    1.286   .     S
H317   N408    1.029   1_455 S
N318   N408    1.286   1_455 S
N318   H411    1.029   1_455 S
H319   N364    1.029   .     S
N320   O321    1.301   .     A
N320   O322    1.302   .     A
N320   C39     1.442   1_565 S
O323   Cu329   1.962   .     S
O323   C325    1.287   .     A
O324   C325    1.289   .     A
O324   Cu330   1.957   .     S
C325   C359    1.431   .     S
O326   Cu329   1.941   .     S
O326   C328    1.303   .     A
O327   Cu330   1.921   .     S
O327   C328    1.294   .     A
C328   C353    1.475   .     S
Cu329  Cu330   2.684   .     S
Cu329  O333    1.921   .     S
Cu329  N364    2.017   .     S
Cu329  O331    1.957   .     S
Cu330  O334    1.941   .     S
Cu330  O332    1.962   .     S
Cu330  N362    2.017   .     S
O331   C335    1.283   .     A
O332   C335    1.292   .     A
O333   C336    1.293   .     A
O334   C336    1.300   .     A
C335   C361    1.432   .     S
C336   C341    1.464   .     S
C337   C352    1.393   .     A
C337   H386    1.084   .     S
C337   C762    1.405   1_554 S
H338   C352    1.083   .     S
H339   C349    1.084   .     S
C341   C352    1.398   .     A
C341   C351    1.399   .     A
C342   C343    1.387   .     A
C342   H355    1.083   .     S
C342   C353    1.402   .     A
C343   C758    1.391   .     S
C344   H356    1.077   .     S
C344   C757    1.391   1_554 S
C344   C759    1.418   1_554 S
C345   C346    1.419   .     A
C345   C758    1.418   .     S
C345   C761    1.426   .     S
C346   C353    1.423   .     A
C346   C350    1.413   .     A
C347   C351    1.402   .     A
C347   C759    1.426   1_554 S
C347   C762    1.420   1_554 S
C348   C349    1.392   .     A
C348   C761    1.420   .     S
C348   C751    1.405   .     S
C349   C350    1.387   .     A
C350   H358    1.080   .     S
C351   H354    1.077   .     S
H357   C389    1.083   .     S
C359   H84     1.088   1_565 S
C359   C85     1.340   1_565 S
N362   H409    1.029   .     S
N362   N410    1.286   .     S
H365   N410    1.029   .     S
N366   O367    1.301   .     A
N366   O368    1.302   .     A
N366   C85     1.442   1_565 S
O369   Cu375   1.962   .     S
O369   C371    1.287   .     A
O370   C371    1.289   .     A
O370   Cu376   1.957   .     S
C371   C405    1.431   .     S
O372   Cu375   1.941   .     S
O372   C374    1.303   .     A
O373   Cu376   1.921   .     S
O373   C374    1.294   .     A
C374   C399    1.475   .     S
Cu375  Cu376   2.684   .     S
Cu375  O379    1.921   .     S
Cu375  N410    2.017   .     S
Cu375  O377    1.957   .     S
Cu376  O380    1.941   .     S
Cu376  O378    1.962   .     S
Cu376  N408    2.017   .     S
O377   C381    1.283   .     A
O378   C381    1.292   .     A
O379   C382    1.293   .     A
O380   C382    1.300   .     A
C381   C407    1.432   .     S
C382   C387    1.464   .     S
C383   C398    1.393   .     A
C383   H294    1.084   1_655 S
C383   C808    1.405   1_554 S
H384   C398    1.083   .     S
H385   C395    1.084   .     S
C387   C398    1.398   .     A
C387   C397    1.399   .     A
C388   C389    1.387   .     A
C388   H401    1.083   .     S
C388   C399    1.402   .     A
C389   C804    1.391   .     S
C390   H402    1.077   .     S
C390   C803    1.391   1_554 S
C390   C805    1.418   1_554 S
C391   C392    1.419   .     A
C391   C804    1.418   .     S
C391   C807    1.426   .     S
C392   C399    1.423   .     A
C392   C396    1.413   .     A
C393   C397    1.402   .     A
C393   C805    1.426   1_554 S
C393   C808    1.420   1_554 S
C394   C395    1.392   .     A
C394   C807    1.420   .     S
C394   C797    1.405   .     S
C395   C396    1.387   .     A
C396   H404    1.080   .     S
C397   H400    1.077   .     S
H403   C297    1.083   1_655 S
C405   H130    1.088   1_565 S
C405   C131    1.340   1_565 S
N408   H317    1.029   1_655 S
N408   N318    1.286   1_655 S
H411   N318    1.029   1_655 S
N412   O413    1.301   .     A
N412   O414    1.302   .     A
N412   C131    1.442   1_565 S
O415   Cu421   1.962   .     S
O415   C417    1.287   .     A
O416   C417    1.289   .     A
O416   Cu422   1.957   .     S
C417   C451    1.431   .     S
O418   Cu421   1.941   .     S
O418   C420    1.303   .     A
O419   Cu422   1.921   .     S
O419   C420    1.294   .     A
C420   C445    1.475   .     S
Cu421  Cu422   2.684   .     S
Cu421  O425    1.921   .     S
Cu421  N456    2.017   .     S
Cu421  O423    1.957   .     S
Cu422  O426    1.941   .     S
Cu422  O424    1.962   .     S
Cu422  N454    2.017   .     S
O423   C427    1.283   .     A
O424   C427    1.292   .     A
O425   C428    1.293   .     A
O426   C428    1.300   .     A
C427   C453    1.432   .     S
C428   C433    1.464   .     S
C429   C444    1.393   .     A
C429   H478    1.084   .     S
H430   C444    1.083   .     S
H431   C441    1.084   .     S
H432   C521    1.084   1_455 S
C433   C444    1.398   .     A
C433   C443    1.399   .     A
C434   C435    1.387   .     A
C434   H447    1.083   .     S
C434   C445    1.402   .     A
C435   C22     1.391   1_556 S
C435   H541    1.083   1_455 S
C436   H448    1.077   .     S
C437   C438    1.419   .     A
C437   C22     1.418   1_556 S
C437   C25     1.426   1_556 S
C438   C445    1.423   .     A
C438   C442    1.413   .     A
C439   C443    1.402   .     A
C440   C441    1.392   .     A
C440   C25     1.420   1_556 S
C440   C15     1.405   1_556 S
C441   C442    1.387   .     A
C442   H450    1.080   .     S
C443   H446    1.077   .     S
H449   C481    1.083   .     S
C451   H590    1.088   .     S
C451   C591    1.340   .     S
H452   C727    1.088   1_545 S
C453   C727    1.340   1_545 S
C453   N734    1.442   1_545 S
N454   H501    1.029   .     S
N454   N502    1.286   .     S
H455   N546    1.029   1_455 S
N456   N546    1.286   1_455 S
N456   H549    1.029   1_455 S
H457   N502    1.029   .     S
N458   O459    1.301   .     A
N458   O460    1.302   .     A
N458   C591    1.442   .     S
O461   Cu467   1.962   .     S
O461   C463    1.287   .     A
O462   C463    1.289   .     A
O462   Cu468   1.957   .     S
C463   C497    1.431   .     S
O464   Cu467   1.941   .     S
O464   C466    1.303   .     A
O465   Cu468   1.921   .     S
O465   C466    1.294   .     A
C466   C491    1.475   .     S
Cu467  Cu468   2.684   .     S
Cu467  O471    1.921   .     S
Cu467  N502    2.017   .     S
Cu467  O469    1.957   .     S
Cu468  O472    1.941   .     S
Cu468  O470    1.962   .     S
Cu468  N500    2.017   .     S
O469   C473    1.283   .     A
O470   C473    1.292   .     A
O471   C474    1.293   .     A
O472   C474    1.300   .     A
C473   C499    1.432   .     S
C474   C479    1.464   .     S
C475   C490    1.393   .     A
C475   H524    1.084   .     S
H476   C490    1.083   .     S
H477   C487    1.084   .     S
C479   C490    1.398   .     A
C479   C489    1.399   .     A
C480   C481    1.387   .     A
C480   H493    1.083   .     S
C480   C491    1.402   .     A
C481   C68     1.391   1_556 S
C482   H494    1.077   .     S
C483   C484    1.419   .     A
C483   C68     1.418   1_556 S
C483   C71     1.426   1_556 S
C484   C491    1.423   .     A
C484   C488    1.413   .     A
C485   C489    1.402   .     A
C486   C487    1.392   .     A
C486   C71     1.420   1_556 S
C486   C61     1.405   1_556 S
C487   C488    1.387   .     A
C488   H496    1.080   .     S
C489   H492    1.077   .     S
H495   C527    1.083   .     S
C497   H636    1.088   .     S
C497   C637    1.340   .     S
H498   C773    1.088   1_545 S
C499   C773    1.340   1_545 S
C499   N780    1.442   1_545 S
N500   H547    1.029   .     S
N500   N548    1.286   .     S
H503   N548    1.029   .     S
N504   O505    1.301   .     A
N504   O506    1.302   .     A
N504   C637    1.442   .     S
O507   Cu513   1.962   .     S
O507   C509    1.287   .     A
O508   C509    1.289   .     A
O508   Cu514   1.957   .     S
C509   C543    1.431   .     S
O510   Cu513   1.941   .     S
O510   C512    1.303   .     A
O511   Cu514   1.921   .     S
O511   C512    1.294   .     A
C512   C537    1.475   .     S
Cu513  Cu514   2.684   .     S
Cu513  O517    1.921   .     S
Cu513  N548    2.017   .     S
Cu513  O515    1.957   .     S
Cu514  O518    1.941   .     S
Cu514  O516    1.962   .     S
Cu514  N546    2.017   .     S
O515   C519    1.283   .     A
O516   C519    1.292   .     A
O517   C520    1.293   .     A
O518   C520    1.300   .     A
C519   C545    1.432   .     S
C520   C525    1.464   .     S
C521   C536    1.393   .     A
C521   H432    1.084   1_655 S
H522   C536    1.083   .     S
H523   C533    1.084   .     S
C525   C536    1.398   .     A
C525   C535    1.399   .     A
C526   C527    1.387   .     A
C526   H539    1.083   .     S
C526   C537    1.402   .     A
C527   C114    1.391   1_556 S
C528   H540    1.077   .     S
C529   C530    1.419   .     A
C529   C114    1.418   1_556 S
C529   C117    1.426   1_556 S
C530   C537    1.423   .     A
C530   C534    1.413   .     A
C531   C535    1.402   .     A
C532   C533    1.392   .     A
C532   C117    1.420   1_556 S
C532   C107    1.405   1_556 S
C533   C534    1.387   .     A
C534   H542    1.080   .     S
C535   H538    1.077   .     S
H541   C435    1.083   1_655 S
C543   H682    1.088   .     S
C543   C683    1.340   .     S
H544   C819    1.088   1_545 S
C545   C819    1.340   1_545 S
C545   N826    1.442   1_545 S
N546   H455    1.029   1_655 S
N546   N456    1.286   1_655 S
H549   N456    1.029   1_655 S
N550   O551    1.301   .     A
N550   O552    1.302   .     A
N550   C683    1.442   .     S
O553   Cu559   1.962   .     S
O553   C555    1.287   .     A
O554   C555    1.289   .     A
O554   Cu560   1.957   .     S
C555   C589    1.431   .     S
O556   Cu559   1.941   .     S
O556   C558    1.303   .     A
O557   Cu560   1.921   .     S
O557   C558    1.294   .     A
C558   C583    1.475   .     S
Cu559  Cu560   2.684   .     S
Cu559  O563    1.921   .     S
Cu559  N594    2.017   .     S
Cu559  O561    1.957   .     S
Cu560  O564    1.941   .     S
Cu560  O562    1.962   .     S
Cu560  N592    2.017   .     S
O561   C565    1.283   .     A
O562   C565    1.292   .     A
O563   C566    1.293   .     A
O564   C566    1.300   .     A
C565   C591    1.432   .     S
C566   C571    1.464   .     S
C567   C582    1.393   .     A
C567   H616    1.084   .     S
H568   C582    1.083   .     S
H569   C579    1.084   .     S
H570   C659    1.084   1_455 S
C571   C582    1.398   .     A
C571   C581    1.399   .     A
C572   C573    1.387   .     A
C572   H585    1.083   .     S
C572   C583    1.402   .     A
C573   C160    1.391   1_556 S
C573   H679    1.083   1_455 S
C574   H586    1.077   .     S
C575   C576    1.419   .     A
C575   C160    1.418   1_556 S
C575   C163    1.426   1_556 S
C576   C583    1.423   .     A
C576   C580    1.413   .     A
C577   C581    1.402   .     A
C578   C579    1.392   .     A
C578   C163    1.420   1_556 S
C578   C153    1.405   1_556 S
C579   C580    1.387   .     A
C580   H588    1.080   .     S
C581   H584    1.077   .     S
H587   C619    1.083   .     S
C589   H728    1.088   .     S
C589   C729    1.340   .     S
N592   H639    1.029   .     S
N592   N640    1.286   .     S
H593   N684    1.029   1_455 S
N594   N684    1.286   1_455 S
N594   H687    1.029   1_455 S
H595   N640    1.029   .     S
N596   O597    1.301   .     A
N596   O598    1.302   .     A
N596   C729    1.442   .     S
O599   Cu605   1.962   .     S
O599   C601    1.287   .     A
O600   C601    1.289   .     A
O600   Cu606   1.957   .     S
C601   C635    1.431   .     S
O602   Cu605   1.941   .     S
O602   C604    1.303   .     A
O603   Cu606   1.921   .     S
O603   C604    1.294   .     A
C604   C629    1.475   .     S
Cu605  Cu606   2.684   .     S
Cu605  O609    1.921   .     S
Cu605  N640    2.017   .     S
Cu605  O607    1.957   .     S
Cu606  O610    1.941   .     S
Cu606  O608    1.962   .     S
Cu606  N638    2.017   .     S
O607   C611    1.283   .     A
O608   C611    1.292   .     A
O609   C612    1.293   .     A
O610   C612    1.300   .     A
C611   C637    1.432   .     S
C612   C617    1.464   .     S
C613   C628    1.393   .     A
C613   H662    1.084   .     S
H614   C628    1.083   .     S
H615   C625    1.084   .     S
C617   C628    1.398   .     A
C617   C627    1.399   .     A
C618   C619    1.387   .     A
C618   H631    1.083   .     S
C618   C629    1.402   .     A
C619   C206    1.391   1_556 S
C620   H632    1.077   .     S
C621   C622    1.419   .     A
C621   C206    1.418   1_556 S
C621   C209    1.426   1_556 S
C622   C629    1.423   .     A
C622   C626    1.413   .     A
C623   C627    1.402   .     A
C624   C625    1.392   .     A
C624   C209    1.420   1_556 S
C624   C199    1.405   1_556 S
C625   C626    1.387   .     A
C626   H634    1.080   .     S
C627   H630    1.077   .     S
H633   C665    1.083   .     S
C635   H774    1.088   .     S
C635   C775    1.340   .     S
N638   H685    1.029   .     S
N638   N686    1.286   .     S
H641   N686    1.029   .     S
N642   O643    1.301   .     A
N642   O644    1.302   .     A
N642   C775    1.442   .     S
O645   Cu651   1.962   .     S
O645   C647    1.287   .     A
O646   C647    1.289   .     A
O646   Cu652   1.957   .     S
C647   C681    1.431   .     S
O648   Cu651   1.941   .     S
O648   C650    1.303   .     A
O649   Cu652   1.921   .     S
O649   C650    1.294   .     A
C650   C675    1.475   .     S
Cu651  Cu652   2.684   .     S
Cu651  O655    1.921   .     S
Cu651  N686    2.017   .     S
Cu651  O653    1.957   .     S
Cu652  O656    1.941   .     S
Cu652  O654    1.962   .     S
Cu652  N684    2.017   .     S
O653   C657    1.283   .     A
O654   C657    1.292   .     A
O655   C658    1.293   .     A
O656   C658    1.300   .     A
C657   C683    1.432   .     S
C658   C663    1.464   .     S
C659   C674    1.393   .     A
C659   H570    1.084   1_655 S
H660   C674    1.083   .     S
H661   C671    1.084   .     S
C663   C674    1.398   .     A
C663   C673    1.399   .     A
C664   C665    1.387   .     A
C664   H677    1.083   .     S
C664   C675    1.402   .     A
C665   C252    1.391   1_556 S
C666   H678    1.077   .     S
C667   C668    1.419   .     A
C667   C252    1.418   1_556 S
C667   C255    1.426   1_556 S
C668   C675    1.423   .     A
C668   C672    1.413   .     A
C669   C673    1.402   .     A
C670   C671    1.392   .     A
C670   C255    1.420   1_556 S
C670   C245    1.405   1_556 S
C671   C672    1.387   .     A
C672   H680    1.080   .     S
C673   H676    1.077   .     S
H679   C573    1.083   1_655 S
C681   H820    1.088   .     S
C681   C821    1.340   .     S
N684   H593    1.029   1_655 S
N684   N594    1.286   1_655 S
H687   N594    1.029   1_655 S
N688   O689    1.301   .     A
N688   O690    1.302   .     A
N688   C821    1.442   .     S
O691   Cu697   1.962   .     S
O691   C693    1.287   .     A
O692   C693    1.289   .     A
O692   Cu698   1.957   .     S
C693   C727    1.431   .     S
O694   Cu697   1.941   .     S
O694   C696    1.303   .     A
O695   Cu698   1.921   .     S
O695   C696    1.294   .     A
C696   C721    1.475   .     S
Cu697  Cu698   2.684   .     S
Cu697  O701    1.921   .     S
Cu697  N732    2.017   .     S
Cu697  O699    1.957   .     S
Cu698  O702    1.941   .     S
Cu698  O700    1.962   .     S
Cu698  N730    2.017   .     S
O699   C703    1.283   .     A
O700   C703    1.292   .     A
O701   C704    1.293   .     A
O702   C704    1.300   .     A
C703   C729    1.432   .     S
C704   C709    1.464   .     S
C705   C720    1.393   .     A
C705   H754    1.084   .     S
H706   C720    1.083   .     S
H707   C717    1.084   .     S
H708   C797    1.084   1_455 S
C709   C720    1.398   .     A
C709   C719    1.399   .     A
C710   C711    1.387   .     A
C710   H723    1.083   .     S
C710   C721    1.402   .     A
C711   C298    1.391   1_556 S
C711   H817    1.083   1_455 S
C712   H724    1.077   .     S
C713   C714    1.419   .     A
C713   C298    1.418   1_556 S
C713   C301    1.426   1_556 S
C714   C721    1.423   .     A
C714   C718    1.413   .     A
C715   C719    1.402   .     A
C716   C717    1.392   .     A
C716   C301    1.420   1_556 S
C716   C291    1.405   1_556 S
C717   C718    1.387   .     A
C718   H726    1.080   .     S
C719   H722    1.077   .     S
H725   C757    1.083   .     S
C727   H452    1.088   1_565 S
C727   C453    1.340   1_565 S
N730   H777    1.029   .     S
N730   N778    1.286   .     S
H731   N822    1.029   1_455 S
N732   N822    1.286   1_455 S
N732   H825    1.029   1_455 S
H733   N778    1.029   .     S
N734   O735    1.301   .     A
N734   O736    1.302   .     A
N734   C453    1.442   1_565 S
O737   Cu743   1.962   .     S
O737   C739    1.287   .     A
O738   C739    1.289   .     A
O738   Cu744   1.957   .     S
C739   C773    1.431   .     S
O740   Cu743   1.941   .     S
O740   C742    1.303   .     A
O741   Cu744   1.921   .     S
O741   C742    1.294   .     A
C742   C767    1.475   .     S
Cu743  Cu744   2.684   .     S
Cu743  O747    1.921   .     S
Cu743  N778    2.017   .     S
Cu743  O745    1.957   .     S
Cu744  O748    1.941   .     S
Cu744  O746    1.962   .     S
Cu744  N776    2.017   .     S
O745   C749    1.283   .     A
O746   C749    1.292   .     A
O747   C750    1.293   .     A
O748   C750    1.300   .     A
C749   C775    1.432   .     S
C750   C755    1.464   .     S
C751   C766    1.393   .     A
C751   H800    1.084   .     S
H752   C766    1.083   .     S
H753   C763    1.084   .     S
C755   C766    1.398   .     A
C755   C765    1.399   .     A
C756   C757    1.387   .     A
C756   H769    1.083   .     S
C756   C767    1.402   .     A
C757   C344    1.391   1_556 S
C758   H770    1.077   .     S
C759   C760    1.419   .     A
C759   C344    1.418   1_556 S
C759   C347    1.426   1_556 S
C760   C767    1.423   .     A
C760   C764    1.413   .     A
C761   C765    1.402   .     A
C762   C763    1.392   .     A
C762   C347    1.420   1_556 S
C762   C337    1.405   1_556 S
C763   C764    1.387   .     A
C764   H772    1.080   .     S
C765   H768    1.077   .     S
H771   C803    1.083   .     S
C773   H498    1.088   1_565 S
C773   C499    1.340   1_565 S
N776   H823    1.029   .     S
N776   N824    1.286   .     S
H779   N824    1.029   .     S
N780   O781    1.301   .     A
N780   O782    1.302   .     A
N780   C499    1.442   1_565 S
O783   Cu789   1.962   .     S
O783   C785    1.287   .     A
O784   C785    1.289   .     A
O784   Cu790   1.957   .     S
C785   C819    1.431   .     S
O786   Cu789   1.941   .     S
O786   C788    1.303   .     A
O787   Cu790   1.921   .     S
O787   C788    1.294   .     A
C788   C813    1.475   .     S
Cu789  Cu790   2.684   .     S
Cu789  O793    1.921   .     S
Cu789  N824    2.017   .     S
Cu789  O791    1.957   .     S
Cu790  O794    1.941   .     S
Cu790  O792    1.962   .     S
Cu790  N822    2.017   .     S
O791   C795    1.283   .     A
O792   C795    1.292   .     A
O793   C796    1.293   .     A
O794   C796    1.300   .     A
C795   C821    1.432   .     S
C796   C801    1.464   .     S
C797   C812    1.393   .     A
C797   H708    1.084   1_655 S
H798   C812    1.083   .     S
H799   C809    1.084   .     S
C801   C812    1.398   .     A
C801   C811    1.399   .     A
C802   C803    1.387   .     A
C802   H815    1.083   .     S
C802   C813    1.402   .     A
C803   C390    1.391   1_556 S
C804   H816    1.077   .     S
C805   C806    1.419   .     A
C805   C390    1.418   1_556 S
C805   C393    1.426   1_556 S
C806   C813    1.423   .     A
C806   C810    1.413   .     A
C807   C811    1.402   .     A
C808   C809    1.392   .     A
C808   C393    1.420   1_556 S
C808   C383    1.405   1_556 S
C809   C810    1.387   .     A
C810   H818    1.080   .     S
C811   H814    1.077   .     S
H817   C711    1.083   1_655 S
C819   H544    1.088   1_565 S
C819   C545    1.340   1_565 S
N822   H731    1.029   1_655 S
N822   N732    1.286   1_655 S
H825   N732    1.029   1_655 S
N826   O827    1.301   .     A
N826   O828    1.302   .     A
N826   C545    1.442   1_565 S
