data_str_m2_o1_o16_pcu_sym.239
_audit_creation_date              2020-01-03
_audit_creation_method            'Materials Studio'
_symmetry_space_group_name_H-M    'P1'
_symmetry_Int_Tables_number       1
_symmetry_cell_setting            triclinic
loop_
_symmetry_equiv_pos_as_xyz
  x,y,z
_cell_length_a                    28.5842
_cell_length_b                    32.4260
_cell_length_c                    26.9419
_cell_angle_alpha                 90.1194
_cell_angle_beta                  73.1551
_cell_angle_gamma                 90.0441
loop_
_atom_site_label
_atom_site_type_symbol
_atom_site_fract_x
_atom_site_fract_y
_atom_site_fract_z
_atom_site_U_iso_or_equiv
_atom_site_adp_type
_atom_site_occupancy
O1     O     0.12708   0.22678   0.25000   0.00000  Uiso   1.00
O2     O     0.20627   0.22679   0.25001   0.00000  Uiso   1.00
C3     C     0.16620   0.24593   0.25182   0.00000  Uiso   1.00
O4     O     0.10775   0.16665   0.32549   0.00000  Uiso   1.00
O5     O     0.18694   0.16666   0.32549   0.00000  Uiso   1.00
C6     C     0.14125   0.16169   0.34945   0.00000  Uiso   1.00
Cu7    Cu    0.11978   0.16666   0.25000   0.00000  Uiso   1.00
Cu8    Cu    0.21355   0.16667   0.25000   0.00000  Uiso   1.00
O9     O     0.12706   0.10654   0.25000   0.00000  Uiso   1.00
O10    O     0.20625   0.10655   0.25000   0.00000  Uiso   1.00
O11    O     0.14640   0.16667   0.17451   0.00000  Uiso   1.00
O12    O     0.22559   0.16668   0.17451   0.00000  Uiso   1.00
C13    C     0.16665   0.08742   0.25000   0.00000  Uiso   1.00
C14    C     0.19260   0.16680   0.15013   0.00000  Uiso   1.00
C15    C     0.26937   0.16671   0.01092   0.00000  Uiso   1.00
H16    H     0.28406   0.17730   0.08331   0.00000  Uiso   1.00
H17    H     0.28762   0.14769   0.41157   0.00000  Uiso   1.00
H18    H     0.30685   0.17214   0.48863   0.00000  Uiso   1.00
C19    C     0.20733   0.16507   0.09351   0.00000  Uiso   1.00
C20    C     0.07876   0.14435   0.43230   0.00000  Uiso   1.00
C21    C     0.06494   0.13640   0.48526   0.00000  Uiso   1.00
C22    C     0.09886   0.13909   0.01304   0.00000  Uiso   1.00
C23    C     0.14879   0.14630   0.48743   0.00000  Uiso   1.00
C24    C     0.16404   0.14650   0.43243   0.00000  Uiso   1.00
C25    C     0.18432   0.15288   0.01432   0.00000  Uiso   1.00
C26    C     0.23435   0.15653   0.48593   0.00000  Uiso   1.00
C27    C     0.24915   0.14882   0.43301   0.00000  Uiso   1.00
C28    C     0.21461   0.14192   0.40710   0.00000  Uiso   1.00
C29    C     0.17166   0.15755   0.06831   0.00000  Uiso   1.00
C30    C     0.25618   0.17034   0.06457   0.00000  Uiso   1.00
C31    C     0.12811   0.15062   0.40521   0.00000  Uiso   1.00
H32    H     0.13415   0.15573   0.09164   0.00000  Uiso   1.00
H33    H     0.05084   0.14483   0.41238   0.00000  Uiso   1.00
H34    H     0.08505   0.13401   0.05422   0.00000  Uiso   1.00
H35    H     0.02748   0.12888   0.00552   0.00000  Uiso   1.00
H36    H     0.22889   0.13144   0.36766   0.00000  Uiso   1.00
C37    C     0.19587   0.31266   0.27805   0.00000  Uiso   1.00
C38    C     0.19698   0.02215   0.27493   0.00000  Uiso   1.00
H39    H     0.22007   0.03938   0.29317   0.00000  Uiso   1.00
C40    C     0.16640   0.04289   0.25114   0.00000  Uiso   1.00
C41    C     0.13480   0.02105   0.22972   0.00000  Uiso   1.00
H42    H     0.11098   0.03693   0.21124   0.00000  Uiso   1.00
C43    C     0.13465   0.31175   0.23086   0.00000  Uiso   1.00
H44    H     0.11101   0.29526   0.21263   0.00000  Uiso   1.00
C45    C     0.16543   0.29064   0.25426   0.00000  Uiso   1.00
C46    C     0.29901   0.18969   0.28518   0.00000  Uiso   1.00
H47    H     0.27275   0.20806   0.31349   0.00000  Uiso   1.00
C48    C     0.01523   0.18968   0.28518   0.00000  Uiso   1.00
H49    H     0.02622   0.20815   0.31337   0.00000  Uiso   1.00
N50    N     0.04931   0.16666   0.24998   0.00000  Uiso   1.00
C51    C     0.03433   0.14353   0.21490   0.00000  Uiso   1.00
H52    H     0.06060   0.12491   0.18682   0.00000  Uiso   1.00
C53    C     0.31808   0.14356   0.21490   0.00000  Uiso   1.00
H54    H     0.30705   0.12500   0.18681   0.00000  Uiso   1.00
N55    N     0.28402   0.16669   0.25000   0.00000  Uiso   1.00
N56    N     0.22330   0.29241   0.30795   0.00000  Uiso   1.00
O57    O     0.26637   0.30605   0.30704   0.00000  Uiso   1.00
O58    O     0.20202   0.26534   0.34280   0.00000  Uiso   1.00
O59    O     0.46042   0.22678   0.25000   0.00000  Uiso   1.00
O60    O     0.53961   0.22679   0.25001   0.00000  Uiso   1.00
C61    C     0.49954   0.24593   0.25182   0.00000  Uiso   1.00
O62    O     0.44108   0.16665   0.32549   0.00000  Uiso   1.00
O63    O     0.52027   0.16666   0.32549   0.00000  Uiso   1.00
C64    C     0.47458   0.16169   0.34945   0.00000  Uiso   1.00
Cu65   Cu    0.45311   0.16666   0.25000   0.00000  Uiso   1.00
Cu66   Cu    0.54689   0.16667   0.25000   0.00000  Uiso   1.00
O67    O     0.46039   0.10654   0.25000   0.00000  Uiso   1.00
O68    O     0.53958   0.10655   0.25000   0.00000  Uiso   1.00
O69    O     0.47973   0.16667   0.17451   0.00000  Uiso   1.00
O70    O     0.55892   0.16668   0.17451   0.00000  Uiso   1.00
C71    C     0.49998   0.08742   0.25000   0.00000  Uiso   1.00
C72    C     0.52593   0.16680   0.15013   0.00000  Uiso   1.00
C73    C     0.60271   0.16671   0.01092   0.00000  Uiso   1.00
H74    H     0.61739   0.17730   0.08331   0.00000  Uiso   1.00
H75    H     0.62096   0.14769   0.41157   0.00000  Uiso   1.00
H76    H     0.64019   0.17214   0.48863   0.00000  Uiso   1.00
C77    C     0.54066   0.16507   0.09351   0.00000  Uiso   1.00
C78    C     0.41209   0.14435   0.43230   0.00000  Uiso   1.00
C79    C     0.39827   0.13640   0.48526   0.00000  Uiso   1.00
C80    C     0.43219   0.13909   0.01304   0.00000  Uiso   1.00
C81    C     0.48212   0.14630   0.48743   0.00000  Uiso   1.00
C82    C     0.49738   0.14650   0.43243   0.00000  Uiso   1.00
C83    C     0.51765   0.15288   0.01432   0.00000  Uiso   1.00
C84    C     0.56769   0.15653   0.48593   0.00000  Uiso   1.00
C85    C     0.58248   0.14882   0.43301   0.00000  Uiso   1.00
C86    C     0.54795   0.14192   0.40710   0.00000  Uiso   1.00
C87    C     0.50499   0.15755   0.06831   0.00000  Uiso   1.00
C88    C     0.58951   0.17034   0.06457   0.00000  Uiso   1.00
C89    C     0.46144   0.15062   0.40521   0.00000  Uiso   1.00
H90    H     0.46748   0.15573   0.09164   0.00000  Uiso   1.00
H91    H     0.38417   0.14483   0.41238   0.00000  Uiso   1.00
H92    H     0.41839   0.13401   0.05422   0.00000  Uiso   1.00
H93    H     0.36081   0.12888   0.00552   0.00000  Uiso   1.00
H94    H     0.56223   0.13144   0.36766   0.00000  Uiso   1.00
C95    C     0.52920   0.31266   0.27805   0.00000  Uiso   1.00
C96    C     0.53031   0.02215   0.27493   0.00000  Uiso   1.00
H97    H     0.55340   0.03938   0.29317   0.00000  Uiso   1.00
C98    C     0.49973   0.04289   0.25114   0.00000  Uiso   1.00
C99    C     0.46813   0.02105   0.22972   0.00000  Uiso   1.00
H100   H     0.44432   0.03693   0.21124   0.00000  Uiso   1.00
C101   C     0.46798   0.31175   0.23086   0.00000  Uiso   1.00
H102   H     0.44435   0.29526   0.21263   0.00000  Uiso   1.00
C103   C     0.49876   0.29064   0.25426   0.00000  Uiso   1.00
C104   C     0.63234   0.18969   0.28518   0.00000  Uiso   1.00
H105   H     0.60608   0.20806   0.31349   0.00000  Uiso   1.00
C106   C     0.34857   0.18968   0.28518   0.00000  Uiso   1.00
H107   H     0.35955   0.20815   0.31337   0.00000  Uiso   1.00
N108   N     0.38265   0.16666   0.24998   0.00000  Uiso   1.00
C109   C     0.36766   0.14353   0.21490   0.00000  Uiso   1.00
H110   H     0.39394   0.12491   0.18682   0.00000  Uiso   1.00
C111   C     0.65141   0.14356   0.21490   0.00000  Uiso   1.00
H112   H     0.64039   0.12500   0.18681   0.00000  Uiso   1.00
N113   N     0.61735   0.16669   0.25000   0.00000  Uiso   1.00
N114   N     0.55663   0.29241   0.30795   0.00000  Uiso   1.00
O115   O     0.59970   0.30605   0.30704   0.00000  Uiso   1.00
O116   O     0.53535   0.26534   0.34280   0.00000  Uiso   1.00
O117   O     0.79375   0.22678   0.25000   0.00000  Uiso   1.00
O118   O     0.87294   0.22679   0.25001   0.00000  Uiso   1.00
C119   C     0.83287   0.24593   0.25182   0.00000  Uiso   1.00
O120   O     0.77441   0.16665   0.32549   0.00000  Uiso   1.00
O121   O     0.85360   0.16666   0.32549   0.00000  Uiso   1.00
C122   C     0.80792   0.16169   0.34945   0.00000  Uiso   1.00
Cu123  Cu    0.78645   0.16666   0.25000   0.00000  Uiso   1.00
Cu124  Cu    0.88022   0.16667   0.25000   0.00000  Uiso   1.00
O125   O     0.79373   0.10654   0.25000   0.00000  Uiso   1.00
O126   O     0.87292   0.10655   0.25000   0.00000  Uiso   1.00
O127   O     0.81306   0.16667   0.17451   0.00000  Uiso   1.00
O128   O     0.89225   0.16668   0.17451   0.00000  Uiso   1.00
C129   C     0.83332   0.08742   0.25000   0.00000  Uiso   1.00
C130   C     0.85927   0.16680   0.15013   0.00000  Uiso   1.00
C131   C     0.93604   0.16671   0.01092   0.00000  Uiso   1.00
H132   H     0.95073   0.17730   0.08331   0.00000  Uiso   1.00
H133   H     0.95429   0.14769   0.41157   0.00000  Uiso   1.00
H134   H     0.97352   0.17214   0.48863   0.00000  Uiso   1.00
C135   C     0.87399   0.16507   0.09351   0.00000  Uiso   1.00
C136   C     0.74542   0.14435   0.43230   0.00000  Uiso   1.00
C137   C     0.73160   0.13640   0.48526   0.00000  Uiso   1.00
C138   C     0.76553   0.13909   0.01304   0.00000  Uiso   1.00
C139   C     0.81545   0.14630   0.48743   0.00000  Uiso   1.00
C140   C     0.83071   0.14650   0.43243   0.00000  Uiso   1.00
C141   C     0.85098   0.15288   0.01432   0.00000  Uiso   1.00
C142   C     0.90102   0.15653   0.48593   0.00000  Uiso   1.00
C143   C     0.91581   0.14882   0.43301   0.00000  Uiso   1.00
C144   C     0.88128   0.14192   0.40710   0.00000  Uiso   1.00
C145   C     0.83832   0.15755   0.06831   0.00000  Uiso   1.00
C146   C     0.92284   0.17034   0.06457   0.00000  Uiso   1.00
C147   C     0.79477   0.15062   0.40521   0.00000  Uiso   1.00
H148   H     0.80082   0.15573   0.09164   0.00000  Uiso   1.00
H149   H     0.71751   0.14483   0.41238   0.00000  Uiso   1.00
H150   H     0.75172   0.13401   0.05422   0.00000  Uiso   1.00
H151   H     0.69414   0.12888   0.00552   0.00000  Uiso   1.00
H152   H     0.89556   0.13144   0.36766   0.00000  Uiso   1.00
C153   C     0.86254   0.31266   0.27805   0.00000  Uiso   1.00
C154   C     0.86364   0.02215   0.27493   0.00000  Uiso   1.00
H155   H     0.88673   0.03938   0.29317   0.00000  Uiso   1.00
C156   C     0.83307   0.04289   0.25114   0.00000  Uiso   1.00
C157   C     0.80147   0.02105   0.22972   0.00000  Uiso   1.00
H158   H     0.77765   0.03693   0.21124   0.00000  Uiso   1.00
C159   C     0.80132   0.31175   0.23086   0.00000  Uiso   1.00
H160   H     0.77768   0.29526   0.21263   0.00000  Uiso   1.00
C161   C     0.83210   0.29064   0.25426   0.00000  Uiso   1.00
C162   C     0.96567   0.18969   0.28518   0.00000  Uiso   1.00
H163   H     0.93941   0.20806   0.31349   0.00000  Uiso   1.00
C164   C     0.68190   0.18968   0.28518   0.00000  Uiso   1.00
H165   H     0.69288   0.20815   0.31337   0.00000  Uiso   1.00
N166   N     0.71598   0.16666   0.24998   0.00000  Uiso   1.00
C167   C     0.70100   0.14353   0.21490   0.00000  Uiso   1.00
H168   H     0.72727   0.12491   0.18682   0.00000  Uiso   1.00
C169   C     0.98474   0.14356   0.21490   0.00000  Uiso   1.00
H170   H     0.97372   0.12500   0.18681   0.00000  Uiso   1.00
N171   N     0.95069   0.16669   0.25000   0.00000  Uiso   1.00
N172   N     0.88997   0.29241   0.30795   0.00000  Uiso   1.00
O173   O     0.93303   0.30605   0.30704   0.00000  Uiso   1.00
O174   O     0.86868   0.26534   0.34280   0.00000  Uiso   1.00
O175   O     0.12708   0.56011   0.25000   0.00000  Uiso   1.00
O176   O     0.20627   0.56012   0.25001   0.00000  Uiso   1.00
C177   C     0.16620   0.57927   0.25182   0.00000  Uiso   1.00
O178   O     0.10775   0.49998   0.32549   0.00000  Uiso   1.00
O179   O     0.18694   0.49999   0.32549   0.00000  Uiso   1.00
C180   C     0.14125   0.49502   0.34945   0.00000  Uiso   1.00
Cu181  Cu    0.11978   0.49999   0.25000   0.00000  Uiso   1.00
Cu182  Cu    0.21355   0.50001   0.25000   0.00000  Uiso   1.00
O183   O     0.12706   0.43988   0.25000   0.00000  Uiso   1.00
O184   O     0.20625   0.43989   0.25000   0.00000  Uiso   1.00
O185   O     0.14640   0.50001   0.17451   0.00000  Uiso   1.00
O186   O     0.22559   0.50002   0.17451   0.00000  Uiso   1.00
C187   C     0.16665   0.42075   0.25000   0.00000  Uiso   1.00
C188   C     0.19260   0.50013   0.15013   0.00000  Uiso   1.00
C189   C     0.26937   0.50005   0.01092   0.00000  Uiso   1.00
H190   H     0.28406   0.51063   0.08331   0.00000  Uiso   1.00
H191   H     0.28762   0.48102   0.41157   0.00000  Uiso   1.00
H192   H     0.30685   0.50548   0.48863   0.00000  Uiso   1.00
C193   C     0.20733   0.49840   0.09351   0.00000  Uiso   1.00
C194   C     0.07876   0.47768   0.43230   0.00000  Uiso   1.00
C195   C     0.06494   0.46973   0.48526   0.00000  Uiso   1.00
C196   C     0.09886   0.47242   0.01304   0.00000  Uiso   1.00
C197   C     0.14879   0.47964   0.48743   0.00000  Uiso   1.00
C198   C     0.16404   0.47983   0.43243   0.00000  Uiso   1.00
C199   C     0.18432   0.48621   0.01432   0.00000  Uiso   1.00
C200   C     0.23435   0.48987   0.48593   0.00000  Uiso   1.00
C201   C     0.24915   0.48215   0.43301   0.00000  Uiso   1.00
C202   C     0.21461   0.47525   0.40710   0.00000  Uiso   1.00
C203   C     0.17166   0.49089   0.06831   0.00000  Uiso   1.00
C204   C     0.25618   0.50368   0.06457   0.00000  Uiso   1.00
C205   C     0.12811   0.48395   0.40521   0.00000  Uiso   1.00
H206   H     0.13415   0.48906   0.09164   0.00000  Uiso   1.00
H207   H     0.05084   0.47817   0.41238   0.00000  Uiso   1.00
H208   H     0.08505   0.46734   0.05422   0.00000  Uiso   1.00
H209   H     0.02748   0.46221   0.00552   0.00000  Uiso   1.00
H210   H     0.22889   0.46477   0.36766   0.00000  Uiso   1.00
C211   C     0.19587   0.64599   0.27805   0.00000  Uiso   1.00
C212   C     0.19698   0.35549   0.27493   0.00000  Uiso   1.00
H213   H     0.22007   0.37271   0.29317   0.00000  Uiso   1.00
C214   C     0.16640   0.37622   0.25114   0.00000  Uiso   1.00
C215   C     0.13480   0.35439   0.22972   0.00000  Uiso   1.00
H216   H     0.11098   0.37026   0.21124   0.00000  Uiso   1.00
C217   C     0.13465   0.64509   0.23086   0.00000  Uiso   1.00
H218   H     0.11101   0.62859   0.21263   0.00000  Uiso   1.00
C219   C     0.16543   0.62397   0.25426   0.00000  Uiso   1.00
C220   C     0.29901   0.52302   0.28518   0.00000  Uiso   1.00
H221   H     0.27275   0.54139   0.31349   0.00000  Uiso   1.00
C222   C     0.01523   0.52301   0.28518   0.00000  Uiso   1.00
H223   H     0.02622   0.54148   0.31337   0.00000  Uiso   1.00
N224   N     0.04931   0.49999   0.24998   0.00000  Uiso   1.00
C225   C     0.03433   0.47686   0.21490   0.00000  Uiso   1.00
H226   H     0.06060   0.45824   0.18682   0.00000  Uiso   1.00
C227   C     0.31808   0.47689   0.21490   0.00000  Uiso   1.00
H228   H     0.30705   0.45833   0.18681   0.00000  Uiso   1.00
N229   N     0.28402   0.50002   0.25000   0.00000  Uiso   1.00
N230   N     0.22330   0.62574   0.30795   0.00000  Uiso   1.00
O231   O     0.26637   0.63938   0.30704   0.00000  Uiso   1.00
O232   O     0.20202   0.59867   0.34280   0.00000  Uiso   1.00
O233   O     0.46042   0.56011   0.25000   0.00000  Uiso   1.00
O234   O     0.53961   0.56012   0.25001   0.00000  Uiso   1.00
C235   C     0.49954   0.57927   0.25182   0.00000  Uiso   1.00
O236   O     0.44108   0.49998   0.32549   0.00000  Uiso   1.00
O237   O     0.52027   0.49999   0.32549   0.00000  Uiso   1.00
C238   C     0.47458   0.49502   0.34945   0.00000  Uiso   1.00
Cu239  Cu    0.45311   0.49999   0.25000   0.00000  Uiso   1.00
Cu240  Cu    0.54689   0.50001   0.25000   0.00000  Uiso   1.00
O241   O     0.46039   0.43988   0.25000   0.00000  Uiso   1.00
O242   O     0.53958   0.43989   0.25000   0.00000  Uiso   1.00
O243   O     0.47973   0.50001   0.17451   0.00000  Uiso   1.00
O244   O     0.55892   0.50002   0.17451   0.00000  Uiso   1.00
C245   C     0.49998   0.42075   0.25000   0.00000  Uiso   1.00
C246   C     0.52593   0.50013   0.15013   0.00000  Uiso   1.00
C247   C     0.60271   0.50005   0.01092   0.00000  Uiso   1.00
H248   H     0.61739   0.51063   0.08331   0.00000  Uiso   1.00
H249   H     0.62096   0.48102   0.41157   0.00000  Uiso   1.00
H250   H     0.64019   0.50548   0.48863   0.00000  Uiso   1.00
C251   C     0.54066   0.49840   0.09351   0.00000  Uiso   1.00
C252   C     0.41209   0.47768   0.43230   0.00000  Uiso   1.00
C253   C     0.39827   0.46973   0.48526   0.00000  Uiso   1.00
C254   C     0.43219   0.47242   0.01304   0.00000  Uiso   1.00
C255   C     0.48212   0.47964   0.48743   0.00000  Uiso   1.00
C256   C     0.49738   0.47983   0.43243   0.00000  Uiso   1.00
C257   C     0.51765   0.48621   0.01432   0.00000  Uiso   1.00
C258   C     0.56769   0.48987   0.48593   0.00000  Uiso   1.00
C259   C     0.58248   0.48215   0.43301   0.00000  Uiso   1.00
C260   C     0.54795   0.47525   0.40710   0.00000  Uiso   1.00
C261   C     0.50499   0.49089   0.06831   0.00000  Uiso   1.00
C262   C     0.58951   0.50368   0.06457   0.00000  Uiso   1.00
C263   C     0.46144   0.48395   0.40521   0.00000  Uiso   1.00
H264   H     0.46748   0.48906   0.09164   0.00000  Uiso   1.00
H265   H     0.38417   0.47817   0.41238   0.00000  Uiso   1.00
H266   H     0.41839   0.46734   0.05422   0.00000  Uiso   1.00
H267   H     0.36081   0.46221   0.00552   0.00000  Uiso   1.00
H268   H     0.56223   0.46477   0.36766   0.00000  Uiso   1.00
C269   C     0.52920   0.64599   0.27805   0.00000  Uiso   1.00
C270   C     0.53031   0.35549   0.27493   0.00000  Uiso   1.00
H271   H     0.55340   0.37271   0.29317   0.00000  Uiso   1.00
C272   C     0.49973   0.37622   0.25114   0.00000  Uiso   1.00
C273   C     0.46813   0.35439   0.22972   0.00000  Uiso   1.00
H274   H     0.44432   0.37026   0.21124   0.00000  Uiso   1.00
C275   C     0.46798   0.64509   0.23086   0.00000  Uiso   1.00
H276   H     0.44435   0.62859   0.21263   0.00000  Uiso   1.00
C277   C     0.49876   0.62397   0.25426   0.00000  Uiso   1.00
C278   C     0.63234   0.52302   0.28518   0.00000  Uiso   1.00
H279   H     0.60608   0.54139   0.31349   0.00000  Uiso   1.00
C280   C     0.34857   0.52301   0.28518   0.00000  Uiso   1.00
H281   H     0.35955   0.54148   0.31337   0.00000  Uiso   1.00
N282   N     0.38265   0.49999   0.24998   0.00000  Uiso   1.00
C283   C     0.36766   0.47686   0.21490   0.00000  Uiso   1.00
H284   H     0.39394   0.45824   0.18682   0.00000  Uiso   1.00
C285   C     0.65141   0.47689   0.21490   0.00000  Uiso   1.00
H286   H     0.64039   0.45833   0.18681   0.00000  Uiso   1.00
N287   N     0.61735   0.50002   0.25000   0.00000  Uiso   1.00
N288   N     0.55663   0.62574   0.30795   0.00000  Uiso   1.00
O289   O     0.59970   0.63938   0.30704   0.00000  Uiso   1.00
O290   O     0.53535   0.59867   0.34280   0.00000  Uiso   1.00
O291   O     0.79375   0.56011   0.25000   0.00000  Uiso   1.00
O292   O     0.87294   0.56012   0.25001   0.00000  Uiso   1.00
C293   C     0.83287   0.57927   0.25182   0.00000  Uiso   1.00
O294   O     0.77441   0.49998   0.32549   0.00000  Uiso   1.00
O295   O     0.85360   0.49999   0.32549   0.00000  Uiso   1.00
C296   C     0.80792   0.49502   0.34945   0.00000  Uiso   1.00
Cu297  Cu    0.78645   0.49999   0.25000   0.00000  Uiso   1.00
Cu298  Cu    0.88022   0.50001   0.25000   0.00000  Uiso   1.00
O299   O     0.79373   0.43988   0.25000   0.00000  Uiso   1.00
O300   O     0.87292   0.43989   0.25000   0.00000  Uiso   1.00
O301   O     0.81306   0.50001   0.17451   0.00000  Uiso   1.00
O302   O     0.89225   0.50002   0.17451   0.00000  Uiso   1.00
C303   C     0.83332   0.42075   0.25000   0.00000  Uiso   1.00
C304   C     0.85927   0.50013   0.15013   0.00000  Uiso   1.00
C305   C     0.93604   0.50005   0.01092   0.00000  Uiso   1.00
H306   H     0.95073   0.51063   0.08331   0.00000  Uiso   1.00
H307   H     0.95429   0.48102   0.41157   0.00000  Uiso   1.00
H308   H     0.97352   0.50548   0.48863   0.00000  Uiso   1.00
C309   C     0.87399   0.49840   0.09351   0.00000  Uiso   1.00
C310   C     0.74542   0.47768   0.43230   0.00000  Uiso   1.00
C311   C     0.73160   0.46973   0.48526   0.00000  Uiso   1.00
C312   C     0.76553   0.47242   0.01304   0.00000  Uiso   1.00
C313   C     0.81545   0.47964   0.48743   0.00000  Uiso   1.00
C314   C     0.83071   0.47983   0.43243   0.00000  Uiso   1.00
C315   C     0.85098   0.48621   0.01432   0.00000  Uiso   1.00
C316   C     0.90102   0.48987   0.48593   0.00000  Uiso   1.00
C317   C     0.91581   0.48215   0.43301   0.00000  Uiso   1.00
C318   C     0.88128   0.47525   0.40710   0.00000  Uiso   1.00
C319   C     0.83832   0.49089   0.06831   0.00000  Uiso   1.00
C320   C     0.92284   0.50368   0.06457   0.00000  Uiso   1.00
C321   C     0.79477   0.48395   0.40521   0.00000  Uiso   1.00
H322   H     0.80082   0.48906   0.09164   0.00000  Uiso   1.00
H323   H     0.71751   0.47817   0.41238   0.00000  Uiso   1.00
H324   H     0.75172   0.46734   0.05422   0.00000  Uiso   1.00
H325   H     0.69414   0.46221   0.00552   0.00000  Uiso   1.00
H326   H     0.89556   0.46477   0.36766   0.00000  Uiso   1.00
C327   C     0.86254   0.64599   0.27805   0.00000  Uiso   1.00
C328   C     0.86364   0.35549   0.27493   0.00000  Uiso   1.00
H329   H     0.88673   0.37271   0.29317   0.00000  Uiso   1.00
C330   C     0.83307   0.37622   0.25114   0.00000  Uiso   1.00
C331   C     0.80147   0.35439   0.22972   0.00000  Uiso   1.00
H332   H     0.77765   0.37026   0.21124   0.00000  Uiso   1.00
C333   C     0.80132   0.64509   0.23086   0.00000  Uiso   1.00
H334   H     0.77768   0.62859   0.21263   0.00000  Uiso   1.00
C335   C     0.83210   0.62397   0.25426   0.00000  Uiso   1.00
C336   C     0.96567   0.52302   0.28518   0.00000  Uiso   1.00
H337   H     0.93941   0.54139   0.31349   0.00000  Uiso   1.00
C338   C     0.68190   0.52301   0.28518   0.00000  Uiso   1.00
H339   H     0.69288   0.54148   0.31337   0.00000  Uiso   1.00
N340   N     0.71598   0.49999   0.24998   0.00000  Uiso   1.00
C341   C     0.70100   0.47686   0.21490   0.00000  Uiso   1.00
H342   H     0.72727   0.45824   0.18682   0.00000  Uiso   1.00
C343   C     0.98474   0.47689   0.21490   0.00000  Uiso   1.00
H344   H     0.97372   0.45833   0.18681   0.00000  Uiso   1.00
N345   N     0.95069   0.50002   0.25000   0.00000  Uiso   1.00
N346   N     0.88997   0.62574   0.30795   0.00000  Uiso   1.00
O347   O     0.93303   0.63938   0.30704   0.00000  Uiso   1.00
O348   O     0.86868   0.59867   0.34280   0.00000  Uiso   1.00
O349   O     0.12708   0.89345   0.25000   0.00000  Uiso   1.00
O350   O     0.20627   0.89346   0.25001   0.00000  Uiso   1.00
C351   C     0.16620   0.91260   0.25182   0.00000  Uiso   1.00
O352   O     0.10775   0.83332   0.32549   0.00000  Uiso   1.00
O353   O     0.18694   0.83333   0.32549   0.00000  Uiso   1.00
C354   C     0.14125   0.82835   0.34945   0.00000  Uiso   1.00
Cu355  Cu    0.11978   0.83333   0.25000   0.00000  Uiso   1.00
Cu356  Cu    0.21355   0.83334   0.25000   0.00000  Uiso   1.00
O357   O     0.12706   0.77321   0.25000   0.00000  Uiso   1.00
O358   O     0.20625   0.77322   0.25000   0.00000  Uiso   1.00
O359   O     0.14640   0.83334   0.17451   0.00000  Uiso   1.00
O360   O     0.22559   0.83335   0.17451   0.00000  Uiso   1.00
C361   C     0.16665   0.75409   0.25000   0.00000  Uiso   1.00
C362   C     0.19260   0.83347   0.15013   0.00000  Uiso   1.00
C363   C     0.26937   0.83338   0.01092   0.00000  Uiso   1.00
H364   H     0.28406   0.84396   0.08331   0.00000  Uiso   1.00
H365   H     0.28762   0.81436   0.41157   0.00000  Uiso   1.00
H366   H     0.30685   0.83881   0.48863   0.00000  Uiso   1.00
C367   C     0.20733   0.83173   0.09351   0.00000  Uiso   1.00
C368   C     0.07876   0.81101   0.43230   0.00000  Uiso   1.00
C369   C     0.06494   0.80307   0.48526   0.00000  Uiso   1.00
C370   C     0.09886   0.80576   0.01304   0.00000  Uiso   1.00
C371   C     0.14879   0.81297   0.48743   0.00000  Uiso   1.00
C372   C     0.16404   0.81317   0.43243   0.00000  Uiso   1.00
C373   C     0.18432   0.81954   0.01432   0.00000  Uiso   1.00
C374   C     0.23435   0.82320   0.48593   0.00000  Uiso   1.00
C375   C     0.24915   0.81549   0.43301   0.00000  Uiso   1.00
C376   C     0.21461   0.80858   0.40710   0.00000  Uiso   1.00
C377   C     0.17166   0.82422   0.06831   0.00000  Uiso   1.00
C378   C     0.25618   0.83701   0.06457   0.00000  Uiso   1.00
C379   C     0.12811   0.81728   0.40521   0.00000  Uiso   1.00
H380   H     0.13415   0.82240   0.09164   0.00000  Uiso   1.00
H381   H     0.05084   0.81150   0.41238   0.00000  Uiso   1.00
H382   H     0.08505   0.80067   0.05422   0.00000  Uiso   1.00
H383   H     0.02748   0.79554   0.00552   0.00000  Uiso   1.00
H384   H     0.22889   0.79810   0.36766   0.00000  Uiso   1.00
C385   C     0.19587   0.97933   0.27805   0.00000  Uiso   1.00
C386   C     0.19698   0.68882   0.27493   0.00000  Uiso   1.00
H387   H     0.22007   0.70604   0.29317   0.00000  Uiso   1.00
C388   C     0.16640   0.70956   0.25114   0.00000  Uiso   1.00
C389   C     0.13480   0.68772   0.22972   0.00000  Uiso   1.00
H390   H     0.11098   0.70359   0.21124   0.00000  Uiso   1.00
C391   C     0.13465   0.97842   0.23086   0.00000  Uiso   1.00
H392   H     0.11101   0.96192   0.21263   0.00000  Uiso   1.00
C393   C     0.16543   0.95730   0.25426   0.00000  Uiso   1.00
C394   C     0.29901   0.85636   0.28518   0.00000  Uiso   1.00
H395   H     0.27275   0.87472   0.31349   0.00000  Uiso   1.00
C396   C     0.01523   0.85635   0.28518   0.00000  Uiso   1.00
H397   H     0.02622   0.87482   0.31337   0.00000  Uiso   1.00
N398   N     0.04931   0.83332   0.24998   0.00000  Uiso   1.00
C399   C     0.03433   0.81020   0.21490   0.00000  Uiso   1.00
H400   H     0.06060   0.79158   0.18682   0.00000  Uiso   1.00
C401   C     0.31808   0.81022   0.21490   0.00000  Uiso   1.00
H402   H     0.30705   0.79166   0.18681   0.00000  Uiso   1.00
N403   N     0.28402   0.83335   0.25000   0.00000  Uiso   1.00
N404   N     0.22330   0.95907   0.30795   0.00000  Uiso   1.00
O405   O     0.26637   0.97271   0.30704   0.00000  Uiso   1.00
O406   O     0.20202   0.93200   0.34280   0.00000  Uiso   1.00
O407   O     0.46042   0.89345   0.25000   0.00000  Uiso   1.00
O408   O     0.53961   0.89346   0.25001   0.00000  Uiso   1.00
C409   C     0.49954   0.91260   0.25182   0.00000  Uiso   1.00
O410   O     0.44108   0.83332   0.32549   0.00000  Uiso   1.00
O411   O     0.52027   0.83333   0.32549   0.00000  Uiso   1.00
C412   C     0.47458   0.82835   0.34945   0.00000  Uiso   1.00
Cu413  Cu    0.45311   0.83333   0.25000   0.00000  Uiso   1.00
Cu414  Cu    0.54689   0.83334   0.25000   0.00000  Uiso   1.00
O415   O     0.46039   0.77321   0.25000   0.00000  Uiso   1.00
O416   O     0.53958   0.77322   0.25000   0.00000  Uiso   1.00
O417   O     0.47973   0.83334   0.17451   0.00000  Uiso   1.00
O418   O     0.55892   0.83335   0.17451   0.00000  Uiso   1.00
C419   C     0.49998   0.75409   0.25000   0.00000  Uiso   1.00
C420   C     0.52593   0.83347   0.15013   0.00000  Uiso   1.00
C421   C     0.60271   0.83338   0.01092   0.00000  Uiso   1.00
H422   H     0.61739   0.84396   0.08331   0.00000  Uiso   1.00
H423   H     0.62096   0.81436   0.41157   0.00000  Uiso   1.00
H424   H     0.64019   0.83881   0.48863   0.00000  Uiso   1.00
C425   C     0.54066   0.83173   0.09351   0.00000  Uiso   1.00
C426   C     0.41209   0.81101   0.43230   0.00000  Uiso   1.00
C427   C     0.39827   0.80307   0.48526   0.00000  Uiso   1.00
C428   C     0.43219   0.80576   0.01304   0.00000  Uiso   1.00
C429   C     0.48212   0.81297   0.48743   0.00000  Uiso   1.00
C430   C     0.49738   0.81317   0.43243   0.00000  Uiso   1.00
C431   C     0.51765   0.81954   0.01432   0.00000  Uiso   1.00
C432   C     0.56769   0.82320   0.48593   0.00000  Uiso   1.00
C433   C     0.58248   0.81549   0.43301   0.00000  Uiso   1.00
C434   C     0.54795   0.80858   0.40710   0.00000  Uiso   1.00
C435   C     0.50499   0.82422   0.06831   0.00000  Uiso   1.00
C436   C     0.58951   0.83701   0.06457   0.00000  Uiso   1.00
C437   C     0.46144   0.81728   0.40521   0.00000  Uiso   1.00
H438   H     0.46748   0.82240   0.09164   0.00000  Uiso   1.00
H439   H     0.38417   0.81150   0.41238   0.00000  Uiso   1.00
H440   H     0.41839   0.80067   0.05422   0.00000  Uiso   1.00
H441   H     0.36081   0.79554   0.00552   0.00000  Uiso   1.00
H442   H     0.56223   0.79810   0.36766   0.00000  Uiso   1.00
C443   C     0.52920   0.97933   0.27805   0.00000  Uiso   1.00
C444   C     0.53031   0.68882   0.27493   0.00000  Uiso   1.00
H445   H     0.55340   0.70604   0.29317   0.00000  Uiso   1.00
C446   C     0.49973   0.70956   0.25114   0.00000  Uiso   1.00
C447   C     0.46813   0.68772   0.22972   0.00000  Uiso   1.00
H448   H     0.44432   0.70359   0.21124   0.00000  Uiso   1.00
C449   C     0.46798   0.97842   0.23086   0.00000  Uiso   1.00
H450   H     0.44435   0.96192   0.21263   0.00000  Uiso   1.00
C451   C     0.49876   0.95730   0.25426   0.00000  Uiso   1.00
C452   C     0.63234   0.85636   0.28518   0.00000  Uiso   1.00
H453   H     0.60608   0.87472   0.31349   0.00000  Uiso   1.00
C454   C     0.34857   0.85635   0.28518   0.00000  Uiso   1.00
H455   H     0.35955   0.87482   0.31337   0.00000  Uiso   1.00
N456   N     0.38265   0.83332   0.24998   0.00000  Uiso   1.00
C457   C     0.36766   0.81020   0.21490   0.00000  Uiso   1.00
H458   H     0.39394   0.79158   0.18682   0.00000  Uiso   1.00
C459   C     0.65141   0.81022   0.21490   0.00000  Uiso   1.00
H460   H     0.64039   0.79166   0.18681   0.00000  Uiso   1.00
N461   N     0.61735   0.83335   0.25000   0.00000  Uiso   1.00
N462   N     0.55663   0.95907   0.30795   0.00000  Uiso   1.00
O463   O     0.59970   0.97271   0.30704   0.00000  Uiso   1.00
O464   O     0.53535   0.93200   0.34280   0.00000  Uiso   1.00
O465   O     0.79375   0.89345   0.25000   0.00000  Uiso   1.00
O466   O     0.87294   0.89346   0.25001   0.00000  Uiso   1.00
C467   C     0.83287   0.91260   0.25182   0.00000  Uiso   1.00
O468   O     0.77441   0.83332   0.32549   0.00000  Uiso   1.00
O469   O     0.85360   0.83333   0.32549   0.00000  Uiso   1.00
C470   C     0.80792   0.82835   0.34945   0.00000  Uiso   1.00
Cu471  Cu    0.78645   0.83333   0.25000   0.00000  Uiso   1.00
Cu472  Cu    0.88022   0.83334   0.25000   0.00000  Uiso   1.00
O473   O     0.79373   0.77321   0.25000   0.00000  Uiso   1.00
O474   O     0.87292   0.77322   0.25000   0.00000  Uiso   1.00
O475   O     0.81306   0.83334   0.17451   0.00000  Uiso   1.00
O476   O     0.89225   0.83335   0.17451   0.00000  Uiso   1.00
C477   C     0.83332   0.75409   0.25000   0.00000  Uiso   1.00
C478   C     0.85927   0.83347   0.15013   0.00000  Uiso   1.00
C479   C     0.93604   0.83338   0.01092   0.00000  Uiso   1.00
H480   H     0.95073   0.84396   0.08331   0.00000  Uiso   1.00
H481   H     0.95429   0.81436   0.41157   0.00000  Uiso   1.00
H482   H     0.97352   0.83881   0.48863   0.00000  Uiso   1.00
C483   C     0.87399   0.83173   0.09351   0.00000  Uiso   1.00
C484   C     0.74542   0.81101   0.43230   0.00000  Uiso   1.00
C485   C     0.73160   0.80307   0.48526   0.00000  Uiso   1.00
C486   C     0.76553   0.80576   0.01304   0.00000  Uiso   1.00
C487   C     0.81545   0.81297   0.48743   0.00000  Uiso   1.00
C488   C     0.83071   0.81317   0.43243   0.00000  Uiso   1.00
C489   C     0.85098   0.81954   0.01432   0.00000  Uiso   1.00
C490   C     0.90102   0.82320   0.48593   0.00000  Uiso   1.00
C491   C     0.91581   0.81549   0.43301   0.00000  Uiso   1.00
C492   C     0.88128   0.80858   0.40710   0.00000  Uiso   1.00
C493   C     0.83832   0.82422   0.06831   0.00000  Uiso   1.00
C494   C     0.92284   0.83701   0.06457   0.00000  Uiso   1.00
C495   C     0.79477   0.81728   0.40521   0.00000  Uiso   1.00
H496   H     0.80082   0.82240   0.09164   0.00000  Uiso   1.00
H497   H     0.71751   0.81150   0.41238   0.00000  Uiso   1.00
H498   H     0.75172   0.80067   0.05422   0.00000  Uiso   1.00
H499   H     0.69414   0.79554   0.00552   0.00000  Uiso   1.00
H500   H     0.89556   0.79810   0.36766   0.00000  Uiso   1.00
C501   C     0.86254   0.97933   0.27805   0.00000  Uiso   1.00
C502   C     0.86364   0.68882   0.27493   0.00000  Uiso   1.00
H503   H     0.88673   0.70604   0.29317   0.00000  Uiso   1.00
C504   C     0.83307   0.70956   0.25114   0.00000  Uiso   1.00
C505   C     0.80147   0.68772   0.22972   0.00000  Uiso   1.00
H506   H     0.77765   0.70359   0.21124   0.00000  Uiso   1.00
C507   C     0.80132   0.97842   0.23086   0.00000  Uiso   1.00
H508   H     0.77768   0.96192   0.21263   0.00000  Uiso   1.00
C509   C     0.83210   0.95730   0.25426   0.00000  Uiso   1.00
C510   C     0.96567   0.85636   0.28518   0.00000  Uiso   1.00
H511   H     0.93941   0.87472   0.31349   0.00000  Uiso   1.00
C512   C     0.68190   0.85635   0.28518   0.00000  Uiso   1.00
H513   H     0.69288   0.87482   0.31337   0.00000  Uiso   1.00
N514   N     0.71598   0.83332   0.24998   0.00000  Uiso   1.00
C515   C     0.70100   0.81020   0.21490   0.00000  Uiso   1.00
H516   H     0.72727   0.79158   0.18682   0.00000  Uiso   1.00
C517   C     0.98474   0.81022   0.21490   0.00000  Uiso   1.00
H518   H     0.97372   0.79166   0.18681   0.00000  Uiso   1.00
N519   N     0.95069   0.83335   0.25000   0.00000  Uiso   1.00
N520   N     0.88997   0.95907   0.30795   0.00000  Uiso   1.00
O521   O     0.93303   0.97271   0.30704   0.00000  Uiso   1.00
O522   O     0.86868   0.93200   0.34280   0.00000  Uiso   1.00
O523   O     0.12708   0.22678   0.75000   0.00000  Uiso   1.00
O524   O     0.20627   0.22679   0.75001   0.00000  Uiso   1.00
C525   C     0.16620   0.24593   0.75182   0.00000  Uiso   1.00
O526   O     0.10775   0.16665   0.82549   0.00000  Uiso   1.00
O527   O     0.18694   0.16666   0.82549   0.00000  Uiso   1.00
C528   C     0.14125   0.16169   0.84945   0.00000  Uiso   1.00
Cu529  Cu    0.11978   0.16666   0.75000   0.00000  Uiso   1.00
Cu530  Cu    0.21355   0.16667   0.75000   0.00000  Uiso   1.00
O531   O     0.12706   0.10654   0.75000   0.00000  Uiso   1.00
O532   O     0.20625   0.10655   0.75000   0.00000  Uiso   1.00
O533   O     0.14640   0.16667   0.67451   0.00000  Uiso   1.00
O534   O     0.22559   0.16668   0.67451   0.00000  Uiso   1.00
C535   C     0.16665   0.08742   0.75000   0.00000  Uiso   1.00
C536   C     0.19260   0.16680   0.65013   0.00000  Uiso   1.00
C537   C     0.26937   0.16671   0.51092   0.00000  Uiso   1.00
H538   H     0.28406   0.17730   0.58331   0.00000  Uiso   1.00
H539   H     0.28762   0.14769   0.91157   0.00000  Uiso   1.00
H540   H     0.30685   0.17214   0.98863   0.00000  Uiso   1.00
C541   C     0.20733   0.16507   0.59351   0.00000  Uiso   1.00
C542   C     0.07876   0.14435   0.93230   0.00000  Uiso   1.00
C543   C     0.06494   0.13640   0.98526   0.00000  Uiso   1.00
C544   C     0.09886   0.13909   0.51304   0.00000  Uiso   1.00
C545   C     0.14879   0.14630   0.98743   0.00000  Uiso   1.00
C546   C     0.16404   0.14650   0.93243   0.00000  Uiso   1.00
C547   C     0.18432   0.15288   0.51432   0.00000  Uiso   1.00
C548   C     0.23435   0.15653   0.98593   0.00000  Uiso   1.00
C549   C     0.24915   0.14882   0.93301   0.00000  Uiso   1.00
C550   C     0.21461   0.14192   0.90710   0.00000  Uiso   1.00
C551   C     0.17166   0.15755   0.56831   0.00000  Uiso   1.00
C552   C     0.25618   0.17034   0.56457   0.00000  Uiso   1.00
C553   C     0.12811   0.15062   0.90521   0.00000  Uiso   1.00
H554   H     0.13415   0.15573   0.59164   0.00000  Uiso   1.00
H555   H     0.05084   0.14483   0.91238   0.00000  Uiso   1.00
H556   H     0.08505   0.13401   0.55422   0.00000  Uiso   1.00
H557   H     0.02748   0.12888   0.50552   0.00000  Uiso   1.00
H558   H     0.22889   0.13144   0.86766   0.00000  Uiso   1.00
C559   C     0.19587   0.31266   0.77805   0.00000  Uiso   1.00
C560   C     0.19698   0.02215   0.77493   0.00000  Uiso   1.00
H561   H     0.22007   0.03938   0.79317   0.00000  Uiso   1.00
C562   C     0.16640   0.04289   0.75114   0.00000  Uiso   1.00
C563   C     0.13480   0.02105   0.72972   0.00000  Uiso   1.00
H564   H     0.11098   0.03693   0.71124   0.00000  Uiso   1.00
C565   C     0.13465   0.31175   0.73086   0.00000  Uiso   1.00
H566   H     0.11101   0.29526   0.71263   0.00000  Uiso   1.00
C567   C     0.16543   0.29064   0.75426   0.00000  Uiso   1.00
C568   C     0.29901   0.18969   0.78518   0.00000  Uiso   1.00
H569   H     0.27275   0.20806   0.81349   0.00000  Uiso   1.00
C570   C     0.01523   0.18968   0.78518   0.00000  Uiso   1.00
H571   H     0.02622   0.20815   0.81337   0.00000  Uiso   1.00
N572   N     0.04931   0.16666   0.74998   0.00000  Uiso   1.00
C573   C     0.03433   0.14353   0.71490   0.00000  Uiso   1.00
H574   H     0.06060   0.12491   0.68682   0.00000  Uiso   1.00
C575   C     0.31808   0.14356   0.71490   0.00000  Uiso   1.00
H576   H     0.30705   0.12500   0.68681   0.00000  Uiso   1.00
N577   N     0.28402   0.16669   0.75000   0.00000  Uiso   1.00
N578   N     0.22330   0.29241   0.80795   0.00000  Uiso   1.00
O579   O     0.26637   0.30605   0.80704   0.00000  Uiso   1.00
O580   O     0.20202   0.26534   0.84280   0.00000  Uiso   1.00
O581   O     0.46042   0.22678   0.75000   0.00000  Uiso   1.00
O582   O     0.53961   0.22679   0.75001   0.00000  Uiso   1.00
C583   C     0.49954   0.24593   0.75182   0.00000  Uiso   1.00
O584   O     0.44108   0.16665   0.82549   0.00000  Uiso   1.00
O585   O     0.52027   0.16666   0.82549   0.00000  Uiso   1.00
C586   C     0.47458   0.16169   0.84945   0.00000  Uiso   1.00
Cu587  Cu    0.45311   0.16666   0.75000   0.00000  Uiso   1.00
Cu588  Cu    0.54689   0.16667   0.75000   0.00000  Uiso   1.00
O589   O     0.46039   0.10654   0.75000   0.00000  Uiso   1.00
O590   O     0.53958   0.10655   0.75000   0.00000  Uiso   1.00
O591   O     0.47973   0.16667   0.67451   0.00000  Uiso   1.00
O592   O     0.55892   0.16668   0.67451   0.00000  Uiso   1.00
C593   C     0.49998   0.08742   0.75000   0.00000  Uiso   1.00
C594   C     0.52593   0.16680   0.65013   0.00000  Uiso   1.00
C595   C     0.60271   0.16671   0.51092   0.00000  Uiso   1.00
H596   H     0.61739   0.17730   0.58331   0.00000  Uiso   1.00
H597   H     0.62096   0.14769   0.91157   0.00000  Uiso   1.00
H598   H     0.64019   0.17214   0.98863   0.00000  Uiso   1.00
C599   C     0.54066   0.16507   0.59351   0.00000  Uiso   1.00
C600   C     0.41209   0.14435   0.93230   0.00000  Uiso   1.00
C601   C     0.39827   0.13640   0.98526   0.00000  Uiso   1.00
C602   C     0.43219   0.13909   0.51304   0.00000  Uiso   1.00
C603   C     0.48212   0.14630   0.98743   0.00000  Uiso   1.00
C604   C     0.49738   0.14650   0.93243   0.00000  Uiso   1.00
C605   C     0.51765   0.15288   0.51432   0.00000  Uiso   1.00
C606   C     0.56769   0.15653   0.98593   0.00000  Uiso   1.00
C607   C     0.58248   0.14882   0.93301   0.00000  Uiso   1.00
C608   C     0.54795   0.14192   0.90710   0.00000  Uiso   1.00
C609   C     0.50499   0.15755   0.56831   0.00000  Uiso   1.00
C610   C     0.58951   0.17034   0.56457   0.00000  Uiso   1.00
C611   C     0.46144   0.15062   0.90521   0.00000  Uiso   1.00
H612   H     0.46748   0.15573   0.59164   0.00000  Uiso   1.00
H613   H     0.38417   0.14483   0.91238   0.00000  Uiso   1.00
H614   H     0.41839   0.13401   0.55422   0.00000  Uiso   1.00
H615   H     0.36081   0.12888   0.50552   0.00000  Uiso   1.00
H616   H     0.56223   0.13144   0.86766   0.00000  Uiso   1.00
C617   C     0.52920   0.31266   0.77805   0.00000  Uiso   1.00
C618   C     0.53031   0.02215   0.77493   0.00000  Uiso   1.00
H619   H     0.55340   0.03938   0.79317   0.00000  Uiso   1.00
C620   C     0.49973   0.04289   0.75114   0.00000  Uiso   1.00
C621   C     0.46813   0.02105   0.72972   0.00000  Uiso   1.00
H622   H     0.44432   0.03693   0.71124   0.00000  Uiso   1.00
C623   C     0.46798   0.31175   0.73086   0.00000  Uiso   1.00
H624   H     0.44435   0.29526   0.71263   0.00000  Uiso   1.00
C625   C     0.49876   0.29064   0.75426   0.00000  Uiso   1.00
C626   C     0.63234   0.18969   0.78518   0.00000  Uiso   1.00
H627   H     0.60608   0.20806   0.81349   0.00000  Uiso   1.00
C628   C     0.34857   0.18968   0.78518   0.00000  Uiso   1.00
H629   H     0.35955   0.20815   0.81337   0.00000  Uiso   1.00
N630   N     0.38265   0.16666   0.74998   0.00000  Uiso   1.00
C631   C     0.36766   0.14353   0.71490   0.00000  Uiso   1.00
H632   H     0.39394   0.12491   0.68682   0.00000  Uiso   1.00
C633   C     0.65141   0.14356   0.71490   0.00000  Uiso   1.00
H634   H     0.64039   0.12500   0.68681   0.00000  Uiso   1.00
N635   N     0.61735   0.16669   0.75000   0.00000  Uiso   1.00
N636   N     0.55663   0.29241   0.80795   0.00000  Uiso   1.00
O637   O     0.59970   0.30605   0.80704   0.00000  Uiso   1.00
O638   O     0.53535   0.26534   0.84280   0.00000  Uiso   1.00
O639   O     0.79375   0.22678   0.75000   0.00000  Uiso   1.00
O640   O     0.87294   0.22679   0.75001   0.00000  Uiso   1.00
C641   C     0.83287   0.24593   0.75182   0.00000  Uiso   1.00
O642   O     0.77441   0.16665   0.82549   0.00000  Uiso   1.00
O643   O     0.85360   0.16666   0.82549   0.00000  Uiso   1.00
C644   C     0.80792   0.16169   0.84945   0.00000  Uiso   1.00
Cu645  Cu    0.78645   0.16666   0.75000   0.00000  Uiso   1.00
Cu646  Cu    0.88022   0.16667   0.75000   0.00000  Uiso   1.00
O647   O     0.79373   0.10654   0.75000   0.00000  Uiso   1.00
O648   O     0.87292   0.10655   0.75000   0.00000  Uiso   1.00
O649   O     0.81306   0.16667   0.67451   0.00000  Uiso   1.00
O650   O     0.89225   0.16668   0.67451   0.00000  Uiso   1.00
C651   C     0.83332   0.08742   0.75000   0.00000  Uiso   1.00
C652   C     0.85927   0.16680   0.65013   0.00000  Uiso   1.00
C653   C     0.93604   0.16671   0.51092   0.00000  Uiso   1.00
H654   H     0.95073   0.17730   0.58331   0.00000  Uiso   1.00
H655   H     0.95429   0.14769   0.91157   0.00000  Uiso   1.00
H656   H     0.97352   0.17214   0.98863   0.00000  Uiso   1.00
C657   C     0.87399   0.16507   0.59351   0.00000  Uiso   1.00
C658   C     0.74542   0.14435   0.93230   0.00000  Uiso   1.00
C659   C     0.73160   0.13640   0.98526   0.00000  Uiso   1.00
C660   C     0.76553   0.13909   0.51304   0.00000  Uiso   1.00
C661   C     0.81545   0.14630   0.98743   0.00000  Uiso   1.00
C662   C     0.83071   0.14650   0.93243   0.00000  Uiso   1.00
C663   C     0.85098   0.15288   0.51432   0.00000  Uiso   1.00
C664   C     0.90102   0.15653   0.98593   0.00000  Uiso   1.00
C665   C     0.91581   0.14882   0.93301   0.00000  Uiso   1.00
C666   C     0.88128   0.14192   0.90710   0.00000  Uiso   1.00
C667   C     0.83832   0.15755   0.56831   0.00000  Uiso   1.00
C668   C     0.92284   0.17034   0.56457   0.00000  Uiso   1.00
C669   C     0.79477   0.15062   0.90521   0.00000  Uiso   1.00
H670   H     0.80082   0.15573   0.59164   0.00000  Uiso   1.00
H671   H     0.71751   0.14483   0.91238   0.00000  Uiso   1.00
H672   H     0.75172   0.13401   0.55422   0.00000  Uiso   1.00
H673   H     0.69414   0.12888   0.50552   0.00000  Uiso   1.00
H674   H     0.89556   0.13144   0.86766   0.00000  Uiso   1.00
C675   C     0.86254   0.31266   0.77805   0.00000  Uiso   1.00
C676   C     0.86364   0.02215   0.77493   0.00000  Uiso   1.00
H677   H     0.88673   0.03938   0.79317   0.00000  Uiso   1.00
C678   C     0.83307   0.04289   0.75114   0.00000  Uiso   1.00
C679   C     0.80147   0.02105   0.72972   0.00000  Uiso   1.00
H680   H     0.77765   0.03693   0.71124   0.00000  Uiso   1.00
C681   C     0.80132   0.31175   0.73086   0.00000  Uiso   1.00
H682   H     0.77768   0.29526   0.71263   0.00000  Uiso   1.00
C683   C     0.83210   0.29064   0.75426   0.00000  Uiso   1.00
C684   C     0.96567   0.18969   0.78518   0.00000  Uiso   1.00
H685   H     0.93941   0.20806   0.81349   0.00000  Uiso   1.00
C686   C     0.68190   0.18968   0.78518   0.00000  Uiso   1.00
H687   H     0.69288   0.20815   0.81337   0.00000  Uiso   1.00
N688   N     0.71598   0.16666   0.74998   0.00000  Uiso   1.00
C689   C     0.70100   0.14353   0.71490   0.00000  Uiso   1.00
H690   H     0.72727   0.12491   0.68682   0.00000  Uiso   1.00
C691   C     0.98474   0.14356   0.71490   0.00000  Uiso   1.00
H692   H     0.97372   0.12500   0.68681   0.00000  Uiso   1.00
N693   N     0.95069   0.16669   0.75000   0.00000  Uiso   1.00
N694   N     0.88997   0.29241   0.80795   0.00000  Uiso   1.00
O695   O     0.93303   0.30605   0.80704   0.00000  Uiso   1.00
O696   O     0.86868   0.26534   0.84280   0.00000  Uiso   1.00
O697   O     0.12708   0.56011   0.75000   0.00000  Uiso   1.00
O698   O     0.20627   0.56012   0.75001   0.00000  Uiso   1.00
C699   C     0.16620   0.57927   0.75182   0.00000  Uiso   1.00
O700   O     0.10775   0.49998   0.82549   0.00000  Uiso   1.00
O701   O     0.18694   0.49999   0.82549   0.00000  Uiso   1.00
C702   C     0.14125   0.49502   0.84945   0.00000  Uiso   1.00
Cu703  Cu    0.11978   0.49999   0.75000   0.00000  Uiso   1.00
Cu704  Cu    0.21355   0.50001   0.75000   0.00000  Uiso   1.00
O705   O     0.12706   0.43988   0.75000   0.00000  Uiso   1.00
O706   O     0.20625   0.43989   0.75000   0.00000  Uiso   1.00
O707   O     0.14640   0.50001   0.67451   0.00000  Uiso   1.00
O708   O     0.22559   0.50002   0.67451   0.00000  Uiso   1.00
C709   C     0.16665   0.42075   0.75000   0.00000  Uiso   1.00
C710   C     0.19260   0.50013   0.65013   0.00000  Uiso   1.00
C711   C     0.26937   0.50005   0.51092   0.00000  Uiso   1.00
H712   H     0.28406   0.51063   0.58331   0.00000  Uiso   1.00
H713   H     0.28762   0.48102   0.91157   0.00000  Uiso   1.00
H714   H     0.30685   0.50548   0.98863   0.00000  Uiso   1.00
C715   C     0.20733   0.49840   0.59351   0.00000  Uiso   1.00
C716   C     0.07876   0.47768   0.93230   0.00000  Uiso   1.00
C717   C     0.06494   0.46973   0.98526   0.00000  Uiso   1.00
C718   C     0.09886   0.47242   0.51304   0.00000  Uiso   1.00
C719   C     0.14879   0.47964   0.98743   0.00000  Uiso   1.00
C720   C     0.16404   0.47983   0.93243   0.00000  Uiso   1.00
C721   C     0.18432   0.48621   0.51432   0.00000  Uiso   1.00
C722   C     0.23435   0.48987   0.98593   0.00000  Uiso   1.00
C723   C     0.24915   0.48215   0.93301   0.00000  Uiso   1.00
C724   C     0.21461   0.47525   0.90710   0.00000  Uiso   1.00
C725   C     0.17166   0.49089   0.56831   0.00000  Uiso   1.00
C726   C     0.25618   0.50368   0.56457   0.00000  Uiso   1.00
C727   C     0.12811   0.48395   0.90521   0.00000  Uiso   1.00
H728   H     0.13415   0.48906   0.59164   0.00000  Uiso   1.00
H729   H     0.05084   0.47817   0.91238   0.00000  Uiso   1.00
H730   H     0.08505   0.46734   0.55422   0.00000  Uiso   1.00
H731   H     0.02748   0.46221   0.50552   0.00000  Uiso   1.00
H732   H     0.22889   0.46477   0.86766   0.00000  Uiso   1.00
C733   C     0.19587   0.64599   0.77805   0.00000  Uiso   1.00
C734   C     0.19698   0.35549   0.77493   0.00000  Uiso   1.00
H735   H     0.22007   0.37271   0.79317   0.00000  Uiso   1.00
C736   C     0.16640   0.37622   0.75114   0.00000  Uiso   1.00
C737   C     0.13480   0.35439   0.72972   0.00000  Uiso   1.00
H738   H     0.11098   0.37026   0.71124   0.00000  Uiso   1.00
C739   C     0.13465   0.64509   0.73086   0.00000  Uiso   1.00
H740   H     0.11101   0.62859   0.71263   0.00000  Uiso   1.00
C741   C     0.16543   0.62397   0.75426   0.00000  Uiso   1.00
C742   C     0.29901   0.52302   0.78518   0.00000  Uiso   1.00
H743   H     0.27275   0.54139   0.81349   0.00000  Uiso   1.00
C744   C     0.01523   0.52301   0.78518   0.00000  Uiso   1.00
H745   H     0.02622   0.54148   0.81337   0.00000  Uiso   1.00
N746   N     0.04931   0.49999   0.74998   0.00000  Uiso   1.00
C747   C     0.03433   0.47686   0.71490   0.00000  Uiso   1.00
H748   H     0.06060   0.45824   0.68682   0.00000  Uiso   1.00
C749   C     0.31808   0.47689   0.71490   0.00000  Uiso   1.00
H750   H     0.30705   0.45833   0.68681   0.00000  Uiso   1.00
N751   N     0.28402   0.50002   0.75000   0.00000  Uiso   1.00
N752   N     0.22330   0.62574   0.80795   0.00000  Uiso   1.00
O753   O     0.26637   0.63938   0.80704   0.00000  Uiso   1.00
O754   O     0.20202   0.59867   0.84280   0.00000  Uiso   1.00
O755   O     0.46042   0.56011   0.75000   0.00000  Uiso   1.00
O756   O     0.53961   0.56012   0.75001   0.00000  Uiso   1.00
C757   C     0.49954   0.57927   0.75182   0.00000  Uiso   1.00
O758   O     0.44108   0.49998   0.82549   0.00000  Uiso   1.00
O759   O     0.52027   0.49999   0.82549   0.00000  Uiso   1.00
C760   C     0.47458   0.49502   0.84945   0.00000  Uiso   1.00
Cu761  Cu    0.45311   0.49999   0.75000   0.00000  Uiso   1.00
Cu762  Cu    0.54689   0.50001   0.75000   0.00000  Uiso   1.00
O763   O     0.46039   0.43988   0.75000   0.00000  Uiso   1.00
O764   O     0.53958   0.43989   0.75000   0.00000  Uiso   1.00
O765   O     0.47973   0.50001   0.67451   0.00000  Uiso   1.00
O766   O     0.55892   0.50002   0.67451   0.00000  Uiso   1.00
C767   C     0.49998   0.42075   0.75000   0.00000  Uiso   1.00
C768   C     0.52593   0.50013   0.65013   0.00000  Uiso   1.00
C769   C     0.60271   0.50005   0.51092   0.00000  Uiso   1.00
H770   H     0.61739   0.51063   0.58331   0.00000  Uiso   1.00
H771   H     0.62096   0.48102   0.91157   0.00000  Uiso   1.00
H772   H     0.64019   0.50548   0.98863   0.00000  Uiso   1.00
C773   C     0.54066   0.49840   0.59351   0.00000  Uiso   1.00
C774   C     0.41209   0.47768   0.93230   0.00000  Uiso   1.00
C775   C     0.39827   0.46973   0.98526   0.00000  Uiso   1.00
C776   C     0.43219   0.47242   0.51304   0.00000  Uiso   1.00
C777   C     0.48212   0.47964   0.98743   0.00000  Uiso   1.00
C778   C     0.49738   0.47983   0.93243   0.00000  Uiso   1.00
C779   C     0.51765   0.48621   0.51432   0.00000  Uiso   1.00
C780   C     0.56769   0.48987   0.98593   0.00000  Uiso   1.00
C781   C     0.58248   0.48215   0.93301   0.00000  Uiso   1.00
C782   C     0.54795   0.47525   0.90710   0.00000  Uiso   1.00
C783   C     0.50499   0.49089   0.56831   0.00000  Uiso   1.00
C784   C     0.58951   0.50368   0.56457   0.00000  Uiso   1.00
C785   C     0.46144   0.48395   0.90521   0.00000  Uiso   1.00
H786   H     0.46748   0.48906   0.59164   0.00000  Uiso   1.00
H787   H     0.38417   0.47817   0.91238   0.00000  Uiso   1.00
H788   H     0.41839   0.46734   0.55422   0.00000  Uiso   1.00
H789   H     0.36081   0.46221   0.50552   0.00000  Uiso   1.00
H790   H     0.56223   0.46477   0.86766   0.00000  Uiso   1.00
C791   C     0.52920   0.64599   0.77805   0.00000  Uiso   1.00
C792   C     0.53031   0.35549   0.77493   0.00000  Uiso   1.00
H793   H     0.55340   0.37271   0.79317   0.00000  Uiso   1.00
C794   C     0.49973   0.37622   0.75114   0.00000  Uiso   1.00
C795   C     0.46813   0.35439   0.72972   0.00000  Uiso   1.00
H796   H     0.44432   0.37026   0.71124   0.00000  Uiso   1.00
C797   C     0.46798   0.64509   0.73086   0.00000  Uiso   1.00
H798   H     0.44435   0.62859   0.71263   0.00000  Uiso   1.00
C799   C     0.49876   0.62397   0.75426   0.00000  Uiso   1.00
C800   C     0.63234   0.52302   0.78518   0.00000  Uiso   1.00
H801   H     0.60608   0.54139   0.81349   0.00000  Uiso   1.00
C802   C     0.34857   0.52301   0.78518   0.00000  Uiso   1.00
H803   H     0.35955   0.54148   0.81337   0.00000  Uiso   1.00
N804   N     0.38265   0.49999   0.74998   0.00000  Uiso   1.00
C805   C     0.36766   0.47686   0.71490   0.00000  Uiso   1.00
H806   H     0.39394   0.45824   0.68682   0.00000  Uiso   1.00
C807   C     0.65141   0.47689   0.71490   0.00000  Uiso   1.00
H808   H     0.64039   0.45833   0.68681   0.00000  Uiso   1.00
N809   N     0.61735   0.50002   0.75000   0.00000  Uiso   1.00
N810   N     0.55663   0.62574   0.80795   0.00000  Uiso   1.00
O811   O     0.59970   0.63938   0.80704   0.00000  Uiso   1.00
O812   O     0.53535   0.59867   0.84280   0.00000  Uiso   1.00
O813   O     0.79375   0.56011   0.75000   0.00000  Uiso   1.00
O814   O     0.87294   0.56012   0.75001   0.00000  Uiso   1.00
C815   C     0.83287   0.57927   0.75182   0.00000  Uiso   1.00
O816   O     0.77441   0.49998   0.82549   0.00000  Uiso   1.00
O817   O     0.85360   0.49999   0.82549   0.00000  Uiso   1.00
C818   C     0.80792   0.49502   0.84945   0.00000  Uiso   1.00
Cu819  Cu    0.78645   0.49999   0.75000   0.00000  Uiso   1.00
Cu820  Cu    0.88022   0.50001   0.75000   0.00000  Uiso   1.00
O821   O     0.79373   0.43988   0.75000   0.00000  Uiso   1.00
O822   O     0.87292   0.43989   0.75000   0.00000  Uiso   1.00
O823   O     0.81306   0.50001   0.67451   0.00000  Uiso   1.00
O824   O     0.89225   0.50002   0.67451   0.00000  Uiso   1.00
C825   C     0.83332   0.42075   0.75000   0.00000  Uiso   1.00
C826   C     0.85927   0.50013   0.65013   0.00000  Uiso   1.00
C827   C     0.93604   0.50005   0.51092   0.00000  Uiso   1.00
H828   H     0.95073   0.51063   0.58331   0.00000  Uiso   1.00
H829   H     0.95429   0.48102   0.91157   0.00000  Uiso   1.00
H830   H     0.97352   0.50548   0.98863   0.00000  Uiso   1.00
C831   C     0.87399   0.49840   0.59351   0.00000  Uiso   1.00
C832   C     0.74542   0.47768   0.93230   0.00000  Uiso   1.00
C833   C     0.73160   0.46973   0.98526   0.00000  Uiso   1.00
C834   C     0.76553   0.47242   0.51304   0.00000  Uiso   1.00
C835   C     0.81545   0.47964   0.98743   0.00000  Uiso   1.00
C836   C     0.83071   0.47983   0.93243   0.00000  Uiso   1.00
C837   C     0.85098   0.48621   0.51432   0.00000  Uiso   1.00
C838   C     0.90102   0.48987   0.98593   0.00000  Uiso   1.00
C839   C     0.91581   0.48215   0.93301   0.00000  Uiso   1.00
C840   C     0.88128   0.47525   0.90710   0.00000  Uiso   1.00
C841   C     0.83832   0.49089   0.56831   0.00000  Uiso   1.00
C842   C     0.92284   0.50368   0.56457   0.00000  Uiso   1.00
C843   C     0.79477   0.48395   0.90521   0.00000  Uiso   1.00
H844   H     0.80082   0.48906   0.59164   0.00000  Uiso   1.00
H845   H     0.71751   0.47817   0.91238   0.00000  Uiso   1.00
H846   H     0.75172   0.46734   0.55422   0.00000  Uiso   1.00
H847   H     0.69414   0.46221   0.50552   0.00000  Uiso   1.00
H848   H     0.89556   0.46477   0.86766   0.00000  Uiso   1.00
C849   C     0.86254   0.64599   0.77805   0.00000  Uiso   1.00
C850   C     0.86364   0.35549   0.77493   0.00000  Uiso   1.00
H851   H     0.88673   0.37271   0.79317   0.00000  Uiso   1.00
C852   C     0.83307   0.37622   0.75114   0.00000  Uiso   1.00
C853   C     0.80147   0.35439   0.72972   0.00000  Uiso   1.00
H854   H     0.77765   0.37026   0.71124   0.00000  Uiso   1.00
C855   C     0.80132   0.64509   0.73086   0.00000  Uiso   1.00
H856   H     0.77768   0.62859   0.71263   0.00000  Uiso   1.00
C857   C     0.83210   0.62397   0.75426   0.00000  Uiso   1.00
C858   C     0.96567   0.52302   0.78518   0.00000  Uiso   1.00
H859   H     0.93941   0.54139   0.81349   0.00000  Uiso   1.00
C860   C     0.68190   0.52301   0.78518   0.00000  Uiso   1.00
H861   H     0.69288   0.54148   0.81337   0.00000  Uiso   1.00
N862   N     0.71598   0.49999   0.74998   0.00000  Uiso   1.00
C863   C     0.70100   0.47686   0.71490   0.00000  Uiso   1.00
H864   H     0.72727   0.45824   0.68682   0.00000  Uiso   1.00
C865   C     0.98474   0.47689   0.71490   0.00000  Uiso   1.00
H866   H     0.97372   0.45833   0.68681   0.00000  Uiso   1.00
N867   N     0.95069   0.50002   0.75000   0.00000  Uiso   1.00
N868   N     0.88997   0.62574   0.80795   0.00000  Uiso   1.00
O869   O     0.93303   0.63938   0.80704   0.00000  Uiso   1.00
O870   O     0.86868   0.59867   0.84280   0.00000  Uiso   1.00
O871   O     0.12708   0.89345   0.75000   0.00000  Uiso   1.00
O872   O     0.20627   0.89346   0.75001   0.00000  Uiso   1.00
C873   C     0.16620   0.91260   0.75182   0.00000  Uiso   1.00
O874   O     0.10775   0.83332   0.82549   0.00000  Uiso   1.00
O875   O     0.18694   0.83333   0.82549   0.00000  Uiso   1.00
C876   C     0.14125   0.82835   0.84945   0.00000  Uiso   1.00
Cu877  Cu    0.11978   0.83333   0.75000   0.00000  Uiso   1.00
Cu878  Cu    0.21355   0.83334   0.75000   0.00000  Uiso   1.00
O879   O     0.12706   0.77321   0.75000   0.00000  Uiso   1.00
O880   O     0.20625   0.77322   0.75000   0.00000  Uiso   1.00
O881   O     0.14640   0.83334   0.67451   0.00000  Uiso   1.00
O882   O     0.22559   0.83335   0.67451   0.00000  Uiso   1.00
C883   C     0.16665   0.75409   0.75000   0.00000  Uiso   1.00
C884   C     0.19260   0.83347   0.65013   0.00000  Uiso   1.00
C885   C     0.26937   0.83338   0.51092   0.00000  Uiso   1.00
H886   H     0.28406   0.84396   0.58331   0.00000  Uiso   1.00
H887   H     0.28762   0.81436   0.91157   0.00000  Uiso   1.00
H888   H     0.30685   0.83881   0.98863   0.00000  Uiso   1.00
C889   C     0.20733   0.83173   0.59351   0.00000  Uiso   1.00
C890   C     0.07876   0.81101   0.93230   0.00000  Uiso   1.00
C891   C     0.06494   0.80307   0.98526   0.00000  Uiso   1.00
C892   C     0.09886   0.80576   0.51304   0.00000  Uiso   1.00
C893   C     0.14879   0.81297   0.98743   0.00000  Uiso   1.00
C894   C     0.16404   0.81317   0.93243   0.00000  Uiso   1.00
C895   C     0.18432   0.81954   0.51432   0.00000  Uiso   1.00
C896   C     0.23435   0.82320   0.98593   0.00000  Uiso   1.00
C897   C     0.24915   0.81549   0.93301   0.00000  Uiso   1.00
C898   C     0.21461   0.80858   0.90710   0.00000  Uiso   1.00
C899   C     0.17166   0.82422   0.56831   0.00000  Uiso   1.00
C900   C     0.25618   0.83701   0.56457   0.00000  Uiso   1.00
C901   C     0.12811   0.81728   0.90521   0.00000  Uiso   1.00
H902   H     0.13415   0.82240   0.59164   0.00000  Uiso   1.00
H903   H     0.05084   0.81150   0.91238   0.00000  Uiso   1.00
H904   H     0.08505   0.80067   0.55422   0.00000  Uiso   1.00
H905   H     0.02748   0.79554   0.50552   0.00000  Uiso   1.00
H906   H     0.22889   0.79810   0.86766   0.00000  Uiso   1.00
C907   C     0.19587   0.97933   0.77805   0.00000  Uiso   1.00
C908   C     0.19698   0.68882   0.77493   0.00000  Uiso   1.00
H909   H     0.22007   0.70604   0.79317   0.00000  Uiso   1.00
C910   C     0.16640   0.70956   0.75114   0.00000  Uiso   1.00
C911   C     0.13480   0.68772   0.72972   0.00000  Uiso   1.00
H912   H     0.11098   0.70359   0.71124   0.00000  Uiso   1.00
C913   C     0.13465   0.97842   0.73086   0.00000  Uiso   1.00
H914   H     0.11101   0.96192   0.71263   0.00000  Uiso   1.00
C915   C     0.16543   0.95730   0.75426   0.00000  Uiso   1.00
C916   C     0.29901   0.85636   0.78518   0.00000  Uiso   1.00
H917   H     0.27275   0.87472   0.81349   0.00000  Uiso   1.00
C918   C     0.01523   0.85635   0.78518   0.00000  Uiso   1.00
H919   H     0.02622   0.87482   0.81337   0.00000  Uiso   1.00
N920   N     0.04931   0.83332   0.74998   0.00000  Uiso   1.00
C921   C     0.03433   0.81020   0.71490   0.00000  Uiso   1.00
H922   H     0.06060   0.79158   0.68682   0.00000  Uiso   1.00
C923   C     0.31808   0.81022   0.71490   0.00000  Uiso   1.00
H924   H     0.30705   0.79166   0.68681   0.00000  Uiso   1.00
N925   N     0.28402   0.83335   0.75000   0.00000  Uiso   1.00
N926   N     0.22330   0.95907   0.80795   0.00000  Uiso   1.00
O927   O     0.26637   0.97271   0.80704   0.00000  Uiso   1.00
O928   O     0.20202   0.93200   0.84280   0.00000  Uiso   1.00
O929   O     0.46042   0.89345   0.75000   0.00000  Uiso   1.00
O930   O     0.53961   0.89346   0.75001   0.00000  Uiso   1.00
C931   C     0.49954   0.91260   0.75182   0.00000  Uiso   1.00
O932   O     0.44108   0.83332   0.82549   0.00000  Uiso   1.00
O933   O     0.52027   0.83333   0.82549   0.00000  Uiso   1.00
C934   C     0.47458   0.82835   0.84945   0.00000  Uiso   1.00
Cu935  Cu    0.45311   0.83333   0.75000   0.00000  Uiso   1.00
Cu936  Cu    0.54689   0.83334   0.75000   0.00000  Uiso   1.00
O937   O     0.46039   0.77321   0.75000   0.00000  Uiso   1.00
O938   O     0.53958   0.77322   0.75000   0.00000  Uiso   1.00
O939   O     0.47973   0.83334   0.67451   0.00000  Uiso   1.00
O940   O     0.55892   0.83335   0.67451   0.00000  Uiso   1.00
C941   C     0.49998   0.75409   0.75000   0.00000  Uiso   1.00
C942   C     0.52593   0.83347   0.65013   0.00000  Uiso   1.00
C943   C     0.60271   0.83338   0.51092   0.00000  Uiso   1.00
H944   H     0.61739   0.84396   0.58331   0.00000  Uiso   1.00
H945   H     0.62096   0.81436   0.91157   0.00000  Uiso   1.00
H946   H     0.64019   0.83881   0.98863   0.00000  Uiso   1.00
C947   C     0.54066   0.83173   0.59351   0.00000  Uiso   1.00
C948   C     0.41209   0.81101   0.93230   0.00000  Uiso   1.00
C949   C     0.39827   0.80307   0.98526   0.00000  Uiso   1.00
C950   C     0.43219   0.80576   0.51304   0.00000  Uiso   1.00
C951   C     0.48212   0.81297   0.98743   0.00000  Uiso   1.00
C952   C     0.49738   0.81317   0.93243   0.00000  Uiso   1.00
C953   C     0.51765   0.81954   0.51432   0.00000  Uiso   1.00
C954   C     0.56769   0.82320   0.98593   0.00000  Uiso   1.00
C955   C     0.58248   0.81549   0.93301   0.00000  Uiso   1.00
C956   C     0.54795   0.80858   0.90710   0.00000  Uiso   1.00
C957   C     0.50499   0.82422   0.56831   0.00000  Uiso   1.00
C958   C     0.58951   0.83701   0.56457   0.00000  Uiso   1.00
C959   C     0.46144   0.81728   0.90521   0.00000  Uiso   1.00
H960   H     0.46748   0.82240   0.59164   0.00000  Uiso   1.00
H961   H     0.38417   0.81150   0.91238   0.00000  Uiso   1.00
H962   H     0.41839   0.80067   0.55422   0.00000  Uiso   1.00
H963   H     0.36081   0.79554   0.50552   0.00000  Uiso   1.00
H964   H     0.56223   0.79810   0.86766   0.00000  Uiso   1.00
C965   C     0.52920   0.97933   0.77805   0.00000  Uiso   1.00
C966   C     0.53031   0.68882   0.77493   0.00000  Uiso   1.00
H967   H     0.55340   0.70604   0.79317   0.00000  Uiso   1.00
C968   C     0.49973   0.70956   0.75114   0.00000  Uiso   1.00
C969   C     0.46813   0.68772   0.72972   0.00000  Uiso   1.00
H970   H     0.44432   0.70359   0.71124   0.00000  Uiso   1.00
C971   C     0.46798   0.97842   0.73086   0.00000  Uiso   1.00
H972   H     0.44435   0.96192   0.71263   0.00000  Uiso   1.00
C973   C     0.49876   0.95730   0.75426   0.00000  Uiso   1.00
C974   C     0.63234   0.85636   0.78518   0.00000  Uiso   1.00
H975   H     0.60608   0.87472   0.81349   0.00000  Uiso   1.00
C976   C     0.34857   0.85635   0.78518   0.00000  Uiso   1.00
H977   H     0.35955   0.87482   0.81337   0.00000  Uiso   1.00
N978   N     0.38265   0.83332   0.74998   0.00000  Uiso   1.00
C979   C     0.36766   0.81020   0.71490   0.00000  Uiso   1.00
H980   H     0.39394   0.79158   0.68682   0.00000  Uiso   1.00
C981   C     0.65141   0.81022   0.71490   0.00000  Uiso   1.00
H982   H     0.64039   0.79166   0.68681   0.00000  Uiso   1.00
N983   N     0.61735   0.83335   0.75000   0.00000  Uiso   1.00
N984   N     0.55663   0.95907   0.80795   0.00000  Uiso   1.00
O985   O     0.59970   0.97271   0.80704   0.00000  Uiso   1.00
O986   O     0.53535   0.93200   0.84280   0.00000  Uiso   1.00
O987   O     0.79375   0.89345   0.75000   0.00000  Uiso   1.00
O988   O     0.87294   0.89346   0.75001   0.00000  Uiso   1.00
C989   C     0.83287   0.91260   0.75182   0.00000  Uiso   1.00
O990   O     0.77441   0.83332   0.82549   0.00000  Uiso   1.00
O991   O     0.85360   0.83333   0.82549   0.00000  Uiso   1.00
C992   C     0.80792   0.82835   0.84945   0.00000  Uiso   1.00
Cu993  Cu    0.78645   0.83333   0.75000   0.00000  Uiso   1.00
Cu994  Cu    0.88022   0.83334   0.75000   0.00000  Uiso   1.00
O995   O     0.79373   0.77321   0.75000   0.00000  Uiso   1.00
O996   O     0.87292   0.77322   0.75000   0.00000  Uiso   1.00
O997   O     0.81306   0.83334   0.67451   0.00000  Uiso   1.00
O998   O     0.89225   0.83335   0.67451   0.00000  Uiso   1.00
C999   C     0.83332   0.75409   0.75000   0.00000  Uiso   1.00
C1000  C     0.85927   0.83347   0.65013   0.00000  Uiso   1.00
C1001  C     0.93604   0.83338   0.51092   0.00000  Uiso   1.00
H1002  H     0.95073   0.84396   0.58331   0.00000  Uiso   1.00
H1003  H     0.95429   0.81436   0.91157   0.00000  Uiso   1.00
H1004  H     0.97352   0.83881   0.98863   0.00000  Uiso   1.00
C1005  C     0.87399   0.83173   0.59351   0.00000  Uiso   1.00
C1006  C     0.74542   0.81101   0.93230   0.00000  Uiso   1.00
C1007  C     0.73160   0.80307   0.98526   0.00000  Uiso   1.00
C1008  C     0.76553   0.80576   0.51304   0.00000  Uiso   1.00
C1009  C     0.81545   0.81297   0.98743   0.00000  Uiso   1.00
C1010  C     0.83071   0.81317   0.93243   0.00000  Uiso   1.00
C1011  C     0.85098   0.81954   0.51432   0.00000  Uiso   1.00
C1012  C     0.90102   0.82320   0.98593   0.00000  Uiso   1.00
C1013  C     0.91581   0.81549   0.93301   0.00000  Uiso   1.00
C1014  C     0.88128   0.80858   0.90710   0.00000  Uiso   1.00
C1015  C     0.83832   0.82422   0.56831   0.00000  Uiso   1.00
C1016  C     0.92284   0.83701   0.56457   0.00000  Uiso   1.00
C1017  C     0.79477   0.81728   0.90521   0.00000  Uiso   1.00
H1018  H     0.80082   0.82240   0.59164   0.00000  Uiso   1.00
H1019  H     0.71751   0.81150   0.91238   0.00000  Uiso   1.00
H1020  H     0.75172   0.80067   0.55422   0.00000  Uiso   1.00
H1021  H     0.69414   0.79554   0.50552   0.00000  Uiso   1.00
H1022  H     0.89556   0.79810   0.86766   0.00000  Uiso   1.00
C1023  C     0.86254   0.97933   0.77805   0.00000  Uiso   1.00
C1024  C     0.86364   0.68882   0.77493   0.00000  Uiso   1.00
H1025  H     0.88673   0.70604   0.79317   0.00000  Uiso   1.00
C1026  C     0.83307   0.70956   0.75114   0.00000  Uiso   1.00
C1027  C     0.80147   0.68772   0.72972   0.00000  Uiso   1.00
H1028  H     0.77765   0.70359   0.71124   0.00000  Uiso   1.00
C1029  C     0.80132   0.97842   0.73086   0.00000  Uiso   1.00
H1030  H     0.77768   0.96192   0.71263   0.00000  Uiso   1.00
C1031  C     0.83210   0.95730   0.75426   0.00000  Uiso   1.00
C1032  C     0.96567   0.85636   0.78518   0.00000  Uiso   1.00
H1033  H     0.93941   0.87472   0.81349   0.00000  Uiso   1.00
C1034  C     0.68190   0.85635   0.78518   0.00000  Uiso   1.00
H1035  H     0.69288   0.87482   0.81337   0.00000  Uiso   1.00
N1036  N     0.71598   0.83332   0.74998   0.00000  Uiso   1.00
C1037  C     0.70100   0.81020   0.71490   0.00000  Uiso   1.00
H1038  H     0.72727   0.79158   0.68682   0.00000  Uiso   1.00
C1039  C     0.98474   0.81022   0.71490   0.00000  Uiso   1.00
H1040  H     0.97372   0.79166   0.68681   0.00000  Uiso   1.00
N1041  N     0.95069   0.83335   0.75000   0.00000  Uiso   1.00
N1042  N     0.88997   0.95907   0.80795   0.00000  Uiso   1.00
O1043  O     0.93303   0.97271   0.80704   0.00000  Uiso   1.00
O1044  O     0.86868   0.93200   0.84280   0.00000  Uiso   1.00
loop_
_geom_bond_atom_site_label_1
_geom_bond_atom_site_label_2
_geom_bond_distance
_geom_bond_site_symmetry_2
_ccdc_geom_bond_type
O1     Cu7     1.960   .     S
O1     C3      1.292   .     A
O2     C3      1.292   .     A
O2     Cu8     1.961   .     S
C3     C45     1.451   .     S
O4     Cu7     1.962   .     S
O4     C6      1.311   .     A
O5     Cu8     1.954   .     S
O5     C6      1.288   .     A
C6     C31     1.484   .     S
Cu7    O11     1.954   .     S
Cu7    Cu8     2.680   .     S
Cu7    O9      1.961   .     S
Cu7    N50     2.014   .     S
Cu8    O12     1.962   .     S
Cu8    N55     2.014   .     S
Cu8    O10     1.960   .     S
O9     C13     1.291   .     A
O10    C13     1.290   .     A
O11    C14     1.293   .     A
O12    C14     1.296   .     A
C13    C40     1.444   .     S
C14    C19     1.461   .     S
C15    C30     1.389   .     A
C15    H540    1.080   1_554 S
C15    C548    1.398   1_554 S
H16    C30     1.083   .     S
H17    C27     1.085   .     S
H18    C537    1.080   .     S
C19    C30     1.399   .     A
C19    C29     1.400   .     A
C20    C21     1.390   .     A
C20    H33     1.083   .     S
C20    C31     1.403   .     A
C21    C544    1.389   .     S
C21    H557    1.080   .     S
C22    H34     1.078   .     S
C22    C543    1.389   1_554 S
C22    C545    1.413   1_554 S
C23    C24     1.418   .     A
C23    C544    1.413   .     S
C23    C547    1.424   .     S
C24    C31     1.431   .     A
C24    C28     1.416   .     A
C25    C29     1.401   .     A
C25    C545    1.424   1_554 S
C25    C548    1.418   1_554 S
C26    C27     1.387   .     A
C26    C537    1.398   .     S
C26    C547    1.418   .     S
C27    C28     1.382   .     A
C28    H36     1.076   .     S
C29    H32     1.076   .     S
H35    C543    1.080   1_554 S
C37    N56     1.437   .     S
C37    C45     1.414   .     A
C37    C212    1.391   .     S
C38    C40     1.398   .     A
C38    H39     1.084   .     S
C38    C385    1.391   1_545 S
C40    C41     1.396   .     A
C41    H42     1.084   .     S
C41    C391    1.383   1_545 S
C43    C45     1.402   .     A
C43    H44     1.084   .     S
C43    C215    1.383   .     S
C46    N55     1.368   .     A
C46    H47     1.080   .     S
C46    C106    1.417   .     S
C48    N50     1.367   .     A
C48    H49     1.082   .     S
C48    C162    1.417   1_455 S
N50    C51     1.368   .     A
C51    H52     1.082   .     S
C51    C169    1.417   1_455 S
C53    H54     1.082   .     S
C53    N55     1.367   .     A
C53    C109    1.417   .     S
N56    O57     1.301   .     A
N56    O58     1.301   .     A
O59    Cu65    1.960   .     S
O59    C61     1.292   .     A
O60    C61     1.292   .     A
O60    Cu66    1.961   .     S
C61    C103    1.451   .     S
O62    Cu65    1.962   .     S
O62    C64     1.311   .     A
O63    Cu66    1.954   .     S
O63    C64     1.288   .     A
C64    C89     1.484   .     S
Cu65   O69     1.954   .     S
Cu65   Cu66    2.680   .     S
Cu65   O67     1.961   .     S
Cu65   N108    2.014   .     S
Cu66   O70     1.962   .     S
Cu66   N113    2.014   .     S
Cu66   O68     1.960   .     S
O67    C71     1.291   .     A
O68    C71     1.290   .     A
O69    C72     1.293   .     A
O70    C72     1.296   .     A
C71    C98     1.444   .     S
C72    C77     1.461   .     S
C73    C88     1.389   .     A
C73    H598    1.080   1_554 S
C73    C606    1.398   1_554 S
H74    C88     1.083   .     S
H75    C85     1.085   .     S
H76    C595    1.080   .     S
C77    C88     1.399   .     A
C77    C87     1.400   .     A
C78    C79     1.390   .     A
C78    H91     1.083   .     S
C78    C89     1.403   .     A
C79    C602    1.389   .     S
C79    H615    1.080   .     S
C80    H92     1.078   .     S
C80    C601    1.389   1_554 S
C80    C603    1.413   1_554 S
C81    C82     1.418   .     A
C81    C602    1.413   .     S
C81    C605    1.424   .     S
C82    C89     1.431   .     A
C82    C86     1.416   .     A
C83    C87     1.401   .     A
C83    C603    1.424   1_554 S
C83    C606    1.418   1_554 S
C84    C85     1.387   .     A
C84    C595    1.398   .     S
C84    C605    1.418   .     S
C85    C86     1.382   .     A
C86    H94     1.076   .     S
C87    H90     1.076   .     S
H93    C601    1.080   1_554 S
C95    N114    1.437   .     S
C95    C103    1.414   .     A
C95    C270    1.391   .     S
C96    C98     1.398   .     A
C96    H97     1.084   .     S
C96    C443    1.391   1_545 S
C98    C99     1.396   .     A
C99    H100    1.084   .     S
C99    C449    1.383   1_545 S
C101   C103    1.402   .     A
C101   H102    1.084   .     S
C101   C273    1.383   .     S
C104   N113    1.368   .     A
C104   H105    1.080   .     S
C104   C164    1.417   .     S
C106   N108    1.367   .     A
C106   H107    1.082   .     S
N108   C109    1.368   .     A
C109   H110    1.082   .     S
C111   H112    1.082   .     S
C111   N113    1.367   .     A
C111   C167    1.417   .     S
N114   O115    1.301   .     A
N114   O116    1.301   .     A
O117   Cu123   1.960   .     S
O117   C119    1.292   .     A
O118   C119    1.292   .     A
O118   Cu124   1.961   .     S
C119   C161    1.451   .     S
O120   Cu123   1.962   .     S
O120   C122    1.311   .     A
O121   Cu124   1.954   .     S
O121   C122    1.288   .     A
C122   C147    1.484   .     S
Cu123  O127    1.954   .     S
Cu123  Cu124   2.680   .     S
Cu123  O125    1.961   .     S
Cu123  N166    2.014   .     S
Cu124  O128    1.962   .     S
Cu124  N171    2.014   .     S
Cu124  O126    1.960   .     S
O125   C129    1.291   .     A
O126   C129    1.290   .     A
O127   C130    1.293   .     A
O128   C130    1.296   .     A
C129   C156    1.444   .     S
C130   C135    1.461   .     S
C131   C146    1.389   .     A
C131   H656    1.080   1_554 S
C131   C664    1.398   1_554 S
H132   C146    1.083   .     S
H133   C143    1.085   .     S
H134   C653    1.080   .     S
C135   C146    1.399   .     A
C135   C145    1.400   .     A
C136   C137    1.390   .     A
C136   H149    1.083   .     S
C136   C147    1.403   .     A
C137   C660    1.389   .     S
C137   H673    1.080   .     S
C138   H150    1.078   .     S
C138   C659    1.389   1_554 S
C138   C661    1.413   1_554 S
C139   C140    1.418   .     A
C139   C660    1.413   .     S
C139   C663    1.424   .     S
C140   C147    1.431   .     A
C140   C144    1.416   .     A
C141   C145    1.401   .     A
C141   C661    1.424   1_554 S
C141   C664    1.418   1_554 S
C142   C143    1.387   .     A
C142   C653    1.398   .     S
C142   C663    1.418   .     S
C143   C144    1.382   .     A
C144   H152    1.076   .     S
C145   H148    1.076   .     S
H151   C659    1.080   1_554 S
C153   N172    1.437   .     S
C153   C161    1.414   .     A
C153   C328    1.391   .     S
C154   C156    1.398   .     A
C154   H155    1.084   .     S
C154   C501    1.391   1_545 S
C156   C157    1.396   .     A
C157   H158    1.084   .     S
C157   C507    1.383   1_545 S
C159   C161    1.402   .     A
C159   H160    1.084   .     S
C159   C331    1.383   .     S
C162   N171    1.368   .     A
C162   H163    1.080   .     S
C162   C48     1.417   1_655 S
C164   N166    1.367   .     A
C164   H165    1.082   .     S
N166   C167    1.368   .     A
C167   H168    1.082   .     S
C169   H170    1.082   .     S
C169   N171    1.367   .     A
C169   C51     1.417   1_655 S
N172   O173    1.301   .     A
N172   O174    1.301   .     A
O175   Cu181   1.960   .     S
O175   C177    1.292   .     A
O176   C177    1.292   .     A
O176   Cu182   1.961   .     S
C177   C219    1.451   .     S
O178   Cu181   1.962   .     S
O178   C180    1.311   .     A
O179   Cu182   1.954   .     S
O179   C180    1.288   .     A
C180   C205    1.484   .     S
Cu181  O185    1.954   .     S
Cu181  Cu182   2.680   .     S
Cu181  O183    1.961   .     S
Cu181  N224    2.014   .     S
Cu182  O186    1.962   .     S
Cu182  N229    2.014   .     S
Cu182  O184    1.960   .     S
O183   C187    1.291   .     A
O184   C187    1.290   .     A
O185   C188    1.293   .     A
O186   C188    1.296   .     A
C187   C214    1.444   .     S
C188   C193    1.461   .     S
C189   C204    1.389   .     A
C189   H714    1.080   1_554 S
C189   C722    1.398   1_554 S
H190   C204    1.083   .     S
H191   C201    1.085   .     S
H192   C711    1.080   .     S
C193   C204    1.399   .     A
C193   C203    1.400   .     A
C194   C195    1.390   .     A
C194   H207    1.083   .     S
C194   C205    1.403   .     A
C195   C718    1.389   .     S
C195   H731    1.080   .     S
C196   H208    1.078   .     S
C196   C717    1.389   1_554 S
C196   C719    1.413   1_554 S
C197   C198    1.418   .     A
C197   C718    1.413   .     S
C197   C721    1.424   .     S
C198   C205    1.431   .     A
C198   C202    1.416   .     A
C199   C203    1.401   .     A
C199   C719    1.424   1_554 S
C199   C722    1.418   1_554 S
C200   C201    1.387   .     A
C200   C711    1.398   .     S
C200   C721    1.418   .     S
C201   C202    1.382   .     A
C202   H210    1.076   .     S
C203   H206    1.076   .     S
H209   C717    1.080   1_554 S
C211   N230    1.437   .     S
C211   C219    1.414   .     A
C211   C386    1.391   .     S
C212   C214    1.398   .     A
C212   H213    1.084   .     S
C214   C215    1.396   .     A
C215   H216    1.084   .     S
C217   C219    1.402   .     A
C217   H218    1.084   .     S
C217   C389    1.383   .     S
C220   N229    1.368   .     A
C220   H221    1.080   .     S
C220   C280    1.417   .     S
C222   N224    1.367   .     A
C222   H223    1.082   .     S
C222   C336    1.417   1_455 S
N224   C225    1.368   .     A
C225   H226    1.082   .     S
C225   C343    1.417   1_455 S
C227   H228    1.082   .     S
C227   N229    1.367   .     A
C227   C283    1.417   .     S
N230   O231    1.301   .     A
N230   O232    1.301   .     A
O233   Cu239   1.960   .     S
O233   C235    1.292   .     A
O234   C235    1.292   .     A
O234   Cu240   1.961   .     S
C235   C277    1.451   .     S
O236   Cu239   1.962   .     S
O236   C238    1.311   .     A
O237   Cu240   1.954   .     S
O237   C238    1.288   .     A
C238   C263    1.484   .     S
Cu239  O243    1.954   .     S
Cu239  Cu240   2.680   .     S
Cu239  O241    1.961   .     S
Cu239  N282    2.014   .     S
Cu240  O244    1.962   .     S
Cu240  N287    2.014   .     S
Cu240  O242    1.960   .     S
O241   C245    1.291   .     A
O242   C245    1.290   .     A
O243   C246    1.293   .     A
O244   C246    1.296   .     A
C245   C272    1.444   .     S
C246   C251    1.461   .     S
C247   C262    1.389   .     A
C247   H772    1.080   1_554 S
C247   C780    1.398   1_554 S
H248   C262    1.083   .     S
H249   C259    1.085   .     S
H250   C769    1.080   .     S
C251   C262    1.399   .     A
C251   C261    1.400   .     A
C252   C253    1.390   .     A
C252   H265    1.083   .     S
C252   C263    1.403   .     A
C253   C776    1.389   .     S
C253   H789    1.080   .     S
C254   H266    1.078   .     S
C254   C775    1.389   1_554 S
C254   C777    1.413   1_554 S
C255   C256    1.418   .     A
C255   C776    1.413   .     S
C255   C779    1.424   .     S
C256   C263    1.431   .     A
C256   C260    1.416   .     A
C257   C261    1.401   .     A
C257   C777    1.424   1_554 S
C257   C780    1.418   1_554 S
C258   C259    1.387   .     A
C258   C769    1.398   .     S
C258   C779    1.418   .     S
C259   C260    1.382   .     A
C260   H268    1.076   .     S
C261   H264    1.076   .     S
H267   C775    1.080   1_554 S
C269   N288    1.437   .     S
C269   C277    1.414   .     A
C269   C444    1.391   .     S
C270   C272    1.398   .     A
C270   H271    1.084   .     S
C272   C273    1.396   .     A
C273   H274    1.084   .     S
C275   C277    1.402   .     A
C275   H276    1.084   .     S
C275   C447    1.383   .     S
C278   N287    1.368   .     A
C278   H279    1.080   .     S
C278   C338    1.417   .     S
C280   N282    1.367   .     A
C280   H281    1.082   .     S
N282   C283    1.368   .     A
C283   H284    1.082   .     S
C285   H286    1.082   .     S
C285   N287    1.367   .     A
C285   C341    1.417   .     S
N288   O289    1.301   .     A
N288   O290    1.301   .     A
O291   Cu297   1.960   .     S
O291   C293    1.292   .     A
O292   C293    1.292   .     A
O292   Cu298   1.961   .     S
C293   C335    1.451   .     S
O294   Cu297   1.962   .     S
O294   C296    1.311   .     A
O295   Cu298   1.954   .     S
O295   C296    1.288   .     A
C296   C321    1.484   .     S
Cu297  O301    1.954   .     S
Cu297  Cu298   2.680   .     S
Cu297  O299    1.961   .     S
Cu297  N340    2.014   .     S
Cu298  O302    1.962   .     S
Cu298  N345    2.014   .     S
Cu298  O300    1.960   .     S
O299   C303    1.291   .     A
O300   C303    1.290   .     A
O301   C304    1.293   .     A
O302   C304    1.296   .     A
C303   C330    1.444   .     S
C304   C309    1.461   .     S
C305   C320    1.389   .     A
C305   H830    1.080   1_554 S
C305   C838    1.398   1_554 S
H306   C320    1.083   .     S
H307   C317    1.085   .     S
H308   C827    1.080   .     S
C309   C320    1.399   .     A
C309   C319    1.400   .     A
C310   C311    1.390   .     A
C310   H323    1.083   .     S
C310   C321    1.403   .     A
C311   C834    1.389   .     S
C311   H847    1.080   .     S
C312   H324    1.078   .     S
C312   C833    1.389   1_554 S
C312   C835    1.413   1_554 S
C313   C314    1.418   .     A
C313   C834    1.413   .     S
C313   C837    1.424   .     S
C314   C321    1.431   .     A
C314   C318    1.416   .     A
C315   C319    1.401   .     A
C315   C835    1.424   1_554 S
C315   C838    1.418   1_554 S
C316   C317    1.387   .     A
C316   C827    1.398   .     S
C316   C837    1.418   .     S
C317   C318    1.382   .     A
C318   H326    1.076   .     S
C319   H322    1.076   .     S
H325   C833    1.080   1_554 S
C327   N346    1.437   .     S
C327   C335    1.414   .     A
C327   C502    1.391   .     S
C328   C330    1.398   .     A
C328   H329    1.084   .     S
C330   C331    1.396   .     A
C331   H332    1.084   .     S
C333   C335    1.402   .     A
C333   H334    1.084   .     S
C333   C505    1.383   .     S
C336   N345    1.368   .     A
C336   H337    1.080   .     S
C336   C222    1.417   1_655 S
C338   N340    1.367   .     A
C338   H339    1.082   .     S
N340   C341    1.368   .     A
C341   H342    1.082   .     S
C343   H344    1.082   .     S
C343   N345    1.367   .     A
C343   C225    1.417   1_655 S
N346   O347    1.301   .     A
N346   O348    1.301   .     A
O349   Cu355   1.960   .     S
O349   C351    1.292   .     A
O350   C351    1.292   .     A
O350   Cu356   1.961   .     S
C351   C393    1.451   .     S
O352   Cu355   1.962   .     S
O352   C354    1.311   .     A
O353   Cu356   1.954   .     S
O353   C354    1.288   .     A
C354   C379    1.484   .     S
Cu355  O359    1.954   .     S
Cu355  Cu356   2.680   .     S
Cu355  O357    1.961   .     S
Cu355  N398    2.014   .     S
Cu356  O360    1.962   .     S
Cu356  N403    2.014   .     S
Cu356  O358    1.960   .     S
O357   C361    1.291   .     A
O358   C361    1.290   .     A
O359   C362    1.293   .     A
O360   C362    1.296   .     A
C361   C388    1.444   .     S
C362   C367    1.461   .     S
C363   C378    1.389   .     A
C363   H888    1.080   1_554 S
C363   C896    1.398   1_554 S
H364   C378    1.083   .     S
H365   C375    1.085   .     S
H366   C885    1.080   .     S
C367   C378    1.399   .     A
C367   C377    1.400   .     A
C368   C369    1.390   .     A
C368   H381    1.083   .     S
C368   C379    1.403   .     A
C369   C892    1.389   .     S
C369   H905    1.080   .     S
C370   H382    1.078   .     S
C370   C891    1.389   1_554 S
C370   C893    1.413   1_554 S
C371   C372    1.418   .     A
C371   C892    1.413   .     S
C371   C895    1.424   .     S
C372   C379    1.431   .     A
C372   C376    1.416   .     A
C373   C377    1.401   .     A
C373   C893    1.424   1_554 S
C373   C896    1.418   1_554 S
C374   C375    1.387   .     A
C374   C885    1.398   .     S
C374   C895    1.418   .     S
C375   C376    1.382   .     A
C376   H384    1.076   .     S
C377   H380    1.076   .     S
H383   C891    1.080   1_554 S
C385   N404    1.437   .     S
C385   C393    1.414   .     A
C385   C38     1.391   1_565 S
C386   C388    1.398   .     A
C386   H387    1.084   .     S
C388   C389    1.396   .     A
C389   H390    1.084   .     S
C391   C393    1.402   .     A
C391   H392    1.084   .     S
C391   C41     1.383   1_565 S
C394   N403    1.368   .     A
C394   H395    1.080   .     S
C394   C454    1.417   .     S
C396   N398    1.367   .     A
C396   H397    1.082   .     S
C396   C510    1.417   1_455 S
N398   C399    1.368   .     A
C399   H400    1.082   .     S
C399   C517    1.417   1_455 S
C401   H402    1.082   .     S
C401   N403    1.367   .     A
C401   C457    1.417   .     S
N404   O405    1.301   .     A
N404   O406    1.301   .     A
O407   Cu413   1.960   .     S
O407   C409    1.292   .     A
O408   C409    1.292   .     A
O408   Cu414   1.961   .     S
C409   C451    1.451   .     S
O410   Cu413   1.962   .     S
O410   C412    1.311   .     A
O411   Cu414   1.954   .     S
O411   C412    1.288   .     A
C412   C437    1.484   .     S
Cu413  O417    1.954   .     S
Cu413  Cu414   2.680   .     S
Cu413  O415    1.961   .     S
Cu413  N456    2.014   .     S
Cu414  O418    1.962   .     S
Cu414  N461    2.014   .     S
Cu414  O416    1.960   .     S
O415   C419    1.291   .     A
O416   C419    1.290   .     A
O417   C420    1.293   .     A
O418   C420    1.296   .     A
C419   C446    1.444   .     S
C420   C425    1.461   .     S
C421   C436    1.389   .     A
C421   H946    1.080   1_554 S
C421   C954    1.398   1_554 S
H422   C436    1.083   .     S
H423   C433    1.085   .     S
H424   C943    1.080   .     S
C425   C436    1.399   .     A
C425   C435    1.400   .     A
C426   C427    1.390   .     A
C426   H439    1.083   .     S
C426   C437    1.403   .     A
C427   C950    1.389   .     S
C427   H963    1.080   .     S
C428   H440    1.078   .     S
C428   C949    1.389   1_554 S
C428   C951    1.413   1_554 S
C429   C430    1.418   .     A
C429   C950    1.413   .     S
C429   C953    1.424   .     S
C430   C437    1.431   .     A
C430   C434    1.416   .     A
C431   C435    1.401   .     A
C431   C951    1.424   1_554 S
C431   C954    1.418   1_554 S
C432   C433    1.387   .     A
C432   C943    1.398   .     S
C432   C953    1.418   .     S
C433   C434    1.382   .     A
C434   H442    1.076   .     S
C435   H438    1.076   .     S
H441   C949    1.080   1_554 S
C443   N462    1.437   .     S
C443   C451    1.414   .     A
C443   C96     1.391   1_565 S
C444   C446    1.398   .     A
C444   H445    1.084   .     S
C446   C447    1.396   .     A
C447   H448    1.084   .     S
C449   C451    1.402   .     A
C449   H450    1.084   .     S
C449   C99     1.383   1_565 S
C452   N461    1.368   .     A
C452   H453    1.080   .     S
C452   C512    1.417   .     S
C454   N456    1.367   .     A
C454   H455    1.082   .     S
N456   C457    1.368   .     A
C457   H458    1.082   .     S
C459   H460    1.082   .     S
C459   N461    1.367   .     A
C459   C515    1.417   .     S
N462   O463    1.301   .     A
N462   O464    1.301   .     A
O465   Cu471   1.960   .     S
O465   C467    1.292   .     A
O466   C467    1.292   .     A
O466   Cu472   1.961   .     S
C467   C509    1.451   .     S
O468   Cu471   1.962   .     S
O468   C470    1.311   .     A
O469   Cu472   1.954   .     S
O469   C470    1.288   .     A
C470   C495    1.484   .     S
Cu471  O475    1.954   .     S
Cu471  Cu472   2.680   .     S
Cu471  O473    1.961   .     S
Cu471  N514    2.014   .     S
Cu472  O476    1.962   .     S
Cu472  N519    2.014   .     S
Cu472  O474    1.960   .     S
O473   C477    1.291   .     A
O474   C477    1.290   .     A
O475   C478    1.293   .     A
O476   C478    1.296   .     A
C477   C504    1.444   .     S
C478   C483    1.461   .     S
C479   C494    1.389   .     A
C479   H1004   1.080   1_554 S
C479   C1012   1.398   1_554 S
H480   C494    1.083   .     S
H481   C491    1.085   .     S
H482   C1001   1.080   .     S
C483   C494    1.399   .     A
C483   C493    1.400   .     A
C484   C485    1.390   .     A
C484   H497    1.083   .     S
C484   C495    1.403   .     A
C485   C1008   1.389   .     S
C485   H1021   1.080   .     S
C486   H498    1.078   .     S
C486   C1007   1.389   1_554 S
C486   C1009   1.413   1_554 S
C487   C488    1.418   .     A
C487   C1008   1.413   .     S
C487   C1011   1.424   .     S
C488   C495    1.431   .     A
C488   C492    1.416   .     A
C489   C493    1.401   .     A
C489   C1009   1.424   1_554 S
C489   C1012   1.418   1_554 S
C490   C491    1.387   .     A
C490   C1001   1.398   .     S
C490   C1011   1.418   .     S
C491   C492    1.382   .     A
C492   H500    1.076   .     S
C493   H496    1.076   .     S
H499   C1007   1.080   1_554 S
C501   N520    1.437   .     S
C501   C509    1.414   .     A
C501   C154    1.391   1_565 S
C502   C504    1.398   .     A
C502   H503    1.084   .     S
C504   C505    1.396   .     A
C505   H506    1.084   .     S
C507   C509    1.402   .     A
C507   H508    1.084   .     S
C507   C157    1.383   1_565 S
C510   N519    1.368   .     A
C510   H511    1.080   .     S
C510   C396    1.417   1_655 S
C512   N514    1.367   .     A
C512   H513    1.082   .     S
N514   C515    1.368   .     A
C515   H516    1.082   .     S
C517   H518    1.082   .     S
C517   N519    1.367   .     A
C517   C399    1.417   1_655 S
N520   O521    1.301   .     A
N520   O522    1.301   .     A
O523   Cu529   1.960   .     S
O523   C525    1.292   .     A
O524   C525    1.292   .     A
O524   Cu530   1.961   .     S
C525   C567    1.451   .     S
O526   Cu529   1.962   .     S
O526   C528    1.311   .     A
O527   Cu530   1.954   .     S
O527   C528    1.288   .     A
C528   C553    1.484   .     S
Cu529  O533    1.954   .     S
Cu529  Cu530   2.680   .     S
Cu529  O531    1.961   .     S
Cu529  N572    2.014   .     S
Cu530  O534    1.962   .     S
Cu530  N577    2.014   .     S
Cu530  O532    1.960   .     S
O531   C535    1.291   .     A
O532   C535    1.290   .     A
O533   C536    1.293   .     A
O534   C536    1.296   .     A
C535   C562    1.444   .     S
C536   C541    1.461   .     S
C537   C552    1.389   .     A
H538   C552    1.083   .     S
H539   C549    1.085   .     S
H540   C15     1.080   1_556 S
C541   C552    1.399   .     A
C541   C551    1.400   .     A
C542   C543    1.390   .     A
C542   H555    1.083   .     S
C542   C553    1.403   .     A
C543   C22     1.389   1_556 S
C543   H35     1.080   1_556 S
C544   H556    1.078   .     S
C545   C546    1.418   .     A
C545   C22     1.413   1_556 S
C545   C25     1.424   1_556 S
C546   C553    1.431   .     A
C546   C550    1.416   .     A
C547   C551    1.401   .     A
C548   C549    1.387   .     A
C548   C15     1.398   1_556 S
C548   C25     1.418   1_556 S
C549   C550    1.382   .     A
C550   H558    1.076   .     S
C551   H554    1.076   .     S
C559   N578    1.437   .     S
C559   C567    1.414   .     A
C559   C734    1.391   .     S
C560   C562    1.398   .     A
C560   H561    1.084   .     S
C560   C907    1.391   1_545 S
C562   C563    1.396   .     A
C563   H564    1.084   .     S
C563   C913    1.383   1_545 S
C565   C567    1.402   .     A
C565   H566    1.084   .     S
C565   C737    1.383   .     S
C568   N577    1.368   .     A
C568   H569    1.080   .     S
C568   C628    1.417   .     S
C570   N572    1.367   .     A
C570   H571    1.082   .     S
C570   C684    1.417   1_455 S
N572   C573    1.368   .     A
C573   H574    1.082   .     S
C573   C691    1.417   1_455 S
C575   H576    1.082   .     S
C575   N577    1.367   .     A
C575   C631    1.417   .     S
N578   O579    1.301   .     A
N578   O580    1.301   .     A
O581   Cu587   1.960   .     S
O581   C583    1.292   .     A
O582   C583    1.292   .     A
O582   Cu588   1.961   .     S
C583   C625    1.451   .     S
O584   Cu587   1.962   .     S
O584   C586    1.311   .     A
O585   Cu588   1.954   .     S
O585   C586    1.288   .     A
C586   C611    1.484   .     S
Cu587  O591    1.954   .     S
Cu587  Cu588   2.680   .     S
Cu587  O589    1.961   .     S
Cu587  N630    2.014   .     S
Cu588  O592    1.962   .     S
Cu588  N635    2.014   .     S
Cu588  O590    1.960   .     S
O589   C593    1.291   .     A
O590   C593    1.290   .     A
O591   C594    1.293   .     A
O592   C594    1.296   .     A
C593   C620    1.444   .     S
C594   C599    1.461   .     S
C595   C610    1.389   .     A
H596   C610    1.083   .     S
H597   C607    1.085   .     S
H598   C73     1.080   1_556 S
C599   C610    1.399   .     A
C599   C609    1.400   .     A
C600   C601    1.390   .     A
C600   H613    1.083   .     S
C600   C611    1.403   .     A
C601   C80     1.389   1_556 S
C601   H93     1.080   1_556 S
C602   H614    1.078   .     S
C603   C604    1.418   .     A
C603   C80     1.413   1_556 S
C603   C83     1.424   1_556 S
C604   C611    1.431   .     A
C604   C608    1.416   .     A
C605   C609    1.401   .     A
C606   C607    1.387   .     A
C606   C73     1.398   1_556 S
C606   C83     1.418   1_556 S
C607   C608    1.382   .     A
C608   H616    1.076   .     S
C609   H612    1.076   .     S
C617   N636    1.437   .     S
C617   C625    1.414   .     A
C617   C792    1.391   .     S
C618   C620    1.398   .     A
C618   H619    1.084   .     S
C618   C965    1.391   1_545 S
C620   C621    1.396   .     A
C621   H622    1.084   .     S
C621   C971    1.383   1_545 S
C623   C625    1.402   .     A
C623   H624    1.084   .     S
C623   C795    1.383   .     S
C626   N635    1.368   .     A
C626   H627    1.080   .     S
C626   C686    1.417   .     S
C628   N630    1.367   .     A
C628   H629    1.082   .     S
N630   C631    1.368   .     A
C631   H632    1.082   .     S
C633   H634    1.082   .     S
C633   N635    1.367   .     A
C633   C689    1.417   .     S
N636   O637    1.301   .     A
N636   O638    1.301   .     A
O639   Cu645   1.960   .     S
O639   C641    1.292   .     A
O640   C641    1.292   .     A
O640   Cu646   1.961   .     S
C641   C683    1.451   .     S
O642   Cu645   1.962   .     S
O642   C644    1.311   .     A
O643   Cu646   1.954   .     S
O643   C644    1.288   .     A
C644   C669    1.484   .     S
Cu645  O649    1.954   .     S
Cu645  Cu646   2.680   .     S
Cu645  O647    1.961   .     S
Cu645  N688    2.014   .     S
Cu646  O650    1.962   .     S
Cu646  N693    2.014   .     S
Cu646  O648    1.960   .     S
O647   C651    1.291   .     A
O648   C651    1.290   .     A
O649   C652    1.293   .     A
O650   C652    1.296   .     A
C651   C678    1.444   .     S
C652   C657    1.461   .     S
C653   C668    1.389   .     A
H654   C668    1.083   .     S
H655   C665    1.085   .     S
H656   C131    1.080   1_556 S
C657   C668    1.399   .     A
C657   C667    1.400   .     A
C658   C659    1.390   .     A
C658   H671    1.083   .     S
C658   C669    1.403   .     A
C659   C138    1.389   1_556 S
C659   H151    1.080   1_556 S
C660   H672    1.078   .     S
C661   C662    1.418   .     A
C661   C138    1.413   1_556 S
C661   C141    1.424   1_556 S
C662   C669    1.431   .     A
C662   C666    1.416   .     A
C663   C667    1.401   .     A
C664   C665    1.387   .     A
C664   C131    1.398   1_556 S
C664   C141    1.418   1_556 S
C665   C666    1.382   .     A
C666   H674    1.076   .     S
C667   H670    1.076   .     S
C675   N694    1.437   .     S
C675   C683    1.414   .     A
C675   C850    1.391   .     S
C676   C678    1.398   .     A
C676   H677    1.084   .     S
C676   C1023   1.391   1_545 S
C678   C679    1.396   .     A
C679   H680    1.084   .     S
C679   C1029   1.383   1_545 S
C681   C683    1.402   .     A
C681   H682    1.084   .     S
C681   C853    1.383   .     S
C684   N693    1.368   .     A
C684   H685    1.080   .     S
C684   C570    1.417   1_655 S
C686   N688    1.367   .     A
C686   H687    1.082   .     S
N688   C689    1.368   .     A
C689   H690    1.082   .     S
C691   H692    1.082   .     S
C691   N693    1.367   .     A
C691   C573    1.417   1_655 S
N694   O695    1.301   .     A
N694   O696    1.301   .     A
O697   Cu703   1.960   .     S
O697   C699    1.292   .     A
O698   C699    1.292   .     A
O698   Cu704   1.961   .     S
C699   C741    1.451   .     S
O700   Cu703   1.962   .     S
O700   C702    1.311   .     A
O701   Cu704   1.954   .     S
O701   C702    1.288   .     A
C702   C727    1.484   .     S
Cu703  O707    1.954   .     S
Cu703  Cu704   2.680   .     S
Cu703  O705    1.961   .     S
Cu703  N746    2.014   .     S
Cu704  O708    1.962   .     S
Cu704  N751    2.014   .     S
Cu704  O706    1.960   .     S
O705   C709    1.291   .     A
O706   C709    1.290   .     A
O707   C710    1.293   .     A
O708   C710    1.296   .     A
C709   C736    1.444   .     S
C710   C715    1.461   .     S
C711   C726    1.389   .     A
H712   C726    1.083   .     S
H713   C723    1.085   .     S
H714   C189    1.080   1_556 S
C715   C726    1.399   .     A
C715   C725    1.400   .     A
C716   C717    1.390   .     A
C716   H729    1.083   .     S
C716   C727    1.403   .     A
C717   C196    1.389   1_556 S
C717   H209    1.080   1_556 S
C718   H730    1.078   .     S
C719   C720    1.418   .     A
C719   C196    1.413   1_556 S
C719   C199    1.424   1_556 S
C720   C727    1.431   .     A
C720   C724    1.416   .     A
C721   C725    1.401   .     A
C722   C723    1.387   .     A
C722   C189    1.398   1_556 S
C722   C199    1.418   1_556 S
C723   C724    1.382   .     A
C724   H732    1.076   .     S
C725   H728    1.076   .     S
C733   N752    1.437   .     S
C733   C741    1.414   .     A
C733   C908    1.391   .     S
C734   C736    1.398   .     A
C734   H735    1.084   .     S
C736   C737    1.396   .     A
C737   H738    1.084   .     S
C739   C741    1.402   .     A
C739   H740    1.084   .     S
C739   C911    1.383   .     S
C742   N751    1.368   .     A
C742   H743    1.080   .     S
C742   C802    1.417   .     S
C744   N746    1.367   .     A
C744   H745    1.082   .     S
C744   C858    1.417   1_455 S
N746   C747    1.368   .     A
C747   H748    1.082   .     S
C747   C865    1.417   1_455 S
C749   H750    1.082   .     S
C749   N751    1.367   .     A
C749   C805    1.417   .     S
N752   O753    1.301   .     A
N752   O754    1.301   .     A
O755   Cu761   1.960   .     S
O755   C757    1.292   .     A
O756   C757    1.292   .     A
O756   Cu762   1.961   .     S
C757   C799    1.451   .     S
O758   Cu761   1.962   .     S
O758   C760    1.311   .     A
O759   Cu762   1.954   .     S
O759   C760    1.288   .     A
C760   C785    1.484   .     S
Cu761  O765    1.954   .     S
Cu761  Cu762   2.680   .     S
Cu761  O763    1.961   .     S
Cu761  N804    2.014   .     S
Cu762  O766    1.962   .     S
Cu762  N809    2.014   .     S
Cu762  O764    1.960   .     S
O763   C767    1.291   .     A
O764   C767    1.290   .     A
O765   C768    1.293   .     A
O766   C768    1.296   .     A
C767   C794    1.444   .     S
C768   C773    1.461   .     S
C769   C784    1.389   .     A
H770   C784    1.083   .     S
H771   C781    1.085   .     S
H772   C247    1.080   1_556 S
C773   C784    1.399   .     A
C773   C783    1.400   .     A
C774   C775    1.390   .     A
C774   H787    1.083   .     S
C774   C785    1.403   .     A
C775   C254    1.389   1_556 S
C775   H267    1.080   1_556 S
C776   H788    1.078   .     S
C777   C778    1.418   .     A
C777   C254    1.413   1_556 S
C777   C257    1.424   1_556 S
C778   C785    1.431   .     A
C778   C782    1.416   .     A
C779   C783    1.401   .     A
C780   C781    1.387   .     A
C780   C247    1.398   1_556 S
C780   C257    1.418   1_556 S
C781   C782    1.382   .     A
C782   H790    1.076   .     S
C783   H786    1.076   .     S
C791   N810    1.437   .     S
C791   C799    1.414   .     A
C791   C966    1.391   .     S
C792   C794    1.398   .     A
C792   H793    1.084   .     S
C794   C795    1.396   .     A
C795   H796    1.084   .     S
C797   C799    1.402   .     A
C797   H798    1.084   .     S
C797   C969    1.383   .     S
C800   N809    1.368   .     A
C800   H801    1.080   .     S
C800   C860    1.417   .     S
C802   N804    1.367   .     A
C802   H803    1.082   .     S
N804   C805    1.368   .     A
C805   H806    1.082   .     S
C807   H808    1.082   .     S
C807   N809    1.367   .     A
C807   C863    1.417   .     S
N810   O811    1.301   .     A
N810   O812    1.301   .     A
O813   Cu819   1.960   .     S
O813   C815    1.292   .     A
O814   C815    1.292   .     A
O814   Cu820   1.961   .     S
C815   C857    1.451   .     S
O816   Cu819   1.962   .     S
O816   C818    1.311   .     A
O817   Cu820   1.954   .     S
O817   C818    1.288   .     A
C818   C843    1.484   .     S
Cu819  O823    1.954   .     S
Cu819  Cu820   2.680   .     S
Cu819  O821    1.961   .     S
Cu819  N862    2.014   .     S
Cu820  O824    1.962   .     S
Cu820  N867    2.014   .     S
Cu820  O822    1.960   .     S
O821   C825    1.291   .     A
O822   C825    1.290   .     A
O823   C826    1.293   .     A
O824   C826    1.296   .     A
C825   C852    1.444   .     S
C826   C831    1.461   .     S
C827   C842    1.389   .     A
H828   C842    1.083   .     S
H829   C839    1.085   .     S
H830   C305    1.080   1_556 S
C831   C842    1.399   .     A
C831   C841    1.400   .     A
C832   C833    1.390   .     A
C832   H845    1.083   .     S
C832   C843    1.403   .     A
C833   C312    1.389   1_556 S
C833   H325    1.080   1_556 S
C834   H846    1.078   .     S
C835   C836    1.418   .     A
C835   C312    1.413   1_556 S
C835   C315    1.424   1_556 S
C836   C843    1.431   .     A
C836   C840    1.416   .     A
C837   C841    1.401   .     A
C838   C839    1.387   .     A
C838   C305    1.398   1_556 S
C838   C315    1.418   1_556 S
C839   C840    1.382   .     A
C840   H848    1.076   .     S
C841   H844    1.076   .     S
C849   N868    1.437   .     S
C849   C857    1.414   .     A
C849   C1024   1.391   .     S
C850   C852    1.398   .     A
C850   H851    1.084   .     S
C852   C853    1.396   .     A
C853   H854    1.084   .     S
C855   C857    1.402   .     A
C855   H856    1.084   .     S
C855   C1027   1.383   .     S
C858   N867    1.368   .     A
C858   H859    1.080   .     S
C858   C744    1.417   1_655 S
C860   N862    1.367   .     A
C860   H861    1.082   .     S
N862   C863    1.368   .     A
C863   H864    1.082   .     S
C865   H866    1.082   .     S
C865   N867    1.367   .     A
C865   C747    1.417   1_655 S
N868   O869    1.301   .     A
N868   O870    1.301   .     A
O871   Cu877   1.960   .     S
O871   C873    1.292   .     A
O872   C873    1.292   .     A
O872   Cu878   1.961   .     S
C873   C915    1.451   .     S
O874   Cu877   1.962   .     S
O874   C876    1.311   .     A
O875   Cu878   1.954   .     S
O875   C876    1.288   .     A
C876   C901    1.484   .     S
Cu877  O881    1.954   .     S
Cu877  Cu878   2.680   .     S
Cu877  O879    1.961   .     S
Cu877  N920    2.014   .     S
Cu878  O882    1.962   .     S
Cu878  N925    2.014   .     S
Cu878  O880    1.960   .     S
O879   C883    1.291   .     A
O880   C883    1.290   .     A
O881   C884    1.293   .     A
O882   C884    1.296   .     A
C883   C910    1.444   .     S
C884   C889    1.461   .     S
C885   C900    1.389   .     A
H886   C900    1.083   .     S
H887   C897    1.085   .     S
H888   C363    1.080   1_556 S
C889   C900    1.399   .     A
C889   C899    1.400   .     A
C890   C891    1.390   .     A
C890   H903    1.083   .     S
C890   C901    1.403   .     A
C891   C370    1.389   1_556 S
C891   H383    1.080   1_556 S
C892   H904    1.078   .     S
C893   C894    1.418   .     A
C893   C370    1.413   1_556 S
C893   C373    1.424   1_556 S
C894   C901    1.431   .     A
C894   C898    1.416   .     A
C895   C899    1.401   .     A
C896   C897    1.387   .     A
C896   C363    1.398   1_556 S
C896   C373    1.418   1_556 S
C897   C898    1.382   .     A
C898   H906    1.076   .     S
C899   H902    1.076   .     S
C907   N926    1.437   .     S
C907   C915    1.414   .     A
C907   C560    1.391   1_565 S
C908   C910    1.398   .     A
C908   H909    1.084   .     S
C910   C911    1.396   .     A
C911   H912    1.084   .     S
C913   C915    1.402   .     A
C913   H914    1.084   .     S
C913   C563    1.383   1_565 S
C916   N925    1.368   .     A
C916   H917    1.080   .     S
C916   C976    1.417   .     S
C918   N920    1.367   .     A
C918   H919    1.082   .     S
C918   C1032   1.417   1_455 S
N920   C921    1.368   .     A
C921   H922    1.082   .     S
C921   C1039   1.417   1_455 S
C923   H924    1.082   .     S
C923   N925    1.367   .     A
C923   C979    1.417   .     S
N926   O927    1.301   .     A
N926   O928    1.301   .     A
O929   Cu935   1.960   .     S
O929   C931    1.292   .     A
O930   C931    1.292   .     A
O930   Cu936   1.961   .     S
C931   C973    1.451   .     S
O932   Cu935   1.962   .     S
O932   C934    1.311   .     A
O933   Cu936   1.954   .     S
O933   C934    1.288   .     A
C934   C959    1.484   .     S
Cu935  O939    1.954   .     S
Cu935  Cu936   2.680   .     S
Cu935  O937    1.961   .     S
Cu935  N978    2.014   .     S
Cu936  O940    1.962   .     S
Cu936  N983    2.014   .     S
Cu936  O938    1.960   .     S
O937   C941    1.291   .     A
O938   C941    1.290   .     A
O939   C942    1.293   .     A
O940   C942    1.296   .     A
C941   C968    1.444   .     S
C942   C947    1.461   .     S
C943   C958    1.389   .     A
H944   C958    1.083   .     S
H945   C955    1.085   .     S
H946   C421    1.080   1_556 S
C947   C958    1.399   .     A
C947   C957    1.400   .     A
C948   C949    1.390   .     A
C948   H961    1.083   .     S
C948   C959    1.403   .     A
C949   C428    1.389   1_556 S
C949   H441    1.080   1_556 S
C950   H962    1.078   .     S
C951   C952    1.418   .     A
C951   C428    1.413   1_556 S
C951   C431    1.424   1_556 S
C952   C959    1.431   .     A
C952   C956    1.416   .     A
C953   C957    1.401   .     A
C954   C955    1.387   .     A
C954   C421    1.398   1_556 S
C954   C431    1.418   1_556 S
C955   C956    1.382   .     A
C956   H964    1.076   .     S
C957   H960    1.076   .     S
C965   N984    1.437   .     S
C965   C973    1.414   .     A
C965   C618    1.391   1_565 S
C966   C968    1.398   .     A
C966   H967    1.084   .     S
C968   C969    1.396   .     A
C969   H970    1.084   .     S
C971   C973    1.402   .     A
C971   H972    1.084   .     S
C971   C621    1.383   1_565 S
C974   N983    1.368   .     A
C974   H975    1.080   .     S
C974   C1034   1.417   .     S
C976   N978    1.367   .     A
C976   H977    1.082   .     S
N978   C979    1.368   .     A
C979   H980    1.082   .     S
C981   H982    1.082   .     S
C981   N983    1.367   .     A
C981   C1037   1.417   .     S
N984   O985    1.301   .     A
N984   O986    1.301   .     A
O987   Cu993   1.960   .     S
O987   C989    1.292   .     A
O988   C989    1.292   .     A
O988   Cu994   1.961   .     S
C989   C1031   1.451   .     S
O990   Cu993   1.962   .     S
O990   C992    1.311   .     A
O991   Cu994   1.954   .     S
O991   C992    1.288   .     A
C992   C1017   1.484   .     S
Cu993  O997    1.954   .     S
Cu993  Cu994   2.680   .     S
Cu993  O995    1.961   .     S
Cu993  N1036   2.014   .     S
Cu994  O998    1.962   .     S
Cu994  N1041   2.014   .     S
Cu994  O996    1.960   .     S
O995   C999    1.291   .     A
O996   C999    1.290   .     A
O997   C1000   1.293   .     A
O998   C1000   1.296   .     A
C999   C1026   1.444   .     S
C1000  C1005   1.461   .     S
C1001  C1016   1.389   .     A
H1002  C1016   1.083   .     S
H1003  C1013   1.085   .     S
H1004  C479    1.080   1_556 S
C1005  C1016   1.399   .     A
C1005  C1015   1.400   .     A
C1006  C1007   1.390   .     A
C1006  H1019   1.083   .     S
C1006  C1017   1.403   .     A
C1007  C486    1.389   1_556 S
C1007  H499    1.080   1_556 S
C1008  H1020   1.078   .     S
C1009  C1010   1.418   .     A
C1009  C486    1.413   1_556 S
C1009  C489    1.424   1_556 S
C1010  C1017   1.431   .     A
C1010  C1014   1.416   .     A
C1011  C1015   1.401   .     A
C1012  C1013   1.387   .     A
C1012  C479    1.398   1_556 S
C1012  C489    1.418   1_556 S
C1013  C1014   1.382   .     A
C1014  H1022   1.076   .     S
C1015  H1018   1.076   .     S
C1023  N1042   1.437   .     S
C1023  C1031   1.414   .     A
C1023  C676    1.391   1_565 S
C1024  C1026   1.398   .     A
C1024  H1025   1.084   .     S
C1026  C1027   1.396   .     A
C1027  H1028   1.084   .     S
C1029  C1031   1.402   .     A
C1029  H1030   1.084   .     S
C1029  C679    1.383   1_565 S
C1032  N1041   1.368   .     A
C1032  H1033   1.080   .     S
C1032  C918    1.417   1_655 S
C1034  N1036   1.367   .     A
C1034  H1035   1.082   .     S
N1036  C1037   1.368   .     A
C1037  H1038   1.082   .     S
C1039  H1040   1.082   .     S
C1039  N1041   1.367   .     A
C1039  C921    1.417   1_655 S
N1042  O1043   1.301   .     A
N1042  O1044   1.301   .     A
