data_str_m2_o2_o10_pcu_sym.60
_audit_creation_date              2020-01-03
_audit_creation_method            'Materials Studio'
_symmetry_space_group_name_H-M    'P1'
_symmetry_Int_Tables_number       1
_symmetry_cell_setting            triclinic
loop_
_symmetry_equiv_pos_as_xyz
  x,y,z
_cell_length_a                    26.1609
_cell_length_b                    30.2763
_cell_length_c                    27.8471
_cell_angle_alpha                 90.9081
_cell_angle_beta                  98.5424
_cell_angle_gamma                 91.1312
loop_
_atom_site_label
_atom_site_type_symbol
_atom_site_fract_x
_atom_site_fract_y
_atom_site_fract_z
_atom_site_U_iso_or_equiv
_atom_site_adp_type
_atom_site_occupancy
C1     C     0.16676   0.16516   0.24967   0.00000  Uiso   1.00
C2     C     0.20647   0.26892   0.45306   0.00000  Uiso   1.00
C3     C     0.16480   0.25151   0.02708   0.00000  Uiso   1.00
C4     C     0.16455   0.25110   0.47260   0.00000  Uiso   1.00
C5     C     0.06787   0.24985   0.23745   0.00000  Uiso   1.00
C6     C     0.26546   0.25000   0.26255   0.00000  Uiso   1.00
C7     C     0.01242   0.24966   0.23066   0.00000  Uiso   1.00
C8     C     0.32090   0.24997   0.26936   0.00000  Uiso   1.00
C9     C     0.13439   0.04846   0.27678   0.00000  Uiso   1.00
C10    C     0.16687   0.45194   0.20662   0.00000  Uiso   1.00
C11    C     0.13542   0.09430   0.27711   0.00000  Uiso   1.00
C12    C     0.16621   0.33514   0.25033   0.00000  Uiso   1.00
C13    C     0.16731   0.40611   0.20738   0.00000  Uiso   1.00
C14    C     0.16692   0.11718   0.24904   0.00000  Uiso   1.00
C15    C     0.16506   0.38368   0.25082   0.00000  Uiso   1.00
C16    C     0.19864   0.09397   0.22118   0.00000  Uiso   1.00
C17    C     0.16121   0.40816   0.29377   0.00000  Uiso   1.00
C18    C     0.19741   0.04786   0.22100   0.00000  Uiso   1.00
C19    C     0.16264   0.45423   0.29290   0.00000  Uiso   1.00
C20    C     0.16552   0.02488   0.24893   0.00000  Uiso   1.00
C21    C     0.16499   0.47635   0.24943   0.00000  Uiso   1.00
C22    C     0.27892   0.12328   0.22069   0.00000  Uiso   1.00
C23    C     0.19185   0.28421   0.05829   0.00000  Uiso   1.00
C24    C     0.10719   0.38509   0.34526   0.00000  Uiso   1.00
C25    C     0.10926   0.18263   0.11836   0.00000  Uiso   1.00
C26    C     0.25217   0.29063   0.38657   0.00000  Uiso   1.00
C27    C     0.12359   0.23220   0.43937   0.00000  Uiso   1.00
C28    C     0.19268   0.28261   0.10902   0.00000  Uiso   1.00
C29    C     0.12569   0.23156   0.38898   0.00000  Uiso   1.00
C30    C     0.13937   0.21814   0.09948   0.00000  Uiso   1.00
C31    C     0.20682   0.26911   0.40261   0.00000  Uiso   1.00
C32    C     0.13890   0.21824   0.04890   0.00000  Uiso   1.00
Cu33   Cu    0.16667   0.25000   0.29822   0.00000  Uiso   1.00
Cu34   Cu    0.16667   0.25001   0.20179   0.00000  Uiso   1.00
H35    H     0.32535   0.24930   0.19367   0.00000  Uiso   1.00
H36    H     0.08965   0.21827   0.45190   0.00000  Uiso   1.00
H37    H     0.21393   0.30792   0.13206   0.00000  Uiso   1.00
H38    H     0.09396   0.21640   0.36459   0.00000  Uiso   1.00
H39    H     0.11838   0.19185   0.02686   0.00000  Uiso   1.00
H40    H     0.23950   0.28286   0.47695   0.00000  Uiso   1.00
H41    H     0.27662   0.14353   0.25400   0.00000  Uiso   1.00
H42    H     0.30355   0.14196   0.19852   0.00000  Uiso   1.00
H43    H     0.29807   0.09147   0.23044   0.00000  Uiso   1.00
H44    H     0.10526   0.36671   0.37911   0.00000  Uiso   1.00
H45    H     0.08245   0.36670   0.31516   0.00000  Uiso   1.00
H46    H     0.00796   0.25030   0.30635   0.00000  Uiso   1.00
H47    H     0.09173   0.41857   0.35017   0.00000  Uiso   1.00
H48    H     0.04285   0.16371   0.14139   0.00000  Uiso   1.00
H49    H     0.28080   0.34082   0.35121   0.00000  Uiso   1.00
H50    H     0.10874   0.03147   0.29787   0.00000  Uiso   1.00
H51    H     0.16776   0.46828   0.17243   0.00000  Uiso   1.00
H52    H     0.11086   0.11196   0.29861   0.00000  Uiso   1.00
H53    H     0.16944   0.38828   0.17373   0.00000  Uiso   1.00
H54    H     0.22218   0.03021   0.19975   0.00000  Uiso   1.00
H55    H     0.16227   0.47261   0.32654   0.00000  Uiso   1.00
H56    H     0.21196   0.31135   0.04386   0.00000  Uiso   1.00
N57    N     0.16667   0.25001   0.12935   0.00000  Uiso   1.00
N58    N     0.16667   0.24999   0.37066   0.00000  Uiso   1.00
O59    O     0.16667   0.18573   0.29072   0.00000  Uiso   1.00
O60    O     0.15918   0.38754   0.33739   0.00000  Uiso   1.00
O61    O     0.12589   0.14515   0.12063   0.00000  Uiso   1.00
O62    O     0.06004   0.19095   0.12960   0.00000  Uiso   1.00
O63    O     0.29516   0.27587   0.39928   0.00000  Uiso   1.00
O64    O     0.24667   0.32908   0.35950   0.00000  Uiso   1.00
O65    O     0.16666   0.31427   0.20929   0.00000  Uiso   1.00
O66    O     0.16667   0.18573   0.20928   0.00000  Uiso   1.00
O67    O     0.16666   0.31427   0.29072   0.00000  Uiso   1.00
O68    O     0.09161   0.24999   0.28132   0.00000  Uiso   1.00
O69    O     0.24172   0.25001   0.21868   0.00000  Uiso   1.00
O70    O     0.09161   0.25000   0.19989   0.00000  Uiso   1.00
O71    O     0.24172   0.25000   0.30012   0.00000  Uiso   1.00
O72    O     0.22972   0.11608   0.19297   0.00000  Uiso   1.00
C73    C     0.50009   0.16516   0.24967   0.00000  Uiso   1.00
C74    C     0.53980   0.26892   0.45306   0.00000  Uiso   1.00
C75    C     0.49813   0.25151   0.02708   0.00000  Uiso   1.00
C76    C     0.49789   0.25110   0.47260   0.00000  Uiso   1.00
C77    C     0.40120   0.24985   0.23745   0.00000  Uiso   1.00
C78    C     0.59879   0.25000   0.26255   0.00000  Uiso   1.00
C79    C     0.34576   0.24966   0.23066   0.00000  Uiso   1.00
C80    C     0.65423   0.24997   0.26936   0.00000  Uiso   1.00
C81    C     0.46772   0.04846   0.27678   0.00000  Uiso   1.00
C82    C     0.50020   0.45194   0.20662   0.00000  Uiso   1.00
C83    C     0.46875   0.09430   0.27711   0.00000  Uiso   1.00
C84    C     0.49954   0.33514   0.25033   0.00000  Uiso   1.00
C85    C     0.50064   0.40611   0.20738   0.00000  Uiso   1.00
C86    C     0.50025   0.11718   0.24904   0.00000  Uiso   1.00
C87    C     0.49839   0.38368   0.25082   0.00000  Uiso   1.00
C88    C     0.53197   0.09397   0.22118   0.00000  Uiso   1.00
C89    C     0.49454   0.40816   0.29377   0.00000  Uiso   1.00
C90    C     0.53075   0.04786   0.22100   0.00000  Uiso   1.00
C91    C     0.49598   0.45423   0.29290   0.00000  Uiso   1.00
C92    C     0.49886   0.02488   0.24893   0.00000  Uiso   1.00
C93    C     0.49833   0.47635   0.24943   0.00000  Uiso   1.00
C94    C     0.61225   0.12328   0.22069   0.00000  Uiso   1.00
C95    C     0.52519   0.28421   0.05829   0.00000  Uiso   1.00
C96    C     0.44052   0.38509   0.34526   0.00000  Uiso   1.00
C97    C     0.44259   0.18263   0.11836   0.00000  Uiso   1.00
C98    C     0.58551   0.29063   0.38657   0.00000  Uiso   1.00
C99    C     0.45692   0.23220   0.43937   0.00000  Uiso   1.00
C100   C     0.52601   0.28261   0.10902   0.00000  Uiso   1.00
C101   C     0.45902   0.23156   0.38898   0.00000  Uiso   1.00
C102   C     0.47270   0.21814   0.09948   0.00000  Uiso   1.00
C103   C     0.54016   0.26911   0.40261   0.00000  Uiso   1.00
C104   C     0.47223   0.21824   0.04890   0.00000  Uiso   1.00
Cu105  Cu    0.50000   0.25000   0.29822   0.00000  Uiso   1.00
Cu106  Cu    0.50000   0.25001   0.20179   0.00000  Uiso   1.00
H107   H     0.65868   0.24930   0.19367   0.00000  Uiso   1.00
H108   H     0.42299   0.21827   0.45190   0.00000  Uiso   1.00
H109   H     0.54726   0.30792   0.13206   0.00000  Uiso   1.00
H110   H     0.42730   0.21640   0.36459   0.00000  Uiso   1.00
H111   H     0.45172   0.19185   0.02686   0.00000  Uiso   1.00
H112   H     0.57283   0.28286   0.47695   0.00000  Uiso   1.00
H113   H     0.60996   0.14353   0.25400   0.00000  Uiso   1.00
H114   H     0.63688   0.14196   0.19852   0.00000  Uiso   1.00
H115   H     0.63140   0.09147   0.23044   0.00000  Uiso   1.00
H116   H     0.43860   0.36671   0.37911   0.00000  Uiso   1.00
H117   H     0.41578   0.36670   0.31516   0.00000  Uiso   1.00
H118   H     0.34129   0.25030   0.30635   0.00000  Uiso   1.00
H119   H     0.42506   0.41857   0.35017   0.00000  Uiso   1.00
H120   H     0.37618   0.16371   0.14139   0.00000  Uiso   1.00
H121   H     0.61413   0.34082   0.35121   0.00000  Uiso   1.00
H122   H     0.44208   0.03147   0.29787   0.00000  Uiso   1.00
H123   H     0.50110   0.46828   0.17243   0.00000  Uiso   1.00
H124   H     0.44420   0.11196   0.29861   0.00000  Uiso   1.00
H125   H     0.50277   0.38828   0.17373   0.00000  Uiso   1.00
H126   H     0.55551   0.03021   0.19975   0.00000  Uiso   1.00
H127   H     0.49561   0.47261   0.32654   0.00000  Uiso   1.00
H128   H     0.54530   0.31135   0.04386   0.00000  Uiso   1.00
N129   N     0.50000   0.25001   0.12935   0.00000  Uiso   1.00
N130   N     0.50000   0.24999   0.37066   0.00000  Uiso   1.00
O131   O     0.50000   0.18573   0.29072   0.00000  Uiso   1.00
O132   O     0.49251   0.38754   0.33739   0.00000  Uiso   1.00
O133   O     0.45922   0.14515   0.12063   0.00000  Uiso   1.00
O134   O     0.39337   0.19095   0.12960   0.00000  Uiso   1.00
O135   O     0.62849   0.27587   0.39928   0.00000  Uiso   1.00
O136   O     0.58001   0.32908   0.35950   0.00000  Uiso   1.00
O137   O     0.50000   0.31427   0.20929   0.00000  Uiso   1.00
O138   O     0.50000   0.18573   0.20928   0.00000  Uiso   1.00
O139   O     0.50000   0.31427   0.29072   0.00000  Uiso   1.00
O140   O     0.42495   0.24999   0.28132   0.00000  Uiso   1.00
O141   O     0.57505   0.25001   0.21868   0.00000  Uiso   1.00
O142   O     0.42495   0.25000   0.19989   0.00000  Uiso   1.00
O143   O     0.57505   0.25000   0.30012   0.00000  Uiso   1.00
O144   O     0.56305   0.11608   0.19297   0.00000  Uiso   1.00
C145   C     0.83343   0.16516   0.24967   0.00000  Uiso   1.00
C146   C     0.87314   0.26892   0.45306   0.00000  Uiso   1.00
C147   C     0.83147   0.25151   0.02708   0.00000  Uiso   1.00
C148   C     0.83122   0.25110   0.47260   0.00000  Uiso   1.00
C149   C     0.73454   0.24985   0.23745   0.00000  Uiso   1.00
C150   C     0.93212   0.25000   0.26255   0.00000  Uiso   1.00
C151   C     0.67909   0.24966   0.23066   0.00000  Uiso   1.00
C152   C     0.98756   0.24997   0.26936   0.00000  Uiso   1.00
C153   C     0.80105   0.04846   0.27678   0.00000  Uiso   1.00
C154   C     0.83353   0.45194   0.20662   0.00000  Uiso   1.00
C155   C     0.80208   0.09430   0.27711   0.00000  Uiso   1.00
C156   C     0.83288   0.33514   0.25033   0.00000  Uiso   1.00
C157   C     0.83398   0.40611   0.20738   0.00000  Uiso   1.00
C158   C     0.83359   0.11718   0.24904   0.00000  Uiso   1.00
C159   C     0.83173   0.38368   0.25082   0.00000  Uiso   1.00
C160   C     0.86530   0.09397   0.22118   0.00000  Uiso   1.00
C161   C     0.82787   0.40816   0.29377   0.00000  Uiso   1.00
C162   C     0.86408   0.04786   0.22100   0.00000  Uiso   1.00
C163   C     0.82931   0.45423   0.29290   0.00000  Uiso   1.00
C164   C     0.83219   0.02488   0.24893   0.00000  Uiso   1.00
C165   C     0.83166   0.47635   0.24943   0.00000  Uiso   1.00
C166   C     0.94559   0.12328   0.22069   0.00000  Uiso   1.00
C167   C     0.85852   0.28421   0.05829   0.00000  Uiso   1.00
C168   C     0.77386   0.38509   0.34526   0.00000  Uiso   1.00
C169   C     0.77592   0.18263   0.11836   0.00000  Uiso   1.00
C170   C     0.91884   0.29063   0.38657   0.00000  Uiso   1.00
C171   C     0.79026   0.23220   0.43937   0.00000  Uiso   1.00
C172   C     0.85935   0.28261   0.10902   0.00000  Uiso   1.00
C173   C     0.79236   0.23156   0.38898   0.00000  Uiso   1.00
C174   C     0.80603   0.21814   0.09948   0.00000  Uiso   1.00
C175   C     0.87349   0.26911   0.40261   0.00000  Uiso   1.00
C176   C     0.80557   0.21824   0.04890   0.00000  Uiso   1.00
Cu177  Cu    0.83333   0.25000   0.29822   0.00000  Uiso   1.00
Cu178  Cu    0.83333   0.25001   0.20179   0.00000  Uiso   1.00
H179   H     0.99201   0.24930   0.19367   0.00000  Uiso   1.00
H180   H     0.75632   0.21827   0.45190   0.00000  Uiso   1.00
H181   H     0.88060   0.30792   0.13206   0.00000  Uiso   1.00
H182   H     0.76063   0.21640   0.36459   0.00000  Uiso   1.00
H183   H     0.78505   0.19185   0.02686   0.00000  Uiso   1.00
H184   H     0.90616   0.28286   0.47695   0.00000  Uiso   1.00
H185   H     0.94329   0.14353   0.25400   0.00000  Uiso   1.00
H186   H     0.97022   0.14196   0.19852   0.00000  Uiso   1.00
H187   H     0.96474   0.09147   0.23044   0.00000  Uiso   1.00
H188   H     0.77193   0.36671   0.37911   0.00000  Uiso   1.00
H189   H     0.74911   0.36670   0.31516   0.00000  Uiso   1.00
H190   H     0.67463   0.25030   0.30635   0.00000  Uiso   1.00
H191   H     0.75840   0.41857   0.35017   0.00000  Uiso   1.00
H192   H     0.70951   0.16371   0.14139   0.00000  Uiso   1.00
H193   H     0.94747   0.34082   0.35121   0.00000  Uiso   1.00
H194   H     0.77541   0.03147   0.29787   0.00000  Uiso   1.00
H195   H     0.83443   0.46828   0.17243   0.00000  Uiso   1.00
H196   H     0.77753   0.11196   0.29861   0.00000  Uiso   1.00
H197   H     0.83610   0.38828   0.17373   0.00000  Uiso   1.00
H198   H     0.88885   0.03021   0.19975   0.00000  Uiso   1.00
H199   H     0.82894   0.47261   0.32654   0.00000  Uiso   1.00
H200   H     0.87863   0.31135   0.04386   0.00000  Uiso   1.00
N201   N     0.83333   0.25001   0.12935   0.00000  Uiso   1.00
N202   N     0.83333   0.24999   0.37066   0.00000  Uiso   1.00
O203   O     0.83334   0.18573   0.29072   0.00000  Uiso   1.00
O204   O     0.82584   0.38754   0.33739   0.00000  Uiso   1.00
O205   O     0.79256   0.14515   0.12063   0.00000  Uiso   1.00
O206   O     0.72670   0.19095   0.12960   0.00000  Uiso   1.00
O207   O     0.96182   0.27587   0.39928   0.00000  Uiso   1.00
O208   O     0.91334   0.32908   0.35950   0.00000  Uiso   1.00
O209   O     0.83333   0.31427   0.20929   0.00000  Uiso   1.00
O210   O     0.83334   0.18573   0.20928   0.00000  Uiso   1.00
O211   O     0.83333   0.31427   0.29072   0.00000  Uiso   1.00
O212   O     0.75828   0.24999   0.28132   0.00000  Uiso   1.00
O213   O     0.90839   0.25001   0.21868   0.00000  Uiso   1.00
O214   O     0.75828   0.25000   0.19989   0.00000  Uiso   1.00
O215   O     0.90839   0.25000   0.30012   0.00000  Uiso   1.00
O216   O     0.89639   0.11608   0.19297   0.00000  Uiso   1.00
C217   C     0.16676   0.66516   0.24967   0.00000  Uiso   1.00
C218   C     0.20647   0.76892   0.45306   0.00000  Uiso   1.00
C219   C     0.16480   0.75151   0.02708   0.00000  Uiso   1.00
C220   C     0.16455   0.75110   0.47260   0.00000  Uiso   1.00
C221   C     0.06787   0.74985   0.23745   0.00000  Uiso   1.00
C222   C     0.26546   0.75000   0.26255   0.00000  Uiso   1.00
C223   C     0.01242   0.74966   0.23066   0.00000  Uiso   1.00
C224   C     0.32090   0.74997   0.26936   0.00000  Uiso   1.00
C225   C     0.13439   0.54846   0.27678   0.00000  Uiso   1.00
C226   C     0.16687   0.95194   0.20662   0.00000  Uiso   1.00
C227   C     0.13542   0.59430   0.27711   0.00000  Uiso   1.00
C228   C     0.16621   0.83514   0.25033   0.00000  Uiso   1.00
C229   C     0.16731   0.90611   0.20738   0.00000  Uiso   1.00
C230   C     0.16692   0.61718   0.24904   0.00000  Uiso   1.00
C231   C     0.16506   0.88368   0.25082   0.00000  Uiso   1.00
C232   C     0.19864   0.59397   0.22118   0.00000  Uiso   1.00
C233   C     0.16121   0.90816   0.29377   0.00000  Uiso   1.00
C234   C     0.19741   0.54786   0.22100   0.00000  Uiso   1.00
C235   C     0.16264   0.95423   0.29290   0.00000  Uiso   1.00
C236   C     0.16552   0.52488   0.24893   0.00000  Uiso   1.00
C237   C     0.16499   0.97635   0.24943   0.00000  Uiso   1.00
C238   C     0.27892   0.62328   0.22069   0.00000  Uiso   1.00
C239   C     0.19185   0.78421   0.05829   0.00000  Uiso   1.00
C240   C     0.10719   0.88509   0.34526   0.00000  Uiso   1.00
C241   C     0.10926   0.68263   0.11836   0.00000  Uiso   1.00
C242   C     0.25217   0.79063   0.38657   0.00000  Uiso   1.00
C243   C     0.12359   0.73220   0.43937   0.00000  Uiso   1.00
C244   C     0.19268   0.78261   0.10902   0.00000  Uiso   1.00
C245   C     0.12569   0.73156   0.38898   0.00000  Uiso   1.00
C246   C     0.13937   0.71814   0.09948   0.00000  Uiso   1.00
C247   C     0.20682   0.76911   0.40261   0.00000  Uiso   1.00
C248   C     0.13890   0.71824   0.04890   0.00000  Uiso   1.00
Cu249  Cu    0.16667   0.75000   0.29822   0.00000  Uiso   1.00
Cu250  Cu    0.16667   0.75001   0.20179   0.00000  Uiso   1.00
H251   H     0.32535   0.74930   0.19367   0.00000  Uiso   1.00
H252   H     0.08965   0.71827   0.45190   0.00000  Uiso   1.00
H253   H     0.21393   0.80792   0.13206   0.00000  Uiso   1.00
H254   H     0.09396   0.71640   0.36459   0.00000  Uiso   1.00
H255   H     0.11838   0.69185   0.02686   0.00000  Uiso   1.00
H256   H     0.23950   0.78286   0.47695   0.00000  Uiso   1.00
H257   H     0.27662   0.64353   0.25400   0.00000  Uiso   1.00
H258   H     0.30355   0.64196   0.19852   0.00000  Uiso   1.00
H259   H     0.29807   0.59147   0.23044   0.00000  Uiso   1.00
H260   H     0.10526   0.86671   0.37911   0.00000  Uiso   1.00
H261   H     0.08245   0.86670   0.31516   0.00000  Uiso   1.00
H262   H     0.00796   0.75030   0.30635   0.00000  Uiso   1.00
H263   H     0.09173   0.91857   0.35017   0.00000  Uiso   1.00
H264   H     0.04285   0.66371   0.14139   0.00000  Uiso   1.00
H265   H     0.28080   0.84082   0.35121   0.00000  Uiso   1.00
H266   H     0.10874   0.53147   0.29787   0.00000  Uiso   1.00
H267   H     0.16776   0.96828   0.17243   0.00000  Uiso   1.00
H268   H     0.11086   0.61196   0.29861   0.00000  Uiso   1.00
H269   H     0.16944   0.88828   0.17373   0.00000  Uiso   1.00
H270   H     0.22218   0.53021   0.19975   0.00000  Uiso   1.00
H271   H     0.16227   0.97261   0.32654   0.00000  Uiso   1.00
H272   H     0.21196   0.81135   0.04386   0.00000  Uiso   1.00
N273   N     0.16667   0.75001   0.12935   0.00000  Uiso   1.00
N274   N     0.16667   0.74999   0.37066   0.00000  Uiso   1.00
O275   O     0.16667   0.68573   0.29072   0.00000  Uiso   1.00
O276   O     0.15918   0.88754   0.33739   0.00000  Uiso   1.00
O277   O     0.12589   0.64515   0.12063   0.00000  Uiso   1.00
O278   O     0.06004   0.69095   0.12960   0.00000  Uiso   1.00
O279   O     0.29516   0.77587   0.39928   0.00000  Uiso   1.00
O280   O     0.24667   0.82908   0.35950   0.00000  Uiso   1.00
O281   O     0.16666   0.81427   0.20929   0.00000  Uiso   1.00
O282   O     0.16667   0.68573   0.20928   0.00000  Uiso   1.00
O283   O     0.16666   0.81427   0.29072   0.00000  Uiso   1.00
O284   O     0.09161   0.74999   0.28132   0.00000  Uiso   1.00
O285   O     0.24172   0.75001   0.21868   0.00000  Uiso   1.00
O286   O     0.09161   0.75000   0.19989   0.00000  Uiso   1.00
O287   O     0.24172   0.75000   0.30012   0.00000  Uiso   1.00
O288   O     0.22972   0.61608   0.19297   0.00000  Uiso   1.00
C289   C     0.50009   0.66516   0.24967   0.00000  Uiso   1.00
C290   C     0.53980   0.76892   0.45306   0.00000  Uiso   1.00
C291   C     0.49813   0.75151   0.02708   0.00000  Uiso   1.00
C292   C     0.49789   0.75110   0.47260   0.00000  Uiso   1.00
C293   C     0.40120   0.74985   0.23745   0.00000  Uiso   1.00
C294   C     0.59879   0.75000   0.26255   0.00000  Uiso   1.00
C295   C     0.34576   0.74966   0.23066   0.00000  Uiso   1.00
C296   C     0.65423   0.74997   0.26936   0.00000  Uiso   1.00
C297   C     0.46772   0.54846   0.27678   0.00000  Uiso   1.00
C298   C     0.50020   0.95194   0.20662   0.00000  Uiso   1.00
C299   C     0.46875   0.59430   0.27711   0.00000  Uiso   1.00
C300   C     0.49954   0.83514   0.25033   0.00000  Uiso   1.00
C301   C     0.50064   0.90611   0.20738   0.00000  Uiso   1.00
C302   C     0.50025   0.61718   0.24904   0.00000  Uiso   1.00
C303   C     0.49839   0.88368   0.25082   0.00000  Uiso   1.00
C304   C     0.53197   0.59397   0.22118   0.00000  Uiso   1.00
C305   C     0.49454   0.90816   0.29377   0.00000  Uiso   1.00
C306   C     0.53075   0.54786   0.22100   0.00000  Uiso   1.00
C307   C     0.49598   0.95423   0.29290   0.00000  Uiso   1.00
C308   C     0.49886   0.52488   0.24893   0.00000  Uiso   1.00
C309   C     0.49833   0.97635   0.24943   0.00000  Uiso   1.00
C310   C     0.61225   0.62328   0.22069   0.00000  Uiso   1.00
C311   C     0.52519   0.78421   0.05829   0.00000  Uiso   1.00
C312   C     0.44052   0.88509   0.34526   0.00000  Uiso   1.00
C313   C     0.44259   0.68263   0.11836   0.00000  Uiso   1.00
C314   C     0.58551   0.79063   0.38657   0.00000  Uiso   1.00
C315   C     0.45692   0.73220   0.43937   0.00000  Uiso   1.00
C316   C     0.52601   0.78261   0.10902   0.00000  Uiso   1.00
C317   C     0.45902   0.73156   0.38898   0.00000  Uiso   1.00
C318   C     0.47270   0.71814   0.09948   0.00000  Uiso   1.00
C319   C     0.54016   0.76911   0.40261   0.00000  Uiso   1.00
C320   C     0.47223   0.71824   0.04890   0.00000  Uiso   1.00
Cu321  Cu    0.50000   0.75000   0.29822   0.00000  Uiso   1.00
Cu322  Cu    0.50000   0.75001   0.20179   0.00000  Uiso   1.00
H323   H     0.65868   0.74930   0.19367   0.00000  Uiso   1.00
H324   H     0.42299   0.71827   0.45190   0.00000  Uiso   1.00
H325   H     0.54726   0.80792   0.13206   0.00000  Uiso   1.00
H326   H     0.42730   0.71640   0.36459   0.00000  Uiso   1.00
H327   H     0.45172   0.69185   0.02686   0.00000  Uiso   1.00
H328   H     0.57283   0.78286   0.47695   0.00000  Uiso   1.00
H329   H     0.60996   0.64353   0.25400   0.00000  Uiso   1.00
H330   H     0.63688   0.64196   0.19852   0.00000  Uiso   1.00
H331   H     0.63140   0.59147   0.23044   0.00000  Uiso   1.00
H332   H     0.43860   0.86671   0.37911   0.00000  Uiso   1.00
H333   H     0.41578   0.86670   0.31516   0.00000  Uiso   1.00
H334   H     0.34129   0.75030   0.30635   0.00000  Uiso   1.00
H335   H     0.42506   0.91857   0.35017   0.00000  Uiso   1.00
H336   H     0.37618   0.66371   0.14139   0.00000  Uiso   1.00
H337   H     0.61413   0.84082   0.35121   0.00000  Uiso   1.00
H338   H     0.44208   0.53147   0.29787   0.00000  Uiso   1.00
H339   H     0.50110   0.96828   0.17243   0.00000  Uiso   1.00
H340   H     0.44420   0.61196   0.29861   0.00000  Uiso   1.00
H341   H     0.50277   0.88828   0.17373   0.00000  Uiso   1.00
H342   H     0.55551   0.53021   0.19975   0.00000  Uiso   1.00
H343   H     0.49561   0.97261   0.32654   0.00000  Uiso   1.00
H344   H     0.54530   0.81135   0.04386   0.00000  Uiso   1.00
N345   N     0.50000   0.75001   0.12935   0.00000  Uiso   1.00
N346   N     0.50000   0.74999   0.37066   0.00000  Uiso   1.00
O347   O     0.50000   0.68573   0.29072   0.00000  Uiso   1.00
O348   O     0.49251   0.88754   0.33739   0.00000  Uiso   1.00
O349   O     0.45922   0.64515   0.12063   0.00000  Uiso   1.00
O350   O     0.39337   0.69095   0.12960   0.00000  Uiso   1.00
O351   O     0.62849   0.77587   0.39928   0.00000  Uiso   1.00
O352   O     0.58001   0.82908   0.35950   0.00000  Uiso   1.00
O353   O     0.50000   0.81427   0.20929   0.00000  Uiso   1.00
O354   O     0.50000   0.68573   0.20928   0.00000  Uiso   1.00
O355   O     0.50000   0.81427   0.29072   0.00000  Uiso   1.00
O356   O     0.42495   0.74999   0.28132   0.00000  Uiso   1.00
O357   O     0.57505   0.75001   0.21868   0.00000  Uiso   1.00
O358   O     0.42495   0.75000   0.19989   0.00000  Uiso   1.00
O359   O     0.57505   0.75000   0.30012   0.00000  Uiso   1.00
O360   O     0.56305   0.61608   0.19297   0.00000  Uiso   1.00
C361   C     0.83343   0.66516   0.24967   0.00000  Uiso   1.00
C362   C     0.87314   0.76892   0.45306   0.00000  Uiso   1.00
C363   C     0.83147   0.75151   0.02708   0.00000  Uiso   1.00
C364   C     0.83122   0.75110   0.47260   0.00000  Uiso   1.00
C365   C     0.73454   0.74985   0.23745   0.00000  Uiso   1.00
C366   C     0.93212   0.75000   0.26255   0.00000  Uiso   1.00
C367   C     0.67909   0.74966   0.23066   0.00000  Uiso   1.00
C368   C     0.98756   0.74997   0.26936   0.00000  Uiso   1.00
C369   C     0.80105   0.54846   0.27678   0.00000  Uiso   1.00
C370   C     0.83353   0.95194   0.20662   0.00000  Uiso   1.00
C371   C     0.80208   0.59430   0.27711   0.00000  Uiso   1.00
C372   C     0.83288   0.83514   0.25033   0.00000  Uiso   1.00
C373   C     0.83398   0.90611   0.20738   0.00000  Uiso   1.00
C374   C     0.83359   0.61718   0.24904   0.00000  Uiso   1.00
C375   C     0.83173   0.88368   0.25082   0.00000  Uiso   1.00
C376   C     0.86530   0.59397   0.22118   0.00000  Uiso   1.00
C377   C     0.82787   0.90816   0.29377   0.00000  Uiso   1.00
C378   C     0.86408   0.54786   0.22100   0.00000  Uiso   1.00
C379   C     0.82931   0.95423   0.29290   0.00000  Uiso   1.00
C380   C     0.83219   0.52488   0.24893   0.00000  Uiso   1.00
C381   C     0.83166   0.97635   0.24943   0.00000  Uiso   1.00
C382   C     0.94559   0.62328   0.22069   0.00000  Uiso   1.00
C383   C     0.85852   0.78421   0.05829   0.00000  Uiso   1.00
C384   C     0.77386   0.88509   0.34526   0.00000  Uiso   1.00
C385   C     0.77592   0.68263   0.11836   0.00000  Uiso   1.00
C386   C     0.91884   0.79063   0.38657   0.00000  Uiso   1.00
C387   C     0.79026   0.73220   0.43937   0.00000  Uiso   1.00
C388   C     0.85935   0.78261   0.10902   0.00000  Uiso   1.00
C389   C     0.79236   0.73156   0.38898   0.00000  Uiso   1.00
C390   C     0.80603   0.71814   0.09948   0.00000  Uiso   1.00
C391   C     0.87349   0.76911   0.40261   0.00000  Uiso   1.00
C392   C     0.80557   0.71824   0.04890   0.00000  Uiso   1.00
Cu393  Cu    0.83333   0.75000   0.29822   0.00000  Uiso   1.00
Cu394  Cu    0.83333   0.75001   0.20179   0.00000  Uiso   1.00
H395   H     0.99201   0.74930   0.19367   0.00000  Uiso   1.00
H396   H     0.75632   0.71827   0.45190   0.00000  Uiso   1.00
H397   H     0.88060   0.80792   0.13206   0.00000  Uiso   1.00
H398   H     0.76063   0.71640   0.36459   0.00000  Uiso   1.00
H399   H     0.78505   0.69185   0.02686   0.00000  Uiso   1.00
H400   H     0.90616   0.78286   0.47695   0.00000  Uiso   1.00
H401   H     0.94329   0.64353   0.25400   0.00000  Uiso   1.00
H402   H     0.97022   0.64196   0.19852   0.00000  Uiso   1.00
H403   H     0.96474   0.59147   0.23044   0.00000  Uiso   1.00
H404   H     0.77193   0.86671   0.37911   0.00000  Uiso   1.00
H405   H     0.74911   0.86670   0.31516   0.00000  Uiso   1.00
H406   H     0.67463   0.75030   0.30635   0.00000  Uiso   1.00
H407   H     0.75840   0.91857   0.35017   0.00000  Uiso   1.00
H408   H     0.70951   0.66371   0.14139   0.00000  Uiso   1.00
H409   H     0.94747   0.84082   0.35121   0.00000  Uiso   1.00
H410   H     0.77541   0.53147   0.29787   0.00000  Uiso   1.00
H411   H     0.83443   0.96828   0.17243   0.00000  Uiso   1.00
H412   H     0.77753   0.61196   0.29861   0.00000  Uiso   1.00
H413   H     0.83610   0.88828   0.17373   0.00000  Uiso   1.00
H414   H     0.88885   0.53021   0.19975   0.00000  Uiso   1.00
H415   H     0.82894   0.97261   0.32654   0.00000  Uiso   1.00
H416   H     0.87863   0.81135   0.04386   0.00000  Uiso   1.00
N417   N     0.83333   0.75001   0.12935   0.00000  Uiso   1.00
N418   N     0.83333   0.74999   0.37066   0.00000  Uiso   1.00
O419   O     0.83334   0.68573   0.29072   0.00000  Uiso   1.00
O420   O     0.82584   0.88754   0.33739   0.00000  Uiso   1.00
O421   O     0.79256   0.64515   0.12063   0.00000  Uiso   1.00
O422   O     0.72670   0.69095   0.12960   0.00000  Uiso   1.00
O423   O     0.96182   0.77587   0.39928   0.00000  Uiso   1.00
O424   O     0.91334   0.82908   0.35950   0.00000  Uiso   1.00
O425   O     0.83333   0.81427   0.20929   0.00000  Uiso   1.00
O426   O     0.83334   0.68573   0.20928   0.00000  Uiso   1.00
O427   O     0.83333   0.81427   0.29072   0.00000  Uiso   1.00
O428   O     0.75828   0.74999   0.28132   0.00000  Uiso   1.00
O429   O     0.90839   0.75001   0.21868   0.00000  Uiso   1.00
O430   O     0.75828   0.75000   0.19989   0.00000  Uiso   1.00
O431   O     0.90839   0.75000   0.30012   0.00000  Uiso   1.00
O432   O     0.89639   0.61608   0.19297   0.00000  Uiso   1.00
C433   C     0.16676   0.16516   0.74967   0.00000  Uiso   1.00
C434   C     0.20647   0.26892   0.95306   0.00000  Uiso   1.00
C435   C     0.16480   0.25151   0.52708   0.00000  Uiso   1.00
C436   C     0.16455   0.25110   0.97260   0.00000  Uiso   1.00
C437   C     0.06787   0.24985   0.73745   0.00000  Uiso   1.00
C438   C     0.26546   0.25000   0.76255   0.00000  Uiso   1.00
C439   C     0.01242   0.24966   0.73066   0.00000  Uiso   1.00
C440   C     0.32090   0.24997   0.76936   0.00000  Uiso   1.00
C441   C     0.13439   0.04846   0.77678   0.00000  Uiso   1.00
C442   C     0.16687   0.45194   0.70662   0.00000  Uiso   1.00
C443   C     0.13542   0.09430   0.77711   0.00000  Uiso   1.00
C444   C     0.16621   0.33514   0.75033   0.00000  Uiso   1.00
C445   C     0.16731   0.40611   0.70738   0.00000  Uiso   1.00
C446   C     0.16692   0.11718   0.74904   0.00000  Uiso   1.00
C447   C     0.16506   0.38368   0.75082   0.00000  Uiso   1.00
C448   C     0.19864   0.09397   0.72118   0.00000  Uiso   1.00
C449   C     0.16121   0.40816   0.79377   0.00000  Uiso   1.00
C450   C     0.19741   0.04786   0.72100   0.00000  Uiso   1.00
C451   C     0.16264   0.45423   0.79290   0.00000  Uiso   1.00
C452   C     0.16552   0.02488   0.74893   0.00000  Uiso   1.00
C453   C     0.16499   0.47635   0.74943   0.00000  Uiso   1.00
C454   C     0.27892   0.12328   0.72069   0.00000  Uiso   1.00
C455   C     0.19185   0.28421   0.55829   0.00000  Uiso   1.00
C456   C     0.10719   0.38509   0.84526   0.00000  Uiso   1.00
C457   C     0.10926   0.18263   0.61836   0.00000  Uiso   1.00
C458   C     0.25217   0.29063   0.88657   0.00000  Uiso   1.00
C459   C     0.12359   0.23220   0.93937   0.00000  Uiso   1.00
C460   C     0.19268   0.28261   0.60902   0.00000  Uiso   1.00
C461   C     0.12569   0.23156   0.88898   0.00000  Uiso   1.00
C462   C     0.13937   0.21814   0.59948   0.00000  Uiso   1.00
C463   C     0.20682   0.26911   0.90261   0.00000  Uiso   1.00
C464   C     0.13890   0.21824   0.54890   0.00000  Uiso   1.00
Cu465  Cu    0.16667   0.25000   0.79822   0.00000  Uiso   1.00
Cu466  Cu    0.16667   0.25001   0.70179   0.00000  Uiso   1.00
H467   H     0.32535   0.24930   0.69367   0.00000  Uiso   1.00
H468   H     0.08965   0.21827   0.95190   0.00000  Uiso   1.00
H469   H     0.21393   0.30792   0.63206   0.00000  Uiso   1.00
H470   H     0.09396   0.21640   0.86459   0.00000  Uiso   1.00
H471   H     0.11838   0.19185   0.52686   0.00000  Uiso   1.00
H472   H     0.23950   0.28286   0.97695   0.00000  Uiso   1.00
H473   H     0.27662   0.14353   0.75400   0.00000  Uiso   1.00
H474   H     0.30355   0.14196   0.69852   0.00000  Uiso   1.00
H475   H     0.29807   0.09147   0.73044   0.00000  Uiso   1.00
H476   H     0.10526   0.36671   0.87911   0.00000  Uiso   1.00
H477   H     0.08245   0.36670   0.81516   0.00000  Uiso   1.00
H478   H     0.00796   0.25030   0.80635   0.00000  Uiso   1.00
H479   H     0.09173   0.41857   0.85017   0.00000  Uiso   1.00
H480   H     0.04285   0.16371   0.64139   0.00000  Uiso   1.00
H481   H     0.28080   0.34082   0.85121   0.00000  Uiso   1.00
H482   H     0.10874   0.03147   0.79787   0.00000  Uiso   1.00
H483   H     0.16776   0.46828   0.67243   0.00000  Uiso   1.00
H484   H     0.11086   0.11196   0.79861   0.00000  Uiso   1.00
H485   H     0.16944   0.38828   0.67373   0.00000  Uiso   1.00
H486   H     0.22218   0.03021   0.69975   0.00000  Uiso   1.00
H487   H     0.16227   0.47261   0.82654   0.00000  Uiso   1.00
H488   H     0.21196   0.31135   0.54386   0.00000  Uiso   1.00
N489   N     0.16667   0.25001   0.62935   0.00000  Uiso   1.00
N490   N     0.16667   0.24999   0.87066   0.00000  Uiso   1.00
O491   O     0.16667   0.18573   0.79072   0.00000  Uiso   1.00
O492   O     0.15918   0.38754   0.83739   0.00000  Uiso   1.00
O493   O     0.12589   0.14515   0.62063   0.00000  Uiso   1.00
O494   O     0.06004   0.19095   0.62960   0.00000  Uiso   1.00
O495   O     0.29516   0.27587   0.89928   0.00000  Uiso   1.00
O496   O     0.24667   0.32908   0.85950   0.00000  Uiso   1.00
O497   O     0.16666   0.31427   0.70929   0.00000  Uiso   1.00
O498   O     0.16667   0.18573   0.70928   0.00000  Uiso   1.00
O499   O     0.16666   0.31427   0.79072   0.00000  Uiso   1.00
O500   O     0.09161   0.24999   0.78132   0.00000  Uiso   1.00
O501   O     0.24172   0.25001   0.71868   0.00000  Uiso   1.00
O502   O     0.09161   0.25000   0.69989   0.00000  Uiso   1.00
O503   O     0.24172   0.25000   0.80012   0.00000  Uiso   1.00
O504   O     0.22972   0.11608   0.69297   0.00000  Uiso   1.00
C505   C     0.50009   0.16516   0.74967   0.00000  Uiso   1.00
C506   C     0.53980   0.26892   0.95306   0.00000  Uiso   1.00
C507   C     0.49813   0.25151   0.52708   0.00000  Uiso   1.00
C508   C     0.49789   0.25110   0.97260   0.00000  Uiso   1.00
C509   C     0.40120   0.24985   0.73745   0.00000  Uiso   1.00
C510   C     0.59879   0.25000   0.76255   0.00000  Uiso   1.00
C511   C     0.34576   0.24966   0.73066   0.00000  Uiso   1.00
C512   C     0.65423   0.24997   0.76936   0.00000  Uiso   1.00
C513   C     0.46772   0.04846   0.77678   0.00000  Uiso   1.00
C514   C     0.50020   0.45194   0.70662   0.00000  Uiso   1.00
C515   C     0.46875   0.09430   0.77711   0.00000  Uiso   1.00
C516   C     0.49954   0.33514   0.75033   0.00000  Uiso   1.00
C517   C     0.50064   0.40611   0.70738   0.00000  Uiso   1.00
C518   C     0.50025   0.11718   0.74904   0.00000  Uiso   1.00
C519   C     0.49839   0.38368   0.75082   0.00000  Uiso   1.00
C520   C     0.53197   0.09397   0.72118   0.00000  Uiso   1.00
C521   C     0.49454   0.40816   0.79377   0.00000  Uiso   1.00
C522   C     0.53075   0.04786   0.72100   0.00000  Uiso   1.00
C523   C     0.49598   0.45423   0.79290   0.00000  Uiso   1.00
C524   C     0.49886   0.02488   0.74893   0.00000  Uiso   1.00
C525   C     0.49833   0.47635   0.74943   0.00000  Uiso   1.00
C526   C     0.61225   0.12328   0.72069   0.00000  Uiso   1.00
C527   C     0.52519   0.28421   0.55829   0.00000  Uiso   1.00
C528   C     0.44052   0.38509   0.84526   0.00000  Uiso   1.00
C529   C     0.44259   0.18263   0.61836   0.00000  Uiso   1.00
C530   C     0.58551   0.29063   0.88657   0.00000  Uiso   1.00
C531   C     0.45692   0.23220   0.93937   0.00000  Uiso   1.00
C532   C     0.52601   0.28261   0.60902   0.00000  Uiso   1.00
C533   C     0.45902   0.23156   0.88898   0.00000  Uiso   1.00
C534   C     0.47270   0.21814   0.59948   0.00000  Uiso   1.00
C535   C     0.54016   0.26911   0.90261   0.00000  Uiso   1.00
C536   C     0.47223   0.21824   0.54890   0.00000  Uiso   1.00
Cu537  Cu    0.50000   0.25000   0.79822   0.00000  Uiso   1.00
Cu538  Cu    0.50000   0.25001   0.70179   0.00000  Uiso   1.00
H539   H     0.65868   0.24930   0.69367   0.00000  Uiso   1.00
H540   H     0.42299   0.21827   0.95190   0.00000  Uiso   1.00
H541   H     0.54726   0.30792   0.63206   0.00000  Uiso   1.00
H542   H     0.42730   0.21640   0.86459   0.00000  Uiso   1.00
H543   H     0.45172   0.19185   0.52686   0.00000  Uiso   1.00
H544   H     0.57283   0.28286   0.97695   0.00000  Uiso   1.00
H545   H     0.60996   0.14353   0.75400   0.00000  Uiso   1.00
H546   H     0.63688   0.14196   0.69852   0.00000  Uiso   1.00
H547   H     0.63140   0.09147   0.73044   0.00000  Uiso   1.00
H548   H     0.43860   0.36671   0.87911   0.00000  Uiso   1.00
H549   H     0.41578   0.36670   0.81516   0.00000  Uiso   1.00
H550   H     0.34129   0.25030   0.80635   0.00000  Uiso   1.00
H551   H     0.42506   0.41857   0.85017   0.00000  Uiso   1.00
H552   H     0.37618   0.16371   0.64139   0.00000  Uiso   1.00
H553   H     0.61413   0.34082   0.85121   0.00000  Uiso   1.00
H554   H     0.44208   0.03147   0.79787   0.00000  Uiso   1.00
H555   H     0.50110   0.46828   0.67243   0.00000  Uiso   1.00
H556   H     0.44420   0.11196   0.79861   0.00000  Uiso   1.00
H557   H     0.50277   0.38828   0.67373   0.00000  Uiso   1.00
H558   H     0.55551   0.03021   0.69975   0.00000  Uiso   1.00
H559   H     0.49561   0.47261   0.82654   0.00000  Uiso   1.00
H560   H     0.54530   0.31135   0.54386   0.00000  Uiso   1.00
N561   N     0.50000   0.25001   0.62935   0.00000  Uiso   1.00
N562   N     0.50000   0.24999   0.87066   0.00000  Uiso   1.00
O563   O     0.50000   0.18573   0.79072   0.00000  Uiso   1.00
O564   O     0.49251   0.38754   0.83739   0.00000  Uiso   1.00
O565   O     0.45922   0.14515   0.62063   0.00000  Uiso   1.00
O566   O     0.39337   0.19095   0.62960   0.00000  Uiso   1.00
O567   O     0.62849   0.27587   0.89928   0.00000  Uiso   1.00
O568   O     0.58001   0.32908   0.85950   0.00000  Uiso   1.00
O569   O     0.50000   0.31427   0.70929   0.00000  Uiso   1.00
O570   O     0.50000   0.18573   0.70928   0.00000  Uiso   1.00
O571   O     0.50000   0.31427   0.79072   0.00000  Uiso   1.00
O572   O     0.42495   0.24999   0.78132   0.00000  Uiso   1.00
O573   O     0.57505   0.25001   0.71868   0.00000  Uiso   1.00
O574   O     0.42495   0.25000   0.69989   0.00000  Uiso   1.00
O575   O     0.57505   0.25000   0.80012   0.00000  Uiso   1.00
O576   O     0.56305   0.11608   0.69297   0.00000  Uiso   1.00
C577   C     0.83343   0.16516   0.74967   0.00000  Uiso   1.00
C578   C     0.87314   0.26892   0.95306   0.00000  Uiso   1.00
C579   C     0.83147   0.25151   0.52708   0.00000  Uiso   1.00
C580   C     0.83122   0.25110   0.97260   0.00000  Uiso   1.00
C581   C     0.73454   0.24985   0.73745   0.00000  Uiso   1.00
C582   C     0.93212   0.25000   0.76255   0.00000  Uiso   1.00
C583   C     0.67909   0.24966   0.73066   0.00000  Uiso   1.00
C584   C     0.98756   0.24997   0.76936   0.00000  Uiso   1.00
C585   C     0.80105   0.04846   0.77678   0.00000  Uiso   1.00
C586   C     0.83353   0.45194   0.70662   0.00000  Uiso   1.00
C587   C     0.80208   0.09430   0.77711   0.00000  Uiso   1.00
C588   C     0.83288   0.33514   0.75033   0.00000  Uiso   1.00
C589   C     0.83398   0.40611   0.70738   0.00000  Uiso   1.00
C590   C     0.83359   0.11718   0.74904   0.00000  Uiso   1.00
C591   C     0.83173   0.38368   0.75082   0.00000  Uiso   1.00
C592   C     0.86530   0.09397   0.72118   0.00000  Uiso   1.00
C593   C     0.82787   0.40816   0.79377   0.00000  Uiso   1.00
C594   C     0.86408   0.04786   0.72100   0.00000  Uiso   1.00
C595   C     0.82931   0.45423   0.79290   0.00000  Uiso   1.00
C596   C     0.83219   0.02488   0.74893   0.00000  Uiso   1.00
C597   C     0.83166   0.47635   0.74943   0.00000  Uiso   1.00
C598   C     0.94559   0.12328   0.72069   0.00000  Uiso   1.00
C599   C     0.85852   0.28421   0.55829   0.00000  Uiso   1.00
C600   C     0.77386   0.38509   0.84526   0.00000  Uiso   1.00
C601   C     0.77592   0.18263   0.61836   0.00000  Uiso   1.00
C602   C     0.91884   0.29063   0.88657   0.00000  Uiso   1.00
C603   C     0.79026   0.23220   0.93937   0.00000  Uiso   1.00
C604   C     0.85935   0.28261   0.60902   0.00000  Uiso   1.00
C605   C     0.79236   0.23156   0.88898   0.00000  Uiso   1.00
C606   C     0.80603   0.21814   0.59948   0.00000  Uiso   1.00
C607   C     0.87349   0.26911   0.90261   0.00000  Uiso   1.00
C608   C     0.80557   0.21824   0.54890   0.00000  Uiso   1.00
Cu609  Cu    0.83333   0.25000   0.79822   0.00000  Uiso   1.00
Cu610  Cu    0.83333   0.25001   0.70179   0.00000  Uiso   1.00
H611   H     0.99201   0.24930   0.69367   0.00000  Uiso   1.00
H612   H     0.75632   0.21827   0.95190   0.00000  Uiso   1.00
H613   H     0.88060   0.30792   0.63206   0.00000  Uiso   1.00
H614   H     0.76063   0.21640   0.86459   0.00000  Uiso   1.00
H615   H     0.78505   0.19185   0.52686   0.00000  Uiso   1.00
H616   H     0.90616   0.28286   0.97695   0.00000  Uiso   1.00
H617   H     0.94329   0.14353   0.75400   0.00000  Uiso   1.00
H618   H     0.97022   0.14196   0.69852   0.00000  Uiso   1.00
H619   H     0.96474   0.09147   0.73044   0.00000  Uiso   1.00
H620   H     0.77193   0.36671   0.87911   0.00000  Uiso   1.00
H621   H     0.74911   0.36670   0.81516   0.00000  Uiso   1.00
H622   H     0.67463   0.25030   0.80635   0.00000  Uiso   1.00
H623   H     0.75840   0.41857   0.85017   0.00000  Uiso   1.00
H624   H     0.70951   0.16371   0.64139   0.00000  Uiso   1.00
H625   H     0.94747   0.34082   0.85121   0.00000  Uiso   1.00
H626   H     0.77541   0.03147   0.79787   0.00000  Uiso   1.00
H627   H     0.83443   0.46828   0.67243   0.00000  Uiso   1.00
H628   H     0.77753   0.11196   0.79861   0.00000  Uiso   1.00
H629   H     0.83610   0.38828   0.67373   0.00000  Uiso   1.00
H630   H     0.88885   0.03021   0.69975   0.00000  Uiso   1.00
H631   H     0.82894   0.47261   0.82654   0.00000  Uiso   1.00
H632   H     0.87863   0.31135   0.54386   0.00000  Uiso   1.00
N633   N     0.83333   0.25001   0.62935   0.00000  Uiso   1.00
N634   N     0.83333   0.24999   0.87066   0.00000  Uiso   1.00
O635   O     0.83334   0.18573   0.79072   0.00000  Uiso   1.00
O636   O     0.82584   0.38754   0.83739   0.00000  Uiso   1.00
O637   O     0.79256   0.14515   0.62063   0.00000  Uiso   1.00
O638   O     0.72670   0.19095   0.62960   0.00000  Uiso   1.00
O639   O     0.96182   0.27587   0.89928   0.00000  Uiso   1.00
O640   O     0.91334   0.32908   0.85950   0.00000  Uiso   1.00
O641   O     0.83333   0.31427   0.70929   0.00000  Uiso   1.00
O642   O     0.83334   0.18573   0.70928   0.00000  Uiso   1.00
O643   O     0.83333   0.31427   0.79072   0.00000  Uiso   1.00
O644   O     0.75828   0.24999   0.78132   0.00000  Uiso   1.00
O645   O     0.90839   0.25001   0.71868   0.00000  Uiso   1.00
O646   O     0.75828   0.25000   0.69989   0.00000  Uiso   1.00
O647   O     0.90839   0.25000   0.80012   0.00000  Uiso   1.00
O648   O     0.89639   0.11608   0.69297   0.00000  Uiso   1.00
C649   C     0.16676   0.66516   0.74967   0.00000  Uiso   1.00
C650   C     0.20647   0.76892   0.95306   0.00000  Uiso   1.00
C651   C     0.16480   0.75151   0.52708   0.00000  Uiso   1.00
C652   C     0.16455   0.75110   0.97260   0.00000  Uiso   1.00
C653   C     0.06787   0.74985   0.73745   0.00000  Uiso   1.00
C654   C     0.26546   0.75000   0.76255   0.00000  Uiso   1.00
C655   C     0.01242   0.74966   0.73066   0.00000  Uiso   1.00
C656   C     0.32090   0.74997   0.76936   0.00000  Uiso   1.00
C657   C     0.13439   0.54846   0.77678   0.00000  Uiso   1.00
C658   C     0.16687   0.95194   0.70662   0.00000  Uiso   1.00
C659   C     0.13542   0.59430   0.77711   0.00000  Uiso   1.00
C660   C     0.16621   0.83514   0.75033   0.00000  Uiso   1.00
C661   C     0.16731   0.90611   0.70738   0.00000  Uiso   1.00
C662   C     0.16692   0.61718   0.74904   0.00000  Uiso   1.00
C663   C     0.16506   0.88368   0.75082   0.00000  Uiso   1.00
C664   C     0.19864   0.59397   0.72118   0.00000  Uiso   1.00
C665   C     0.16121   0.90816   0.79377   0.00000  Uiso   1.00
C666   C     0.19741   0.54786   0.72100   0.00000  Uiso   1.00
C667   C     0.16264   0.95423   0.79290   0.00000  Uiso   1.00
C668   C     0.16552   0.52488   0.74893   0.00000  Uiso   1.00
C669   C     0.16499   0.97635   0.74943   0.00000  Uiso   1.00
C670   C     0.27892   0.62328   0.72069   0.00000  Uiso   1.00
C671   C     0.19185   0.78421   0.55829   0.00000  Uiso   1.00
C672   C     0.10719   0.88509   0.84526   0.00000  Uiso   1.00
C673   C     0.10926   0.68263   0.61836   0.00000  Uiso   1.00
C674   C     0.25217   0.79063   0.88657   0.00000  Uiso   1.00
C675   C     0.12359   0.73220   0.93937   0.00000  Uiso   1.00
C676   C     0.19268   0.78261   0.60902   0.00000  Uiso   1.00
C677   C     0.12569   0.73156   0.88898   0.00000  Uiso   1.00
C678   C     0.13937   0.71814   0.59948   0.00000  Uiso   1.00
C679   C     0.20682   0.76911   0.90261   0.00000  Uiso   1.00
C680   C     0.13890   0.71824   0.54890   0.00000  Uiso   1.00
Cu681  Cu    0.16667   0.75000   0.79822   0.00000  Uiso   1.00
Cu682  Cu    0.16667   0.75001   0.70179   0.00000  Uiso   1.00
H683   H     0.32535   0.74930   0.69367   0.00000  Uiso   1.00
H684   H     0.08965   0.71827   0.95190   0.00000  Uiso   1.00
H685   H     0.21393   0.80792   0.63206   0.00000  Uiso   1.00
H686   H     0.09396   0.71640   0.86459   0.00000  Uiso   1.00
H687   H     0.11838   0.69185   0.52686   0.00000  Uiso   1.00
H688   H     0.23950   0.78286   0.97695   0.00000  Uiso   1.00
H689   H     0.27662   0.64353   0.75400   0.00000  Uiso   1.00
H690   H     0.30355   0.64196   0.69852   0.00000  Uiso   1.00
H691   H     0.29807   0.59147   0.73044   0.00000  Uiso   1.00
H692   H     0.10526   0.86671   0.87911   0.00000  Uiso   1.00
H693   H     0.08245   0.86670   0.81516   0.00000  Uiso   1.00
H694   H     0.00796   0.75030   0.80635   0.00000  Uiso   1.00
H695   H     0.09173   0.91857   0.85017   0.00000  Uiso   1.00
H696   H     0.04285   0.66371   0.64139   0.00000  Uiso   1.00
H697   H     0.28080   0.84082   0.85121   0.00000  Uiso   1.00
H698   H     0.10874   0.53147   0.79787   0.00000  Uiso   1.00
H699   H     0.16776   0.96828   0.67243   0.00000  Uiso   1.00
H700   H     0.11086   0.61196   0.79861   0.00000  Uiso   1.00
H701   H     0.16944   0.88828   0.67373   0.00000  Uiso   1.00
H702   H     0.22218   0.53021   0.69975   0.00000  Uiso   1.00
H703   H     0.16227   0.97261   0.82654   0.00000  Uiso   1.00
H704   H     0.21196   0.81135   0.54386   0.00000  Uiso   1.00
N705   N     0.16667   0.75001   0.62935   0.00000  Uiso   1.00
N706   N     0.16667   0.74999   0.87066   0.00000  Uiso   1.00
O707   O     0.16667   0.68573   0.79072   0.00000  Uiso   1.00
O708   O     0.15918   0.88754   0.83739   0.00000  Uiso   1.00
O709   O     0.12589   0.64515   0.62063   0.00000  Uiso   1.00
O710   O     0.06004   0.69095   0.62960   0.00000  Uiso   1.00
O711   O     0.29516   0.77587   0.89928   0.00000  Uiso   1.00
O712   O     0.24667   0.82908   0.85950   0.00000  Uiso   1.00
O713   O     0.16666   0.81427   0.70929   0.00000  Uiso   1.00
O714   O     0.16667   0.68573   0.70928   0.00000  Uiso   1.00
O715   O     0.16666   0.81427   0.79072   0.00000  Uiso   1.00
O716   O     0.09161   0.74999   0.78132   0.00000  Uiso   1.00
O717   O     0.24172   0.75001   0.71868   0.00000  Uiso   1.00
O718   O     0.09161   0.75000   0.69989   0.00000  Uiso   1.00
O719   O     0.24172   0.75000   0.80012   0.00000  Uiso   1.00
O720   O     0.22972   0.61608   0.69297   0.00000  Uiso   1.00
C721   C     0.50009   0.66516   0.74967   0.00000  Uiso   1.00
C722   C     0.53980   0.76892   0.95306   0.00000  Uiso   1.00
C723   C     0.49813   0.75151   0.52708   0.00000  Uiso   1.00
C724   C     0.49789   0.75110   0.97260   0.00000  Uiso   1.00
C725   C     0.40120   0.74985   0.73745   0.00000  Uiso   1.00
C726   C     0.59879   0.75000   0.76255   0.00000  Uiso   1.00
C727   C     0.34576   0.74966   0.73066   0.00000  Uiso   1.00
C728   C     0.65423   0.74997   0.76936   0.00000  Uiso   1.00
C729   C     0.46772   0.54846   0.77678   0.00000  Uiso   1.00
C730   C     0.50020   0.95194   0.70662   0.00000  Uiso   1.00
C731   C     0.46875   0.59430   0.77711   0.00000  Uiso   1.00
C732   C     0.49954   0.83514   0.75033   0.00000  Uiso   1.00
C733   C     0.50064   0.90611   0.70738   0.00000  Uiso   1.00
C734   C     0.50025   0.61718   0.74904   0.00000  Uiso   1.00
C735   C     0.49839   0.88368   0.75082   0.00000  Uiso   1.00
C736   C     0.53197   0.59397   0.72118   0.00000  Uiso   1.00
C737   C     0.49454   0.90816   0.79377   0.00000  Uiso   1.00
C738   C     0.53075   0.54786   0.72100   0.00000  Uiso   1.00
C739   C     0.49598   0.95423   0.79290   0.00000  Uiso   1.00
C740   C     0.49886   0.52488   0.74893   0.00000  Uiso   1.00
C741   C     0.49833   0.97635   0.74943   0.00000  Uiso   1.00
C742   C     0.61225   0.62328   0.72069   0.00000  Uiso   1.00
C743   C     0.52519   0.78421   0.55829   0.00000  Uiso   1.00
C744   C     0.44052   0.88509   0.84526   0.00000  Uiso   1.00
C745   C     0.44259   0.68263   0.61836   0.00000  Uiso   1.00
C746   C     0.58551   0.79063   0.88657   0.00000  Uiso   1.00
C747   C     0.45692   0.73220   0.93937   0.00000  Uiso   1.00
C748   C     0.52601   0.78261   0.60902   0.00000  Uiso   1.00
C749   C     0.45902   0.73156   0.88898   0.00000  Uiso   1.00
C750   C     0.47270   0.71814   0.59948   0.00000  Uiso   1.00
C751   C     0.54016   0.76911   0.90261   0.00000  Uiso   1.00
C752   C     0.47223   0.71824   0.54890   0.00000  Uiso   1.00
Cu753  Cu    0.50000   0.75000   0.79822   0.00000  Uiso   1.00
Cu754  Cu    0.50000   0.75001   0.70179   0.00000  Uiso   1.00
H755   H     0.65868   0.74930   0.69367   0.00000  Uiso   1.00
H756   H     0.42299   0.71827   0.95190   0.00000  Uiso   1.00
H757   H     0.54726   0.80792   0.63206   0.00000  Uiso   1.00
H758   H     0.42730   0.71640   0.86459   0.00000  Uiso   1.00
H759   H     0.45172   0.69185   0.52686   0.00000  Uiso   1.00
H760   H     0.57283   0.78286   0.97695   0.00000  Uiso   1.00
H761   H     0.60996   0.64353   0.75400   0.00000  Uiso   1.00
H762   H     0.63688   0.64196   0.69852   0.00000  Uiso   1.00
H763   H     0.63140   0.59147   0.73044   0.00000  Uiso   1.00
H764   H     0.43860   0.86671   0.87911   0.00000  Uiso   1.00
H765   H     0.41578   0.86670   0.81516   0.00000  Uiso   1.00
H766   H     0.34129   0.75030   0.80635   0.00000  Uiso   1.00
H767   H     0.42506   0.91857   0.85017   0.00000  Uiso   1.00
H768   H     0.37618   0.66371   0.64139   0.00000  Uiso   1.00
H769   H     0.61413   0.84082   0.85121   0.00000  Uiso   1.00
H770   H     0.44208   0.53147   0.79787   0.00000  Uiso   1.00
H771   H     0.50110   0.96828   0.67243   0.00000  Uiso   1.00
H772   H     0.44420   0.61196   0.79861   0.00000  Uiso   1.00
H773   H     0.50277   0.88828   0.67373   0.00000  Uiso   1.00
H774   H     0.55551   0.53021   0.69975   0.00000  Uiso   1.00
H775   H     0.49561   0.97261   0.82654   0.00000  Uiso   1.00
H776   H     0.54530   0.81135   0.54386   0.00000  Uiso   1.00
N777   N     0.50000   0.75001   0.62935   0.00000  Uiso   1.00
N778   N     0.50000   0.74999   0.87066   0.00000  Uiso   1.00
O779   O     0.50000   0.68573   0.79072   0.00000  Uiso   1.00
O780   O     0.49251   0.88754   0.83739   0.00000  Uiso   1.00
O781   O     0.45922   0.64515   0.62063   0.00000  Uiso   1.00
O782   O     0.39337   0.69095   0.62960   0.00000  Uiso   1.00
O783   O     0.62849   0.77587   0.89928   0.00000  Uiso   1.00
O784   O     0.58001   0.82908   0.85950   0.00000  Uiso   1.00
O785   O     0.50000   0.81427   0.70929   0.00000  Uiso   1.00
O786   O     0.50000   0.68573   0.70928   0.00000  Uiso   1.00
O787   O     0.50000   0.81427   0.79072   0.00000  Uiso   1.00
O788   O     0.42495   0.74999   0.78132   0.00000  Uiso   1.00
O789   O     0.57505   0.75001   0.71868   0.00000  Uiso   1.00
O790   O     0.42495   0.75000   0.69989   0.00000  Uiso   1.00
O791   O     0.57505   0.75000   0.80012   0.00000  Uiso   1.00
O792   O     0.56305   0.61608   0.69297   0.00000  Uiso   1.00
C793   C     0.83343   0.66516   0.74967   0.00000  Uiso   1.00
C794   C     0.87314   0.76892   0.95306   0.00000  Uiso   1.00
C795   C     0.83147   0.75151   0.52708   0.00000  Uiso   1.00
C796   C     0.83122   0.75110   0.97260   0.00000  Uiso   1.00
C797   C     0.73454   0.74985   0.73745   0.00000  Uiso   1.00
C798   C     0.93212   0.75000   0.76255   0.00000  Uiso   1.00
C799   C     0.67909   0.74966   0.73066   0.00000  Uiso   1.00
C800   C     0.98756   0.74997   0.76936   0.00000  Uiso   1.00
C801   C     0.80105   0.54846   0.77678   0.00000  Uiso   1.00
C802   C     0.83353   0.95194   0.70662   0.00000  Uiso   1.00
C803   C     0.80208   0.59430   0.77711   0.00000  Uiso   1.00
C804   C     0.83288   0.83514   0.75033   0.00000  Uiso   1.00
C805   C     0.83398   0.90611   0.70738   0.00000  Uiso   1.00
C806   C     0.83359   0.61718   0.74904   0.00000  Uiso   1.00
C807   C     0.83173   0.88368   0.75082   0.00000  Uiso   1.00
C808   C     0.86530   0.59397   0.72118   0.00000  Uiso   1.00
C809   C     0.82787   0.90816   0.79377   0.00000  Uiso   1.00
C810   C     0.86408   0.54786   0.72100   0.00000  Uiso   1.00
C811   C     0.82931   0.95423   0.79290   0.00000  Uiso   1.00
C812   C     0.83219   0.52488   0.74893   0.00000  Uiso   1.00
C813   C     0.83166   0.97635   0.74943   0.00000  Uiso   1.00
C814   C     0.94559   0.62328   0.72069   0.00000  Uiso   1.00
C815   C     0.85852   0.78421   0.55829   0.00000  Uiso   1.00
C816   C     0.77386   0.88509   0.84526   0.00000  Uiso   1.00
C817   C     0.77592   0.68263   0.61836   0.00000  Uiso   1.00
C818   C     0.91884   0.79063   0.88657   0.00000  Uiso   1.00
C819   C     0.79026   0.73220   0.93937   0.00000  Uiso   1.00
C820   C     0.85935   0.78261   0.60902   0.00000  Uiso   1.00
C821   C     0.79236   0.73156   0.88898   0.00000  Uiso   1.00
C822   C     0.80603   0.71814   0.59948   0.00000  Uiso   1.00
C823   C     0.87349   0.76911   0.90261   0.00000  Uiso   1.00
C824   C     0.80557   0.71824   0.54890   0.00000  Uiso   1.00
Cu825  Cu    0.83333   0.75000   0.79822   0.00000  Uiso   1.00
Cu826  Cu    0.83333   0.75001   0.70179   0.00000  Uiso   1.00
H827   H     0.99201   0.74930   0.69367   0.00000  Uiso   1.00
H828   H     0.75632   0.71827   0.95190   0.00000  Uiso   1.00
H829   H     0.88060   0.80792   0.63206   0.00000  Uiso   1.00
H830   H     0.76063   0.71640   0.86459   0.00000  Uiso   1.00
H831   H     0.78505   0.69185   0.52686   0.00000  Uiso   1.00
H832   H     0.90616   0.78286   0.97695   0.00000  Uiso   1.00
H833   H     0.94329   0.64353   0.75400   0.00000  Uiso   1.00
H834   H     0.97022   0.64196   0.69852   0.00000  Uiso   1.00
H835   H     0.96474   0.59147   0.73044   0.00000  Uiso   1.00
H836   H     0.77193   0.86671   0.87911   0.00000  Uiso   1.00
H837   H     0.74911   0.86670   0.81516   0.00000  Uiso   1.00
H838   H     0.67463   0.75030   0.80635   0.00000  Uiso   1.00
H839   H     0.75840   0.91857   0.85017   0.00000  Uiso   1.00
H840   H     0.70951   0.66371   0.64139   0.00000  Uiso   1.00
H841   H     0.94747   0.84082   0.85121   0.00000  Uiso   1.00
H842   H     0.77541   0.53147   0.79787   0.00000  Uiso   1.00
H843   H     0.83443   0.96828   0.67243   0.00000  Uiso   1.00
H844   H     0.77753   0.61196   0.79861   0.00000  Uiso   1.00
H845   H     0.83610   0.88828   0.67373   0.00000  Uiso   1.00
H846   H     0.88885   0.53021   0.69975   0.00000  Uiso   1.00
H847   H     0.82894   0.97261   0.82654   0.00000  Uiso   1.00
H848   H     0.87863   0.81135   0.54386   0.00000  Uiso   1.00
N849   N     0.83333   0.75001   0.62935   0.00000  Uiso   1.00
N850   N     0.83333   0.74999   0.87066   0.00000  Uiso   1.00
O851   O     0.83334   0.68573   0.79072   0.00000  Uiso   1.00
O852   O     0.82584   0.88754   0.83739   0.00000  Uiso   1.00
O853   O     0.79256   0.64515   0.62063   0.00000  Uiso   1.00
O854   O     0.72670   0.69095   0.62960   0.00000  Uiso   1.00
O855   O     0.96182   0.77587   0.89928   0.00000  Uiso   1.00
O856   O     0.91334   0.82908   0.85950   0.00000  Uiso   1.00
O857   O     0.83333   0.81427   0.70929   0.00000  Uiso   1.00
O858   O     0.83334   0.68573   0.70928   0.00000  Uiso   1.00
O859   O     0.83333   0.81427   0.79072   0.00000  Uiso   1.00
O860   O     0.75828   0.74999   0.78132   0.00000  Uiso   1.00
O861   O     0.90839   0.75001   0.71868   0.00000  Uiso   1.00
O862   O     0.75828   0.75000   0.69989   0.00000  Uiso   1.00
O863   O     0.90839   0.75000   0.80012   0.00000  Uiso   1.00
O864   O     0.89639   0.61608   0.69297   0.00000  Uiso   1.00
loop_
_geom_bond_atom_site_label_1
_geom_bond_atom_site_label_2
_geom_bond_distance
_geom_bond_site_symmetry_2
_ccdc_geom_bond_type
C1     C14     1.453   .     S
C1     O66     1.294   .     A
C1     O59     1.293   .     A
C2     C4      1.397   .     A
C2     H40     1.083   .     S
C2     C31     1.407   .     A
C3     C23     1.414   .     A
C3     C32     1.399   .     A
C3     C436    1.516   1_554 S
C4     C27     1.413   .     A
C4     C435    1.516   .     S
C5     O68     1.286   .     A
C5     C7      1.435   .     S
C5     O70     1.294   .     A
C6     O69     1.286   .     A
C6     C8      1.435   .     S
C6     O71     1.293   .     A
C7     C152    1.339   1_455 S
C7     H179    1.087   1_455 S
C8     C79     1.339   .     S
C8     H118    1.087   .     S
C9     C11     1.387   .     A
C9     C20     1.403   .     A
C9     H50     1.083   .     S
C10    C21     1.400   .     A
C10    H51     1.083   .     S
C10    C13     1.388   .     A
C11    C14     1.399   .     A
C11    H52     1.084   .     S
C12    O65     1.299   .     A
C12    C15     1.470   .     S
C12    O67     1.298   .     A
C13    C15     1.405   .     A
C13    H53     1.083   .     S
C14    C16     1.407   .     A
C15    C17     1.414   .     A
C16    O72     1.383   .     S
C16    C18     1.396   .     A
C17    C19     1.395   .     A
C17    O60     1.382   .     S
C18    H54     1.083   .     S
C18    C20     1.404   .     A
C19    H55     1.083   .     S
C19    C21     1.401   .     A
C20    C237    1.469   1_545 S
C21    C236    1.469   .     S
C22    H43     1.113   .     S
C22    H42     1.109   .     S
C22    O72     1.410   .     S
C22    H41     1.114   .     S
C23    C28     1.411   .     A
C23    H56     1.081   .     S
C24    O60     1.410   .     S
C24    H45     1.114   .     S
C24    H44     1.109   .     S
C24    H47     1.113   .     S
C25    O61     1.223   .     D
C25    O62     1.396   .     S
C25    C30     1.470   .     S
C26    O63     1.223   .     D
C26    C31     1.472   .     S
C26    O64     1.395   .     S
C27    H36     1.082   .     S
C27    C29     1.412   .     A
C28    H37     1.081   .     S
C28    N57     1.365   .     A
C29    H38     1.081   .     S
C29    N58     1.367   .     A
C30    C32     1.407   .     A
C30    N57     1.380   .     A
C31    N58     1.383   .     A
C32    H39     1.083   .     S
Cu33   N58     2.017   .     S
Cu33   Cu34    2.685   .     S
Cu33   O59     1.954   .     S
Cu33   O67     1.960   .     S
Cu33   O71     1.956   .     S
Cu33   O68     1.950   .     S
Cu34   N57     2.017   .     S
Cu34   O70     1.956   .     S
Cu34   O66     1.960   .     S
Cu34   O69     1.950   .     S
Cu34   O65     1.954   .     S
H35    C79     1.087   .     S
H46    C152    1.087   1_455 S
H48    O62     1.014   .     S
H49    O64     1.014   .     S
C73    C86     1.453   .     S
C73    O138    1.294   .     A
C73    O131    1.293   .     A
C74    C76     1.397   .     A
C74    H112    1.083   .     S
C74    C103    1.407   .     A
C75    C95     1.414   .     A
C75    C104    1.399   .     A
C75    C508    1.516   1_554 S
C76    C99     1.413   .     A
C76    C507    1.516   .     S
C77    O140    1.286   .     A
C77    C79     1.435   .     S
C77    O142    1.294   .     A
C78    O141    1.286   .     A
C78    C80     1.435   .     S
C78    O143    1.293   .     A
C80    C151    1.339   .     S
C80    H190    1.087   .     S
C81    C83     1.387   .     A
C81    C92     1.403   .     A
C81    H122    1.083   .     S
C82    C93     1.400   .     A
C82    H123    1.083   .     S
C82    C85     1.388   .     A
C83    C86     1.399   .     A
C83    H124    1.084   .     S
C84    O137    1.299   .     A
C84    C87     1.470   .     S
C84    O139    1.298   .     A
C85    C87     1.405   .     A
C85    H125    1.083   .     S
C86    C88     1.407   .     A
C87    C89     1.414   .     A
C88    O144    1.383   .     S
C88    C90     1.396   .     A
C89    C91     1.395   .     A
C89    O132    1.382   .     S
C90    H126    1.083   .     S
C90    C92     1.404   .     A
C91    H127    1.083   .     S
C91    C93     1.401   .     A
C92    C309    1.469   1_545 S
C93    C308    1.469   .     S
C94    H115    1.113   .     S
C94    H114    1.109   .     S
C94    O144    1.410   .     S
C94    H113    1.114   .     S
C95    C100    1.411   .     A
C95    H128    1.081   .     S
C96    O132    1.410   .     S
C96    H117    1.114   .     S
C96    H116    1.109   .     S
C96    H119    1.113   .     S
C97    O133    1.223   .     D
C97    O134    1.396   .     S
C97    C102    1.470   .     S
C98    O135    1.223   .     D
C98    C103    1.472   .     S
C98    O136    1.395   .     S
C99    H108    1.082   .     S
C99    C101    1.412   .     A
C100   H109    1.081   .     S
C100   N129    1.365   .     A
C101   H110    1.081   .     S
C101   N130    1.367   .     A
C102   C104    1.407   .     A
C102   N129    1.380   .     A
C103   N130    1.383   .     A
C104   H111    1.083   .     S
Cu105  N130    2.017   .     S
Cu105  Cu106   2.685   .     S
Cu105  O131    1.954   .     S
Cu105  O139    1.960   .     S
Cu105  O143    1.956   .     S
Cu105  O140    1.950   .     S
Cu106  N129    2.017   .     S
Cu106  O142    1.956   .     S
Cu106  O138    1.960   .     S
Cu106  O141    1.950   .     S
Cu106  O137    1.954   .     S
H107   C151    1.087   .     S
H120   O134    1.014   .     S
H121   O136    1.014   .     S
C145   C158    1.453   .     S
C145   O210    1.294   .     A
C145   O203    1.293   .     A
C146   C148    1.397   .     A
C146   H184    1.083   .     S
C146   C175    1.407   .     A
C147   C167    1.414   .     A
C147   C176    1.399   .     A
C147   C580    1.516   1_554 S
C148   C171    1.413   .     A
C148   C579    1.516   .     S
C149   O212    1.286   .     A
C149   C151    1.435   .     S
C149   O214    1.294   .     A
C150   O213    1.286   .     A
C150   C152    1.435   .     S
C150   O215    1.293   .     A
C152   C7      1.339   1_655 S
C152   H46     1.087   1_655 S
C153   C155    1.387   .     A
C153   C164    1.403   .     A
C153   H194    1.083   .     S
C154   C165    1.400   .     A
C154   H195    1.083   .     S
C154   C157    1.388   .     A
C155   C158    1.399   .     A
C155   H196    1.084   .     S
C156   O209    1.299   .     A
C156   C159    1.470   .     S
C156   O211    1.298   .     A
C157   C159    1.405   .     A
C157   H197    1.083   .     S
C158   C160    1.407   .     A
C159   C161    1.414   .     A
C160   O216    1.383   .     S
C160   C162    1.396   .     A
C161   C163    1.395   .     A
C161   O204    1.382   .     S
C162   H198    1.083   .     S
C162   C164    1.404   .     A
C163   H199    1.083   .     S
C163   C165    1.401   .     A
C164   C381    1.469   1_545 S
C165   C380    1.469   .     S
C166   H187    1.113   .     S
C166   H186    1.109   .     S
C166   O216    1.410   .     S
C166   H185    1.114   .     S
C167   C172    1.411   .     A
C167   H200    1.081   .     S
C168   O204    1.410   .     S
C168   H189    1.114   .     S
C168   H188    1.109   .     S
C168   H191    1.113   .     S
C169   O205    1.223   .     D
C169   O206    1.396   .     S
C169   C174    1.470   .     S
C170   O207    1.223   .     D
C170   C175    1.472   .     S
C170   O208    1.395   .     S
C171   H180    1.082   .     S
C171   C173    1.412   .     A
C172   H181    1.081   .     S
C172   N201    1.365   .     A
C173   H182    1.081   .     S
C173   N202    1.367   .     A
C174   C176    1.407   .     A
C174   N201    1.380   .     A
C175   N202    1.383   .     A
C176   H183    1.083   .     S
Cu177  N202    2.017   .     S
Cu177  Cu178   2.685   .     S
Cu177  O203    1.954   .     S
Cu177  O211    1.960   .     S
Cu177  O215    1.956   .     S
Cu177  O212    1.950   .     S
Cu178  N201    2.017   .     S
Cu178  O214    1.956   .     S
Cu178  O210    1.960   .     S
Cu178  O213    1.950   .     S
Cu178  O209    1.954   .     S
H179   C7      1.087   1_655 S
H192   O206    1.014   .     S
H193   O208    1.014   .     S
C217   C230    1.453   .     S
C217   O282    1.294   .     A
C217   O275    1.293   .     A
C218   C220    1.397   .     A
C218   H256    1.083   .     S
C218   C247    1.407   .     A
C219   C239    1.414   .     A
C219   C248    1.399   .     A
C219   C652    1.516   1_554 S
C220   C243    1.413   .     A
C220   C651    1.516   .     S
C221   O284    1.286   .     A
C221   C223    1.435   .     S
C221   O286    1.294   .     A
C222   O285    1.286   .     A
C222   C224    1.435   .     S
C222   O287    1.293   .     A
C223   C368    1.339   1_455 S
C223   H395    1.087   1_455 S
C224   C295    1.339   .     S
C224   H334    1.087   .     S
C225   C227    1.387   .     A
C225   C236    1.403   .     A
C225   H266    1.083   .     S
C226   C237    1.400   .     A
C226   H267    1.083   .     S
C226   C229    1.388   .     A
C227   C230    1.399   .     A
C227   H268    1.084   .     S
C228   O281    1.299   .     A
C228   C231    1.470   .     S
C228   O283    1.298   .     A
C229   C231    1.405   .     A
C229   H269    1.083   .     S
C230   C232    1.407   .     A
C231   C233    1.414   .     A
C232   O288    1.383   .     S
C232   C234    1.396   .     A
C233   C235    1.395   .     A
C233   O276    1.382   .     S
C234   H270    1.083   .     S
C234   C236    1.404   .     A
C235   H271    1.083   .     S
C235   C237    1.401   .     A
C237   C20     1.469   1_565 S
C238   H259    1.113   .     S
C238   H258    1.109   .     S
C238   O288    1.410   .     S
C238   H257    1.114   .     S
C239   C244    1.411   .     A
C239   H272    1.081   .     S
C240   O276    1.410   .     S
C240   H261    1.114   .     S
C240   H260    1.109   .     S
C240   H263    1.113   .     S
C241   O277    1.223   .     D
C241   O278    1.396   .     S
C241   C246    1.470   .     S
C242   O279    1.223   .     D
C242   C247    1.472   .     S
C242   O280    1.395   .     S
C243   H252    1.082   .     S
C243   C245    1.412   .     A
C244   H253    1.081   .     S
C244   N273    1.365   .     A
C245   H254    1.081   .     S
C245   N274    1.367   .     A
C246   C248    1.407   .     A
C246   N273    1.380   .     A
C247   N274    1.383   .     A
C248   H255    1.083   .     S
Cu249  N274    2.017   .     S
Cu249  Cu250   2.685   .     S
Cu249  O275    1.954   .     S
Cu249  O283    1.960   .     S
Cu249  O287    1.956   .     S
Cu249  O284    1.950   .     S
Cu250  N273    2.017   .     S
Cu250  O286    1.956   .     S
Cu250  O282    1.960   .     S
Cu250  O285    1.950   .     S
Cu250  O281    1.954   .     S
H251   C295    1.087   .     S
H262   C368    1.087   1_455 S
H264   O278    1.014   .     S
H265   O280    1.014   .     S
C289   C302    1.453   .     S
C289   O354    1.294   .     A
C289   O347    1.293   .     A
C290   C292    1.397   .     A
C290   H328    1.083   .     S
C290   C319    1.407   .     A
C291   C311    1.414   .     A
C291   C320    1.399   .     A
C291   C724    1.516   1_554 S
C292   C315    1.413   .     A
C292   C723    1.516   .     S
C293   O356    1.286   .     A
C293   C295    1.435   .     S
C293   O358    1.294   .     A
C294   O357    1.286   .     A
C294   C296    1.435   .     S
C294   O359    1.293   .     A
C296   C367    1.339   .     S
C296   H406    1.087   .     S
C297   C299    1.387   .     A
C297   C308    1.403   .     A
C297   H338    1.083   .     S
C298   C309    1.400   .     A
C298   H339    1.083   .     S
C298   C301    1.388   .     A
C299   C302    1.399   .     A
C299   H340    1.084   .     S
C300   O353    1.299   .     A
C300   C303    1.470   .     S
C300   O355    1.298   .     A
C301   C303    1.405   .     A
C301   H341    1.083   .     S
C302   C304    1.407   .     A
C303   C305    1.414   .     A
C304   O360    1.383   .     S
C304   C306    1.396   .     A
C305   C307    1.395   .     A
C305   O348    1.382   .     S
C306   H342    1.083   .     S
C306   C308    1.404   .     A
C307   H343    1.083   .     S
C307   C309    1.401   .     A
C309   C92     1.469   1_565 S
C310   H331    1.113   .     S
C310   H330    1.109   .     S
C310   O360    1.410   .     S
C310   H329    1.114   .     S
C311   C316    1.411   .     A
C311   H344    1.081   .     S
C312   O348    1.410   .     S
C312   H333    1.114   .     S
C312   H332    1.109   .     S
C312   H335    1.113   .     S
C313   O349    1.223   .     D
C313   O350    1.396   .     S
C313   C318    1.470   .     S
C314   O351    1.223   .     D
C314   C319    1.472   .     S
C314   O352    1.395   .     S
C315   H324    1.082   .     S
C315   C317    1.412   .     A
C316   H325    1.081   .     S
C316   N345    1.365   .     A
C317   H326    1.081   .     S
C317   N346    1.367   .     A
C318   C320    1.407   .     A
C318   N345    1.380   .     A
C319   N346    1.383   .     A
C320   H327    1.083   .     S
Cu321  N346    2.017   .     S
Cu321  Cu322   2.685   .     S
Cu321  O347    1.954   .     S
Cu321  O355    1.960   .     S
Cu321  O359    1.956   .     S
Cu321  O356    1.950   .     S
Cu322  N345    2.017   .     S
Cu322  O358    1.956   .     S
Cu322  O354    1.960   .     S
Cu322  O357    1.950   .     S
Cu322  O353    1.954   .     S
H323   C367    1.087   .     S
H336   O350    1.014   .     S
H337   O352    1.014   .     S
C361   C374    1.453   .     S
C361   O426    1.294   .     A
C361   O419    1.293   .     A
C362   C364    1.397   .     A
C362   H400    1.083   .     S
C362   C391    1.407   .     A
C363   C383    1.414   .     A
C363   C392    1.399   .     A
C363   C796    1.516   1_554 S
C364   C387    1.413   .     A
C364   C795    1.516   .     S
C365   O428    1.286   .     A
C365   C367    1.435   .     S
C365   O430    1.294   .     A
C366   O429    1.286   .     A
C366   C368    1.435   .     S
C366   O431    1.293   .     A
C368   C223    1.339   1_655 S
C368   H262    1.087   1_655 S
C369   C371    1.387   .     A
C369   C380    1.403   .     A
C369   H410    1.083   .     S
C370   C381    1.400   .     A
C370   H411    1.083   .     S
C370   C373    1.388   .     A
C371   C374    1.399   .     A
C371   H412    1.084   .     S
C372   O425    1.299   .     A
C372   C375    1.470   .     S
C372   O427    1.298   .     A
C373   C375    1.405   .     A
C373   H413    1.083   .     S
C374   C376    1.407   .     A
C375   C377    1.414   .     A
C376   O432    1.383   .     S
C376   C378    1.396   .     A
C377   C379    1.395   .     A
C377   O420    1.382   .     S
C378   H414    1.083   .     S
C378   C380    1.404   .     A
C379   H415    1.083   .     S
C379   C381    1.401   .     A
C381   C164    1.469   1_565 S
C382   H403    1.113   .     S
C382   H402    1.109   .     S
C382   O432    1.410   .     S
C382   H401    1.114   .     S
C383   C388    1.411   .     A
C383   H416    1.081   .     S
C384   O420    1.410   .     S
C384   H405    1.114   .     S
C384   H404    1.109   .     S
C384   H407    1.113   .     S
C385   O421    1.223   .     D
C385   O422    1.396   .     S
C385   C390    1.470   .     S
C386   O423    1.223   .     D
C386   C391    1.472   .     S
C386   O424    1.395   .     S
C387   H396    1.082   .     S
C387   C389    1.412   .     A
C388   H397    1.081   .     S
C388   N417    1.365   .     A
C389   H398    1.081   .     S
C389   N418    1.367   .     A
C390   C392    1.407   .     A
C390   N417    1.380   .     A
C391   N418    1.383   .     A
C392   H399    1.083   .     S
Cu393  N418    2.017   .     S
Cu393  Cu394   2.685   .     S
Cu393  O419    1.954   .     S
Cu393  O427    1.960   .     S
Cu393  O431    1.956   .     S
Cu393  O428    1.950   .     S
Cu394  N417    2.017   .     S
Cu394  O430    1.956   .     S
Cu394  O426    1.960   .     S
Cu394  O429    1.950   .     S
Cu394  O425    1.954   .     S
H395   C223    1.087   1_655 S
H408   O422    1.014   .     S
H409   O424    1.014   .     S
C433   C446    1.453   .     S
C433   O498    1.294   .     A
C433   O491    1.293   .     A
C434   C436    1.397   .     A
C434   H472    1.083   .     S
C434   C463    1.407   .     A
C435   C455    1.414   .     A
C435   C464    1.399   .     A
C436   C459    1.413   .     A
C436   C3      1.516   1_556 S
C437   O500    1.286   .     A
C437   C439    1.435   .     S
C437   O502    1.294   .     A
C438   O501    1.286   .     A
C438   C440    1.435   .     S
C438   O503    1.293   .     A
C439   C584    1.339   1_455 S
C439   H611    1.087   1_455 S
C440   C511    1.339   .     S
C440   H550    1.087   .     S
C441   C443    1.387   .     A
C441   C452    1.403   .     A
C441   H482    1.083   .     S
C442   C453    1.400   .     A
C442   H483    1.083   .     S
C442   C445    1.388   .     A
C443   C446    1.399   .     A
C443   H484    1.084   .     S
C444   O497    1.299   .     A
C444   C447    1.470   .     S
C444   O499    1.298   .     A
C445   C447    1.405   .     A
C445   H485    1.083   .     S
C446   C448    1.407   .     A
C447   C449    1.414   .     A
C448   O504    1.383   .     S
C448   C450    1.396   .     A
C449   C451    1.395   .     A
C449   O492    1.382   .     S
C450   H486    1.083   .     S
C450   C452    1.404   .     A
C451   H487    1.083   .     S
C451   C453    1.401   .     A
C452   C669    1.469   1_545 S
C453   C668    1.469   .     S
C454   H475    1.113   .     S
C454   H474    1.109   .     S
C454   O504    1.410   .     S
C454   H473    1.114   .     S
C455   C460    1.411   .     A
C455   H488    1.081   .     S
C456   O492    1.410   .     S
C456   H477    1.114   .     S
C456   H476    1.109   .     S
C456   H479    1.113   .     S
C457   O493    1.223   .     D
C457   O494    1.396   .     S
C457   C462    1.470   .     S
C458   O495    1.223   .     D
C458   C463    1.472   .     S
C458   O496    1.395   .     S
C459   H468    1.082   .     S
C459   C461    1.412   .     A
C460   H469    1.081   .     S
C460   N489    1.365   .     A
C461   H470    1.081   .     S
C461   N490    1.367   .     A
C462   C464    1.407   .     A
C462   N489    1.380   .     A
C463   N490    1.383   .     A
C464   H471    1.083   .     S
Cu465  N490    2.017   .     S
Cu465  Cu466   2.685   .     S
Cu465  O491    1.954   .     S
Cu465  O499    1.960   .     S
Cu465  O503    1.956   .     S
Cu465  O500    1.950   .     S
Cu466  N489    2.017   .     S
Cu466  O502    1.956   .     S
Cu466  O498    1.960   .     S
Cu466  O501    1.950   .     S
Cu466  O497    1.954   .     S
H467   C511    1.087   .     S
H478   C584    1.087   1_455 S
H480   O494    1.014   .     S
H481   O496    1.014   .     S
C505   C518    1.453   .     S
C505   O570    1.294   .     A
C505   O563    1.293   .     A
C506   C508    1.397   .     A
C506   H544    1.083   .     S
C506   C535    1.407   .     A
C507   C527    1.414   .     A
C507   C536    1.399   .     A
C508   C531    1.413   .     A
C508   C75     1.516   1_556 S
C509   O572    1.286   .     A
C509   C511    1.435   .     S
C509   O574    1.294   .     A
C510   O573    1.286   .     A
C510   C512    1.435   .     S
C510   O575    1.293   .     A
C512   C583    1.339   .     S
C512   H622    1.087   .     S
C513   C515    1.387   .     A
C513   C524    1.403   .     A
C513   H554    1.083   .     S
C514   C525    1.400   .     A
C514   H555    1.083   .     S
C514   C517    1.388   .     A
C515   C518    1.399   .     A
C515   H556    1.084   .     S
C516   O569    1.299   .     A
C516   C519    1.470   .     S
C516   O571    1.298   .     A
C517   C519    1.405   .     A
C517   H557    1.083   .     S
C518   C520    1.407   .     A
C519   C521    1.414   .     A
C520   O576    1.383   .     S
C520   C522    1.396   .     A
C521   C523    1.395   .     A
C521   O564    1.382   .     S
C522   H558    1.083   .     S
C522   C524    1.404   .     A
C523   H559    1.083   .     S
C523   C525    1.401   .     A
C524   C741    1.469   1_545 S
C525   C740    1.469   .     S
C526   H547    1.113   .     S
C526   H546    1.109   .     S
C526   O576    1.410   .     S
C526   H545    1.114   .     S
C527   C532    1.411   .     A
C527   H560    1.081   .     S
C528   O564    1.410   .     S
C528   H549    1.114   .     S
C528   H548    1.109   .     S
C528   H551    1.113   .     S
C529   O565    1.223   .     D
C529   O566    1.396   .     S
C529   C534    1.470   .     S
C530   O567    1.223   .     D
C530   C535    1.472   .     S
C530   O568    1.395   .     S
C531   H540    1.082   .     S
C531   C533    1.412   .     A
C532   H541    1.081   .     S
C532   N561    1.365   .     A
C533   H542    1.081   .     S
C533   N562    1.367   .     A
C534   C536    1.407   .     A
C534   N561    1.380   .     A
C535   N562    1.383   .     A
C536   H543    1.083   .     S
Cu537  N562    2.017   .     S
Cu537  Cu538   2.685   .     S
Cu537  O563    1.954   .     S
Cu537  O571    1.960   .     S
Cu537  O575    1.956   .     S
Cu537  O572    1.950   .     S
Cu538  N561    2.017   .     S
Cu538  O574    1.956   .     S
Cu538  O570    1.960   .     S
Cu538  O573    1.950   .     S
Cu538  O569    1.954   .     S
H539   C583    1.087   .     S
H552   O566    1.014   .     S
H553   O568    1.014   .     S
C577   C590    1.453   .     S
C577   O642    1.294   .     A
C577   O635    1.293   .     A
C578   C580    1.397   .     A
C578   H616    1.083   .     S
C578   C607    1.407   .     A
C579   C599    1.414   .     A
C579   C608    1.399   .     A
C580   C603    1.413   .     A
C580   C147    1.516   1_556 S
C581   O644    1.286   .     A
C581   C583    1.435   .     S
C581   O646    1.294   .     A
C582   O645    1.286   .     A
C582   C584    1.435   .     S
C582   O647    1.293   .     A
C584   C439    1.339   1_655 S
C584   H478    1.087   1_655 S
C585   C587    1.387   .     A
C585   C596    1.403   .     A
C585   H626    1.083   .     S
C586   C597    1.400   .     A
C586   H627    1.083   .     S
C586   C589    1.388   .     A
C587   C590    1.399   .     A
C587   H628    1.084   .     S
C588   O641    1.299   .     A
C588   C591    1.470   .     S
C588   O643    1.298   .     A
C589   C591    1.405   .     A
C589   H629    1.083   .     S
C590   C592    1.407   .     A
C591   C593    1.414   .     A
C592   O648    1.383   .     S
C592   C594    1.396   .     A
C593   C595    1.395   .     A
C593   O636    1.382   .     S
C594   H630    1.083   .     S
C594   C596    1.404   .     A
C595   H631    1.083   .     S
C595   C597    1.401   .     A
C596   C813    1.469   1_545 S
C597   C812    1.469   .     S
C598   H619    1.113   .     S
C598   H618    1.109   .     S
C598   O648    1.410   .     S
C598   H617    1.114   .     S
C599   C604    1.411   .     A
C599   H632    1.081   .     S
C600   O636    1.410   .     S
C600   H621    1.114   .     S
C600   H620    1.109   .     S
C600   H623    1.113   .     S
C601   O637    1.223   .     D
C601   O638    1.396   .     S
C601   C606    1.470   .     S
C602   O639    1.223   .     D
C602   C607    1.472   .     S
C602   O640    1.395   .     S
C603   H612    1.082   .     S
C603   C605    1.412   .     A
C604   H613    1.081   .     S
C604   N633    1.365   .     A
C605   H614    1.081   .     S
C605   N634    1.367   .     A
C606   C608    1.407   .     A
C606   N633    1.380   .     A
C607   N634    1.383   .     A
C608   H615    1.083   .     S
Cu609  N634    2.017   .     S
Cu609  Cu610   2.685   .     S
Cu609  O635    1.954   .     S
Cu609  O643    1.960   .     S
Cu609  O647    1.956   .     S
Cu609  O644    1.950   .     S
Cu610  N633    2.017   .     S
Cu610  O646    1.956   .     S
Cu610  O642    1.960   .     S
Cu610  O645    1.950   .     S
Cu610  O641    1.954   .     S
H611   C439    1.087   1_655 S
H624   O638    1.014   .     S
H625   O640    1.014   .     S
C649   C662    1.453   .     S
C649   O714    1.294   .     A
C649   O707    1.293   .     A
C650   C652    1.397   .     A
C650   H688    1.083   .     S
C650   C679    1.407   .     A
C651   C671    1.414   .     A
C651   C680    1.399   .     A
C652   C675    1.413   .     A
C652   C219    1.516   1_556 S
C653   O716    1.286   .     A
C653   C655    1.435   .     S
C653   O718    1.294   .     A
C654   O717    1.286   .     A
C654   C656    1.435   .     S
C654   O719    1.293   .     A
C655   C800    1.339   1_455 S
C655   H827    1.087   1_455 S
C656   C727    1.339   .     S
C656   H766    1.087   .     S
C657   C659    1.387   .     A
C657   C668    1.403   .     A
C657   H698    1.083   .     S
C658   C669    1.400   .     A
C658   H699    1.083   .     S
C658   C661    1.388   .     A
C659   C662    1.399   .     A
C659   H700    1.084   .     S
C660   O713    1.299   .     A
C660   C663    1.470   .     S
C660   O715    1.298   .     A
C661   C663    1.405   .     A
C661   H701    1.083   .     S
C662   C664    1.407   .     A
C663   C665    1.414   .     A
C664   O720    1.383   .     S
C664   C666    1.396   .     A
C665   C667    1.395   .     A
C665   O708    1.382   .     S
C666   H702    1.083   .     S
C666   C668    1.404   .     A
C667   H703    1.083   .     S
C667   C669    1.401   .     A
C669   C452    1.469   1_565 S
C670   H691    1.113   .     S
C670   H690    1.109   .     S
C670   O720    1.410   .     S
C670   H689    1.114   .     S
C671   C676    1.411   .     A
C671   H704    1.081   .     S
C672   O708    1.410   .     S
C672   H693    1.114   .     S
C672   H692    1.109   .     S
C672   H695    1.113   .     S
C673   O709    1.223   .     D
C673   O710    1.396   .     S
C673   C678    1.470   .     S
C674   O711    1.223   .     D
C674   C679    1.472   .     S
C674   O712    1.395   .     S
C675   H684    1.082   .     S
C675   C677    1.412   .     A
C676   H685    1.081   .     S
C676   N705    1.365   .     A
C677   H686    1.081   .     S
C677   N706    1.367   .     A
C678   C680    1.407   .     A
C678   N705    1.380   .     A
C679   N706    1.383   .     A
C680   H687    1.083   .     S
Cu681  N706    2.017   .     S
Cu681  Cu682   2.685   .     S
Cu681  O707    1.954   .     S
Cu681  O715    1.960   .     S
Cu681  O719    1.956   .     S
Cu681  O716    1.950   .     S
Cu682  N705    2.017   .     S
Cu682  O718    1.956   .     S
Cu682  O714    1.960   .     S
Cu682  O717    1.950   .     S
Cu682  O713    1.954   .     S
H683   C727    1.087   .     S
H694   C800    1.087   1_455 S
H696   O710    1.014   .     S
H697   O712    1.014   .     S
C721   C734    1.453   .     S
C721   O786    1.294   .     A
C721   O779    1.293   .     A
C722   C724    1.397   .     A
C722   H760    1.083   .     S
C722   C751    1.407   .     A
C723   C743    1.414   .     A
C723   C752    1.399   .     A
C724   C747    1.413   .     A
C724   C291    1.516   1_556 S
C725   O788    1.286   .     A
C725   C727    1.435   .     S
C725   O790    1.294   .     A
C726   O789    1.286   .     A
C726   C728    1.435   .     S
C726   O791    1.293   .     A
C728   C799    1.339   .     S
C728   H838    1.087   .     S
C729   C731    1.387   .     A
C729   C740    1.403   .     A
C729   H770    1.083   .     S
C730   C741    1.400   .     A
C730   H771    1.083   .     S
C730   C733    1.388   .     A
C731   C734    1.399   .     A
C731   H772    1.084   .     S
C732   O785    1.299   .     A
C732   C735    1.470   .     S
C732   O787    1.298   .     A
C733   C735    1.405   .     A
C733   H773    1.083   .     S
C734   C736    1.407   .     A
C735   C737    1.414   .     A
C736   O792    1.383   .     S
C736   C738    1.396   .     A
C737   C739    1.395   .     A
C737   O780    1.382   .     S
C738   H774    1.083   .     S
C738   C740    1.404   .     A
C739   H775    1.083   .     S
C739   C741    1.401   .     A
C741   C524    1.469   1_565 S
C742   H763    1.113   .     S
C742   H762    1.109   .     S
C742   O792    1.410   .     S
C742   H761    1.114   .     S
C743   C748    1.411   .     A
C743   H776    1.081   .     S
C744   O780    1.410   .     S
C744   H765    1.114   .     S
C744   H764    1.109   .     S
C744   H767    1.113   .     S
C745   O781    1.223   .     D
C745   O782    1.396   .     S
C745   C750    1.470   .     S
C746   O783    1.223   .     D
C746   C751    1.472   .     S
C746   O784    1.395   .     S
C747   H756    1.082   .     S
C747   C749    1.412   .     A
C748   H757    1.081   .     S
C748   N777    1.365   .     A
C749   H758    1.081   .     S
C749   N778    1.367   .     A
C750   C752    1.407   .     A
C750   N777    1.380   .     A
C751   N778    1.383   .     A
C752   H759    1.083   .     S
Cu753  N778    2.017   .     S
Cu753  Cu754   2.685   .     S
Cu753  O779    1.954   .     S
Cu753  O787    1.960   .     S
Cu753  O791    1.956   .     S
Cu753  O788    1.950   .     S
Cu754  N777    2.017   .     S
Cu754  O790    1.956   .     S
Cu754  O786    1.960   .     S
Cu754  O789    1.950   .     S
Cu754  O785    1.954   .     S
H755   C799    1.087   .     S
H768   O782    1.014   .     S
H769   O784    1.014   .     S
C793   C806    1.453   .     S
C793   O858    1.294   .     A
C793   O851    1.293   .     A
C794   C796    1.397   .     A
C794   H832    1.083   .     S
C794   C823    1.407   .     A
C795   C815    1.414   .     A
C795   C824    1.399   .     A
C796   C819    1.413   .     A
C796   C363    1.516   1_556 S
C797   O860    1.286   .     A
C797   C799    1.435   .     S
C797   O862    1.294   .     A
C798   O861    1.286   .     A
C798   C800    1.435   .     S
C798   O863    1.293   .     A
C800   C655    1.339   1_655 S
C800   H694    1.087   1_655 S
C801   C803    1.387   .     A
C801   C812    1.403   .     A
C801   H842    1.083   .     S
C802   C813    1.400   .     A
C802   H843    1.083   .     S
C802   C805    1.388   .     A
C803   C806    1.399   .     A
C803   H844    1.084   .     S
C804   O857    1.299   .     A
C804   C807    1.470   .     S
C804   O859    1.298   .     A
C805   C807    1.405   .     A
C805   H845    1.083   .     S
C806   C808    1.407   .     A
C807   C809    1.414   .     A
C808   O864    1.383   .     S
C808   C810    1.396   .     A
C809   C811    1.395   .     A
C809   O852    1.382   .     S
C810   H846    1.083   .     S
C810   C812    1.404   .     A
C811   H847    1.083   .     S
C811   C813    1.401   .     A
C813   C596    1.469   1_565 S
C814   H835    1.113   .     S
C814   H834    1.109   .     S
C814   O864    1.410   .     S
C814   H833    1.114   .     S
C815   C820    1.411   .     A
C815   H848    1.081   .     S
C816   O852    1.410   .     S
C816   H837    1.114   .     S
C816   H836    1.109   .     S
C816   H839    1.113   .     S
C817   O853    1.223   .     D
C817   O854    1.396   .     S
C817   C822    1.470   .     S
C818   O855    1.223   .     D
C818   C823    1.472   .     S
C818   O856    1.395   .     S
C819   H828    1.082   .     S
C819   C821    1.412   .     A
C820   H829    1.081   .     S
C820   N849    1.365   .     A
C821   H830    1.081   .     S
C821   N850    1.367   .     A
C822   C824    1.407   .     A
C822   N849    1.380   .     A
C823   N850    1.383   .     A
C824   H831    1.083   .     S
Cu825  N850    2.017   .     S
Cu825  Cu826   2.685   .     S
Cu825  O851    1.954   .     S
Cu825  O859    1.960   .     S
Cu825  O863    1.956   .     S
Cu825  O860    1.950   .     S
Cu826  N849    2.017   .     S
Cu826  O862    1.956   .     S
Cu826  O858    1.960   .     S
Cu826  O861    1.950   .     S
Cu826  O857    1.954   .     S
H827   C655    1.087   1_655 S
H840   O854    1.014   .     S
H841   O856    1.014   .     S
