data_str_m3_o10_o17_pcu_sym.76
_audit_creation_date              2020-01-03
_audit_creation_method            'Materials Studio'
_symmetry_space_group_name_H-M    'P1'
_symmetry_Int_Tables_number       1
_symmetry_cell_setting            triclinic
loop_
_symmetry_equiv_pos_as_xyz
  x,y,z
_cell_length_a                    23.3939
_cell_length_b                    25.8624
_cell_length_c                    29.8621
_cell_angle_alpha                 91.9459
_cell_angle_beta                  85.6493
_cell_angle_gamma                 92.8802
loop_
_atom_site_label
_atom_site_type_symbol
_atom_site_fract_x
_atom_site_fract_y
_atom_site_fract_z
_atom_site_U_iso_or_equiv
_atom_site_adp_type
_atom_site_occupancy
C1     C     0.18134   0.26457   0.24889   0.00000  Uiso   1.00
C2     C     0.18470   0.21184   0.40629   0.00000  Uiso   1.00
C3     C     0.16493   0.16710   0.11629   0.00000  Uiso   1.00
C4     C     0.16840   0.16624   0.38371   0.00000  Uiso   1.00
C5     C     0.18184   0.21261   0.09444   0.00000  Uiso   1.00
C6     C     0.15150   0.12073   0.40556   0.00000  Uiso   1.00
C7     C     0.18748   0.21174   0.04725   0.00000  Uiso   1.00
C8     C     0.14585   0.12160   0.45275   0.00000  Uiso   1.00
C9     C     0.16622   0.16681   0.02356   0.00000  Uiso   1.00
C10    C     0.16711   0.16652   0.47644   0.00000  Uiso   1.00
C11    C     0.14415   0.12214   0.04711   0.00000  Uiso   1.00
C12    C     0.15199   0.06876   0.25111   0.00000  Uiso   1.00
C13    C     0.18918   0.21119   0.45289   0.00000  Uiso   1.00
C14    C     0.21471   0.25352   0.02323   0.00000  Uiso   1.00
C15    C     0.11862   0.07981   0.47677   0.00000  Uiso   1.00
C16    C     0.21566   0.25318   0.47631   0.00000  Uiso   1.00
C17    C     0.11767   0.08016   0.02369   0.00000  Uiso   1.00
C18    C     0.18837   0.31824   0.25468   0.00000  Uiso   1.00
C19    C     0.14497   0.01509   0.24532   0.00000  Uiso   1.00
C20    C     0.16723   0.16657   0.33620   0.00000  Uiso   1.00
C21    C     0.16610   0.16676   0.16380   0.00000  Uiso   1.00
C22    C     0.14863   0.12149   0.09371   0.00000  Uiso   1.00
Cl23   Cl    0.13892   0.06407   0.12530   0.00000  Uiso   1.00
Cl24   Cl    0.19441   0.26926   0.37469   0.00000  Uiso   1.00
Cl25   Cl    0.19249   0.26979   0.12834   0.00000  Uiso   1.00
Cl26   Cl    0.14084   0.06354   0.37166   0.00000  Uiso   1.00
H27    H     0.28836   0.29578   0.03524   0.00000  Uiso   1.00
H28    H     0.26852   0.02150   0.25235   0.00000  Uiso   1.00
H29    H     0.10404   0.30614   0.19634   0.00000  Uiso   1.00
H30    H     0.06482   0.31183   0.24765   0.00000  Uiso   1.00
H31    H     0.33131   0.13435   0.17383   0.00000  Uiso   1.00
H32    H     0.32896   0.08459   0.20863   0.00000  Uiso   1.00
H33    H     0.00203   0.19899   0.32617   0.00000  Uiso   1.00
H34    H     0.00437   0.24874   0.29137   0.00000  Uiso   1.00
H35    H     0.22764   0.33030   0.03923   0.00000  Uiso   1.00
H36    H     0.04497   0.03756   0.46476   0.00000  Uiso   1.00
H37    H     0.10569   0.00304   0.46077   0.00000  Uiso   1.00
H38    H     0.29025   0.29461   0.45920   0.00000  Uiso   1.00
H39    H     0.22992   0.32963   0.46247   0.00000  Uiso   1.00
H40    H     0.04308   0.03873   0.04080   0.00000  Uiso   1.00
H41    H     0.10341   0.00371   0.03753   0.00000  Uiso   1.00
H42    H     0.22929   0.02719   0.30366   0.00000  Uiso   1.00
N43    N     0.31678   0.15265   0.23783   0.00000  Uiso   1.00
N44    N     0.32205   0.21057   0.29560   0.00000  Uiso   1.00
N45    N     0.01656   0.18068   0.26217   0.00000  Uiso   1.00
N46    N     0.24480   0.29511   0.04607   0.00000  Uiso   1.00
N47    N     0.08852   0.03823   0.45393   0.00000  Uiso   1.00
N48    N     0.24705   0.29415   0.45242   0.00000  Uiso   1.00
N49    N     0.08627   0.03919   0.04758   0.00000  Uiso   1.00
N50    N     0.23953   0.00309   0.27570   0.00000  Uiso   1.00
N51    N     0.09380   0.33024   0.22430   0.00000  Uiso   1.00
N52    N     0.01128   0.12276   0.20440   0.00000  Uiso   1.00
O53    O     0.12975   0.24619   0.25299   0.00000  Uiso   1.00
O54    O     0.20358   0.08714   0.24702   0.00000  Uiso   1.00
O55    O     0.22613   0.23721   0.24519   0.00000  Uiso   1.00
O56    O     0.10720   0.09613   0.25481   0.00000  Uiso   1.00
O57    O     0.11847   0.17117   0.31998   0.00000  Uiso   1.00
O58    O     0.21486   0.16216   0.18003   0.00000  Uiso   1.00
O59    O     0.21485   0.16219   0.31218   0.00000  Uiso   1.00
O60    O     0.11848   0.17115   0.18783   0.00000  Uiso   1.00
Zn61   Zn    0.10231   0.17266   0.25521   0.00000  Uiso   1.00
Zn62   Zn    0.23102   0.16067   0.24479   0.00000  Uiso   1.00
C63    C     0.51467   0.26457   0.24889   0.00000  Uiso   1.00
C64    C     0.51803   0.21184   0.40629   0.00000  Uiso   1.00
C65    C     0.49827   0.16710   0.11629   0.00000  Uiso   1.00
C66    C     0.50173   0.16624   0.38371   0.00000  Uiso   1.00
C67    C     0.51517   0.21261   0.09444   0.00000  Uiso   1.00
C68    C     0.48483   0.12073   0.40556   0.00000  Uiso   1.00
C69    C     0.52081   0.21174   0.04725   0.00000  Uiso   1.00
C70    C     0.47918   0.12160   0.45275   0.00000  Uiso   1.00
C71    C     0.49956   0.16681   0.02356   0.00000  Uiso   1.00
C72    C     0.50044   0.16652   0.47644   0.00000  Uiso   1.00
C73    C     0.47749   0.12214   0.04711   0.00000  Uiso   1.00
C74    C     0.48533   0.06876   0.25111   0.00000  Uiso   1.00
C75    C     0.52251   0.21119   0.45289   0.00000  Uiso   1.00
C76    C     0.54804   0.25352   0.02323   0.00000  Uiso   1.00
C77    C     0.45195   0.07981   0.47677   0.00000  Uiso   1.00
C78    C     0.54899   0.25318   0.47631   0.00000  Uiso   1.00
C79    C     0.45100   0.08016   0.02369   0.00000  Uiso   1.00
C80    C     0.52170   0.31824   0.25468   0.00000  Uiso   1.00
C81    C     0.47830   0.01509   0.24532   0.00000  Uiso   1.00
C82    C     0.50057   0.16657   0.33620   0.00000  Uiso   1.00
C83    C     0.49943   0.16676   0.16380   0.00000  Uiso   1.00
C84    C     0.48197   0.12149   0.09371   0.00000  Uiso   1.00
Cl85   Cl    0.47226   0.06407   0.12530   0.00000  Uiso   1.00
Cl86   Cl    0.52774   0.26926   0.37469   0.00000  Uiso   1.00
Cl87   Cl    0.52583   0.26979   0.12834   0.00000  Uiso   1.00
Cl88   Cl    0.47418   0.06354   0.37166   0.00000  Uiso   1.00
H89    H     0.62169   0.29578   0.03524   0.00000  Uiso   1.00
H90    H     0.60185   0.02150   0.25235   0.00000  Uiso   1.00
H91    H     0.43737   0.30614   0.19634   0.00000  Uiso   1.00
H92    H     0.39815   0.31183   0.24765   0.00000  Uiso   1.00
H93    H     0.66464   0.13435   0.17383   0.00000  Uiso   1.00
H94    H     0.66229   0.08459   0.20863   0.00000  Uiso   1.00
H95    H     0.33536   0.19899   0.32617   0.00000  Uiso   1.00
H96    H     0.33770   0.24874   0.29137   0.00000  Uiso   1.00
H97    H     0.56097   0.33030   0.03923   0.00000  Uiso   1.00
H98    H     0.37830   0.03756   0.46476   0.00000  Uiso   1.00
H99    H     0.43902   0.00304   0.46077   0.00000  Uiso   1.00
H100   H     0.62358   0.29461   0.45920   0.00000  Uiso   1.00
H101   H     0.56325   0.32963   0.46247   0.00000  Uiso   1.00
H102   H     0.37641   0.03873   0.04080   0.00000  Uiso   1.00
H103   H     0.43674   0.00371   0.03753   0.00000  Uiso   1.00
H104   H     0.56263   0.02719   0.30366   0.00000  Uiso   1.00
N105   N     0.65011   0.15265   0.23783   0.00000  Uiso   1.00
N106   N     0.65539   0.21057   0.29560   0.00000  Uiso   1.00
N107   N     0.34989   0.18068   0.26217   0.00000  Uiso   1.00
N108   N     0.57813   0.29511   0.04607   0.00000  Uiso   1.00
N109   N     0.42186   0.03823   0.45393   0.00000  Uiso   1.00
N110   N     0.58039   0.29415   0.45242   0.00000  Uiso   1.00
N111   N     0.41961   0.03919   0.04758   0.00000  Uiso   1.00
N112   N     0.57287   0.00309   0.27570   0.00000  Uiso   1.00
N113   N     0.42713   0.33024   0.22430   0.00000  Uiso   1.00
N114   N     0.34461   0.12276   0.20440   0.00000  Uiso   1.00
O115   O     0.46308   0.24619   0.25299   0.00000  Uiso   1.00
O116   O     0.53692   0.08714   0.24702   0.00000  Uiso   1.00
O117   O     0.55946   0.23721   0.24519   0.00000  Uiso   1.00
O118   O     0.44054   0.09613   0.25481   0.00000  Uiso   1.00
O119   O     0.45181   0.17117   0.31998   0.00000  Uiso   1.00
O120   O     0.54819   0.16216   0.18003   0.00000  Uiso   1.00
O121   O     0.54819   0.16219   0.31218   0.00000  Uiso   1.00
O122   O     0.45181   0.17115   0.18783   0.00000  Uiso   1.00
Zn123  Zn    0.43565   0.17266   0.25521   0.00000  Uiso   1.00
Zn124  Zn    0.56435   0.16067   0.24479   0.00000  Uiso   1.00
C125   C     0.84801   0.26457   0.24889   0.00000  Uiso   1.00
C126   C     0.85137   0.21184   0.40629   0.00000  Uiso   1.00
C127   C     0.83160   0.16710   0.11629   0.00000  Uiso   1.00
C128   C     0.83507   0.16624   0.38371   0.00000  Uiso   1.00
C129   C     0.84850   0.21261   0.09444   0.00000  Uiso   1.00
C130   C     0.81816   0.12073   0.40556   0.00000  Uiso   1.00
C131   C     0.85415   0.21174   0.04725   0.00000  Uiso   1.00
C132   C     0.81252   0.12160   0.45275   0.00000  Uiso   1.00
C133   C     0.83289   0.16681   0.02356   0.00000  Uiso   1.00
C134   C     0.83377   0.16652   0.47644   0.00000  Uiso   1.00
C135   C     0.81082   0.12214   0.04711   0.00000  Uiso   1.00
C136   C     0.81866   0.06876   0.25111   0.00000  Uiso   1.00
C137   C     0.85584   0.21119   0.45289   0.00000  Uiso   1.00
C138   C     0.88138   0.25352   0.02323   0.00000  Uiso   1.00
C139   C     0.78528   0.07981   0.47677   0.00000  Uiso   1.00
C140   C     0.88232   0.25318   0.47631   0.00000  Uiso   1.00
C141   C     0.78434   0.08016   0.02369   0.00000  Uiso   1.00
C142   C     0.85503   0.31824   0.25468   0.00000  Uiso   1.00
C143   C     0.81163   0.01509   0.24532   0.00000  Uiso   1.00
C144   C     0.83390   0.16657   0.33620   0.00000  Uiso   1.00
C145   C     0.83277   0.16676   0.16380   0.00000  Uiso   1.00
C146   C     0.81530   0.12149   0.09371   0.00000  Uiso   1.00
Cl147  Cl    0.80559   0.06407   0.12530   0.00000  Uiso   1.00
Cl148  Cl    0.86108   0.26926   0.37469   0.00000  Uiso   1.00
Cl149  Cl    0.85916   0.26979   0.12834   0.00000  Uiso   1.00
Cl150  Cl    0.80751   0.06354   0.37166   0.00000  Uiso   1.00
H151   H     0.95503   0.29578   0.03524   0.00000  Uiso   1.00
H152   H     0.93518   0.02150   0.25235   0.00000  Uiso   1.00
H153   H     0.77071   0.30614   0.19634   0.00000  Uiso   1.00
H154   H     0.73148   0.31183   0.24765   0.00000  Uiso   1.00
H155   H     0.99798   0.13435   0.17383   0.00000  Uiso   1.00
H156   H     0.99563   0.08459   0.20863   0.00000  Uiso   1.00
H157   H     0.66870   0.19899   0.32617   0.00000  Uiso   1.00
H158   H     0.67104   0.24874   0.29137   0.00000  Uiso   1.00
H159   H     0.89430   0.33030   0.03923   0.00000  Uiso   1.00
H160   H     0.71163   0.03756   0.46476   0.00000  Uiso   1.00
H161   H     0.77235   0.00304   0.46077   0.00000  Uiso   1.00
H162   H     0.95691   0.29461   0.45920   0.00000  Uiso   1.00
H163   H     0.89658   0.32963   0.46247   0.00000  Uiso   1.00
H164   H     0.70975   0.03873   0.04080   0.00000  Uiso   1.00
H165   H     0.77007   0.00371   0.03753   0.00000  Uiso   1.00
H166   H     0.89596   0.02719   0.30366   0.00000  Uiso   1.00
N167   N     0.98344   0.15265   0.23783   0.00000  Uiso   1.00
N168   N     0.98872   0.21057   0.29560   0.00000  Uiso   1.00
N169   N     0.68322   0.18068   0.26217   0.00000  Uiso   1.00
N170   N     0.91147   0.29511   0.04607   0.00000  Uiso   1.00
N171   N     0.75519   0.03823   0.45393   0.00000  Uiso   1.00
N172   N     0.91372   0.29415   0.45242   0.00000  Uiso   1.00
N173   N     0.75294   0.03919   0.04758   0.00000  Uiso   1.00
N174   N     0.90620   0.00309   0.27570   0.00000  Uiso   1.00
N175   N     0.76047   0.33024   0.22430   0.00000  Uiso   1.00
N176   N     0.67795   0.12276   0.20440   0.00000  Uiso   1.00
O177   O     0.79642   0.24619   0.25299   0.00000  Uiso   1.00
O178   O     0.87025   0.08714   0.24702   0.00000  Uiso   1.00
O179   O     0.89280   0.23721   0.24519   0.00000  Uiso   1.00
O180   O     0.77387   0.09613   0.25481   0.00000  Uiso   1.00
O181   O     0.78514   0.17117   0.31998   0.00000  Uiso   1.00
O182   O     0.88153   0.16216   0.18003   0.00000  Uiso   1.00
O183   O     0.88152   0.16219   0.31218   0.00000  Uiso   1.00
O184   O     0.78515   0.17115   0.18783   0.00000  Uiso   1.00
Zn185  Zn    0.76898   0.17266   0.25521   0.00000  Uiso   1.00
Zn186  Zn    0.89769   0.16067   0.24479   0.00000  Uiso   1.00
C187   C     0.18134   0.59791   0.24889   0.00000  Uiso   1.00
C188   C     0.18470   0.54518   0.40629   0.00000  Uiso   1.00
C189   C     0.16493   0.50043   0.11629   0.00000  Uiso   1.00
C190   C     0.16840   0.49957   0.38371   0.00000  Uiso   1.00
C191   C     0.18184   0.54594   0.09444   0.00000  Uiso   1.00
C192   C     0.15150   0.45406   0.40556   0.00000  Uiso   1.00
C193   C     0.18748   0.54507   0.04725   0.00000  Uiso   1.00
C194   C     0.14585   0.45493   0.45275   0.00000  Uiso   1.00
C195   C     0.16622   0.50015   0.02356   0.00000  Uiso   1.00
C196   C     0.16711   0.49986   0.47644   0.00000  Uiso   1.00
C197   C     0.14415   0.45548   0.04711   0.00000  Uiso   1.00
C198   C     0.15199   0.40209   0.25111   0.00000  Uiso   1.00
C199   C     0.18918   0.54453   0.45289   0.00000  Uiso   1.00
C200   C     0.21471   0.58686   0.02323   0.00000  Uiso   1.00
C201   C     0.11862   0.41315   0.47677   0.00000  Uiso   1.00
C202   C     0.21566   0.58651   0.47631   0.00000  Uiso   1.00
C203   C     0.11767   0.41349   0.02369   0.00000  Uiso   1.00
C204   C     0.18837   0.65157   0.25468   0.00000  Uiso   1.00
C205   C     0.14497   0.34843   0.24532   0.00000  Uiso   1.00
C206   C     0.16723   0.49990   0.33620   0.00000  Uiso   1.00
C207   C     0.16610   0.50010   0.16380   0.00000  Uiso   1.00
C208   C     0.14863   0.45483   0.09371   0.00000  Uiso   1.00
Cl209  Cl    0.13892   0.39741   0.12530   0.00000  Uiso   1.00
Cl210  Cl    0.19441   0.60259   0.37469   0.00000  Uiso   1.00
Cl211  Cl    0.19249   0.60312   0.12834   0.00000  Uiso   1.00
Cl212  Cl    0.14084   0.39688   0.37166   0.00000  Uiso   1.00
H213   H     0.28836   0.62911   0.03524   0.00000  Uiso   1.00
H214   H     0.26852   0.35484   0.25235   0.00000  Uiso   1.00
H215   H     0.10404   0.63948   0.19634   0.00000  Uiso   1.00
H216   H     0.06482   0.64516   0.24765   0.00000  Uiso   1.00
H217   H     0.33131   0.46768   0.17383   0.00000  Uiso   1.00
H218   H     0.32896   0.41792   0.20863   0.00000  Uiso   1.00
H219   H     0.00203   0.53232   0.32617   0.00000  Uiso   1.00
H220   H     0.00437   0.58208   0.29137   0.00000  Uiso   1.00
H221   H     0.22764   0.66363   0.03923   0.00000  Uiso   1.00
H222   H     0.04497   0.37089   0.46476   0.00000  Uiso   1.00
H223   H     0.10569   0.33637   0.46077   0.00000  Uiso   1.00
H224   H     0.29025   0.62795   0.45920   0.00000  Uiso   1.00
H225   H     0.22992   0.66297   0.46247   0.00000  Uiso   1.00
H226   H     0.04308   0.37206   0.04080   0.00000  Uiso   1.00
H227   H     0.10341   0.33704   0.03753   0.00000  Uiso   1.00
H228   H     0.22929   0.36052   0.30366   0.00000  Uiso   1.00
N229   N     0.31678   0.48598   0.23783   0.00000  Uiso   1.00
N230   N     0.32205   0.54391   0.29560   0.00000  Uiso   1.00
N231   N     0.01656   0.51402   0.26217   0.00000  Uiso   1.00
N232   N     0.24480   0.62845   0.04607   0.00000  Uiso   1.00
N233   N     0.08852   0.37156   0.45393   0.00000  Uiso   1.00
N234   N     0.24705   0.62748   0.45242   0.00000  Uiso   1.00
N235   N     0.08627   0.37252   0.04758   0.00000  Uiso   1.00
N236   N     0.23953   0.33643   0.27570   0.00000  Uiso   1.00
N237   N     0.09380   0.66357   0.22430   0.00000  Uiso   1.00
N238   N     0.01128   0.45610   0.20440   0.00000  Uiso   1.00
O239   O     0.12975   0.57952   0.25299   0.00000  Uiso   1.00
O240   O     0.20358   0.42048   0.24702   0.00000  Uiso   1.00
O241   O     0.22613   0.57054   0.24519   0.00000  Uiso   1.00
O242   O     0.10720   0.42946   0.25481   0.00000  Uiso   1.00
O243   O     0.11847   0.50450   0.31998   0.00000  Uiso   1.00
O244   O     0.21486   0.49550   0.18003   0.00000  Uiso   1.00
O245   O     0.21485   0.49552   0.31218   0.00000  Uiso   1.00
O246   O     0.11848   0.50448   0.18783   0.00000  Uiso   1.00
Zn247  Zn    0.10231   0.50600   0.25521   0.00000  Uiso   1.00
Zn248  Zn    0.23102   0.49400   0.24479   0.00000  Uiso   1.00
C249   C     0.51467   0.59791   0.24889   0.00000  Uiso   1.00
C250   C     0.51803   0.54518   0.40629   0.00000  Uiso   1.00
C251   C     0.49827   0.50043   0.11629   0.00000  Uiso   1.00
C252   C     0.50173   0.49957   0.38371   0.00000  Uiso   1.00
C253   C     0.51517   0.54594   0.09444   0.00000  Uiso   1.00
C254   C     0.48483   0.45406   0.40556   0.00000  Uiso   1.00
C255   C     0.52081   0.54507   0.04725   0.00000  Uiso   1.00
C256   C     0.47918   0.45493   0.45275   0.00000  Uiso   1.00
C257   C     0.49956   0.50015   0.02356   0.00000  Uiso   1.00
C258   C     0.50044   0.49986   0.47644   0.00000  Uiso   1.00
C259   C     0.47749   0.45548   0.04711   0.00000  Uiso   1.00
C260   C     0.48533   0.40209   0.25111   0.00000  Uiso   1.00
C261   C     0.52251   0.54453   0.45289   0.00000  Uiso   1.00
C262   C     0.54804   0.58686   0.02323   0.00000  Uiso   1.00
C263   C     0.45195   0.41315   0.47677   0.00000  Uiso   1.00
C264   C     0.54899   0.58651   0.47631   0.00000  Uiso   1.00
C265   C     0.45100   0.41349   0.02369   0.00000  Uiso   1.00
C266   C     0.52170   0.65157   0.25468   0.00000  Uiso   1.00
C267   C     0.47830   0.34843   0.24532   0.00000  Uiso   1.00
C268   C     0.50057   0.49990   0.33620   0.00000  Uiso   1.00
C269   C     0.49943   0.50010   0.16380   0.00000  Uiso   1.00
C270   C     0.48197   0.45483   0.09371   0.00000  Uiso   1.00
Cl271  Cl    0.47226   0.39741   0.12530   0.00000  Uiso   1.00
Cl272  Cl    0.52774   0.60259   0.37469   0.00000  Uiso   1.00
Cl273  Cl    0.52583   0.60312   0.12834   0.00000  Uiso   1.00
Cl274  Cl    0.47418   0.39688   0.37166   0.00000  Uiso   1.00
H275   H     0.62169   0.62911   0.03524   0.00000  Uiso   1.00
H276   H     0.60185   0.35484   0.25235   0.00000  Uiso   1.00
H277   H     0.43737   0.63948   0.19634   0.00000  Uiso   1.00
H278   H     0.39815   0.64516   0.24765   0.00000  Uiso   1.00
H279   H     0.66464   0.46768   0.17383   0.00000  Uiso   1.00
H280   H     0.66229   0.41792   0.20863   0.00000  Uiso   1.00
H281   H     0.33536   0.53232   0.32617   0.00000  Uiso   1.00
H282   H     0.33770   0.58208   0.29137   0.00000  Uiso   1.00
H283   H     0.56097   0.66363   0.03923   0.00000  Uiso   1.00
H284   H     0.37830   0.37089   0.46476   0.00000  Uiso   1.00
H285   H     0.43902   0.33637   0.46077   0.00000  Uiso   1.00
H286   H     0.62358   0.62795   0.45920   0.00000  Uiso   1.00
H287   H     0.56325   0.66297   0.46247   0.00000  Uiso   1.00
H288   H     0.37641   0.37206   0.04080   0.00000  Uiso   1.00
H289   H     0.43674   0.33704   0.03753   0.00000  Uiso   1.00
H290   H     0.56263   0.36052   0.30366   0.00000  Uiso   1.00
N291   N     0.65011   0.48598   0.23783   0.00000  Uiso   1.00
N292   N     0.65539   0.54391   0.29560   0.00000  Uiso   1.00
N293   N     0.34989   0.51402   0.26217   0.00000  Uiso   1.00
N294   N     0.57813   0.62845   0.04607   0.00000  Uiso   1.00
N295   N     0.42186   0.37156   0.45393   0.00000  Uiso   1.00
N296   N     0.58039   0.62748   0.45242   0.00000  Uiso   1.00
N297   N     0.41961   0.37252   0.04758   0.00000  Uiso   1.00
N298   N     0.57287   0.33643   0.27570   0.00000  Uiso   1.00
N299   N     0.42713   0.66357   0.22430   0.00000  Uiso   1.00
N300   N     0.34461   0.45610   0.20440   0.00000  Uiso   1.00
O301   O     0.46308   0.57952   0.25299   0.00000  Uiso   1.00
O302   O     0.53692   0.42048   0.24702   0.00000  Uiso   1.00
O303   O     0.55946   0.57054   0.24519   0.00000  Uiso   1.00
O304   O     0.44054   0.42946   0.25481   0.00000  Uiso   1.00
O305   O     0.45181   0.50450   0.31998   0.00000  Uiso   1.00
O306   O     0.54819   0.49550   0.18003   0.00000  Uiso   1.00
O307   O     0.54819   0.49552   0.31218   0.00000  Uiso   1.00
O308   O     0.45181   0.50448   0.18783   0.00000  Uiso   1.00
Zn309  Zn    0.43565   0.50600   0.25521   0.00000  Uiso   1.00
Zn310  Zn    0.56435   0.49400   0.24479   0.00000  Uiso   1.00
C311   C     0.84801   0.59791   0.24889   0.00000  Uiso   1.00
C312   C     0.85137   0.54518   0.40629   0.00000  Uiso   1.00
C313   C     0.83160   0.50043   0.11629   0.00000  Uiso   1.00
C314   C     0.83507   0.49957   0.38371   0.00000  Uiso   1.00
C315   C     0.84850   0.54594   0.09444   0.00000  Uiso   1.00
C316   C     0.81816   0.45406   0.40556   0.00000  Uiso   1.00
C317   C     0.85415   0.54507   0.04725   0.00000  Uiso   1.00
C318   C     0.81252   0.45493   0.45275   0.00000  Uiso   1.00
C319   C     0.83289   0.50015   0.02356   0.00000  Uiso   1.00
C320   C     0.83377   0.49986   0.47644   0.00000  Uiso   1.00
C321   C     0.81082   0.45548   0.04711   0.00000  Uiso   1.00
C322   C     0.81866   0.40209   0.25111   0.00000  Uiso   1.00
C323   C     0.85584   0.54453   0.45289   0.00000  Uiso   1.00
C324   C     0.88138   0.58686   0.02323   0.00000  Uiso   1.00
C325   C     0.78528   0.41315   0.47677   0.00000  Uiso   1.00
C326   C     0.88232   0.58651   0.47631   0.00000  Uiso   1.00
C327   C     0.78434   0.41349   0.02369   0.00000  Uiso   1.00
C328   C     0.85503   0.65157   0.25468   0.00000  Uiso   1.00
C329   C     0.81163   0.34843   0.24532   0.00000  Uiso   1.00
C330   C     0.83390   0.49990   0.33620   0.00000  Uiso   1.00
C331   C     0.83277   0.50010   0.16380   0.00000  Uiso   1.00
C332   C     0.81530   0.45483   0.09371   0.00000  Uiso   1.00
Cl333  Cl    0.80559   0.39741   0.12530   0.00000  Uiso   1.00
Cl334  Cl    0.86108   0.60259   0.37469   0.00000  Uiso   1.00
Cl335  Cl    0.85916   0.60312   0.12834   0.00000  Uiso   1.00
Cl336  Cl    0.80751   0.39688   0.37166   0.00000  Uiso   1.00
H337   H     0.95503   0.62911   0.03524   0.00000  Uiso   1.00
H338   H     0.93518   0.35484   0.25235   0.00000  Uiso   1.00
H339   H     0.77071   0.63948   0.19634   0.00000  Uiso   1.00
H340   H     0.73148   0.64516   0.24765   0.00000  Uiso   1.00
H341   H     0.99798   0.46768   0.17383   0.00000  Uiso   1.00
H342   H     0.99563   0.41792   0.20863   0.00000  Uiso   1.00
H343   H     0.66870   0.53232   0.32617   0.00000  Uiso   1.00
H344   H     0.67104   0.58208   0.29137   0.00000  Uiso   1.00
H345   H     0.89430   0.66363   0.03923   0.00000  Uiso   1.00
H346   H     0.71163   0.37089   0.46476   0.00000  Uiso   1.00
H347   H     0.77235   0.33637   0.46077   0.00000  Uiso   1.00
H348   H     0.95691   0.62795   0.45920   0.00000  Uiso   1.00
H349   H     0.89658   0.66297   0.46247   0.00000  Uiso   1.00
H350   H     0.70975   0.37206   0.04080   0.00000  Uiso   1.00
H351   H     0.77007   0.33704   0.03753   0.00000  Uiso   1.00
H352   H     0.89596   0.36052   0.30366   0.00000  Uiso   1.00
N353   N     0.98344   0.48598   0.23783   0.00000  Uiso   1.00
N354   N     0.98872   0.54391   0.29560   0.00000  Uiso   1.00
N355   N     0.68322   0.51402   0.26217   0.00000  Uiso   1.00
N356   N     0.91147   0.62845   0.04607   0.00000  Uiso   1.00
N357   N     0.75519   0.37156   0.45393   0.00000  Uiso   1.00
N358   N     0.91372   0.62748   0.45242   0.00000  Uiso   1.00
N359   N     0.75294   0.37252   0.04758   0.00000  Uiso   1.00
N360   N     0.90620   0.33643   0.27570   0.00000  Uiso   1.00
N361   N     0.76047   0.66357   0.22430   0.00000  Uiso   1.00
N362   N     0.67795   0.45610   0.20440   0.00000  Uiso   1.00
O363   O     0.79642   0.57952   0.25299   0.00000  Uiso   1.00
O364   O     0.87025   0.42048   0.24702   0.00000  Uiso   1.00
O365   O     0.89280   0.57054   0.24519   0.00000  Uiso   1.00
O366   O     0.77387   0.42946   0.25481   0.00000  Uiso   1.00
O367   O     0.78514   0.50450   0.31998   0.00000  Uiso   1.00
O368   O     0.88153   0.49550   0.18003   0.00000  Uiso   1.00
O369   O     0.88152   0.49552   0.31218   0.00000  Uiso   1.00
O370   O     0.78515   0.50448   0.18783   0.00000  Uiso   1.00
Zn371  Zn    0.76898   0.50600   0.25521   0.00000  Uiso   1.00
Zn372  Zn    0.89769   0.49400   0.24479   0.00000  Uiso   1.00
C373   C     0.18134   0.93124   0.24889   0.00000  Uiso   1.00
C374   C     0.18470   0.87851   0.40629   0.00000  Uiso   1.00
C375   C     0.16493   0.83376   0.11629   0.00000  Uiso   1.00
C376   C     0.16840   0.83290   0.38371   0.00000  Uiso   1.00
C377   C     0.18184   0.87927   0.09444   0.00000  Uiso   1.00
C378   C     0.15150   0.78739   0.40556   0.00000  Uiso   1.00
C379   C     0.18748   0.87841   0.04725   0.00000  Uiso   1.00
C380   C     0.14585   0.78826   0.45275   0.00000  Uiso   1.00
C381   C     0.16622   0.83348   0.02356   0.00000  Uiso   1.00
C382   C     0.16711   0.83319   0.47644   0.00000  Uiso   1.00
C383   C     0.14415   0.78881   0.04711   0.00000  Uiso   1.00
C384   C     0.15199   0.73543   0.25111   0.00000  Uiso   1.00
C385   C     0.18918   0.87786   0.45289   0.00000  Uiso   1.00
C386   C     0.21471   0.92019   0.02323   0.00000  Uiso   1.00
C387   C     0.11862   0.74648   0.47677   0.00000  Uiso   1.00
C388   C     0.21566   0.91984   0.47631   0.00000  Uiso   1.00
C389   C     0.11767   0.74683   0.02369   0.00000  Uiso   1.00
C390   C     0.18837   0.98491   0.25468   0.00000  Uiso   1.00
C391   C     0.14497   0.68176   0.24532   0.00000  Uiso   1.00
C392   C     0.16723   0.83324   0.33620   0.00000  Uiso   1.00
C393   C     0.16610   0.83343   0.16380   0.00000  Uiso   1.00
C394   C     0.14863   0.78816   0.09371   0.00000  Uiso   1.00
Cl395  Cl    0.13892   0.73074   0.12530   0.00000  Uiso   1.00
Cl396  Cl    0.19441   0.93593   0.37469   0.00000  Uiso   1.00
Cl397  Cl    0.19249   0.93646   0.12834   0.00000  Uiso   1.00
Cl398  Cl    0.14084   0.73021   0.37166   0.00000  Uiso   1.00
H399   H     0.28836   0.96245   0.03524   0.00000  Uiso   1.00
H400   H     0.26852   0.68817   0.25235   0.00000  Uiso   1.00
H401   H     0.10404   0.97281   0.19634   0.00000  Uiso   1.00
H402   H     0.06482   0.97850   0.24765   0.00000  Uiso   1.00
H403   H     0.33131   0.80102   0.17383   0.00000  Uiso   1.00
H404   H     0.32896   0.75126   0.20863   0.00000  Uiso   1.00
H405   H     0.00203   0.86565   0.32617   0.00000  Uiso   1.00
H406   H     0.00437   0.91541   0.29137   0.00000  Uiso   1.00
H407   H     0.22764   0.99697   0.03923   0.00000  Uiso   1.00
H408   H     0.04497   0.70423   0.46476   0.00000  Uiso   1.00
H409   H     0.10569   0.66970   0.46077   0.00000  Uiso   1.00
H410   H     0.29025   0.96128   0.45920   0.00000  Uiso   1.00
H411   H     0.22992   0.99630   0.46247   0.00000  Uiso   1.00
H412   H     0.04308   0.70539   0.04080   0.00000  Uiso   1.00
H413   H     0.10341   0.67037   0.03753   0.00000  Uiso   1.00
H414   H     0.22929   0.69386   0.30366   0.00000  Uiso   1.00
N415   N     0.31678   0.81932   0.23783   0.00000  Uiso   1.00
N416   N     0.32205   0.87724   0.29560   0.00000  Uiso   1.00
N417   N     0.01656   0.84735   0.26217   0.00000  Uiso   1.00
N418   N     0.24480   0.96178   0.04607   0.00000  Uiso   1.00
N419   N     0.08852   0.70489   0.45393   0.00000  Uiso   1.00
N420   N     0.24705   0.96082   0.45242   0.00000  Uiso   1.00
N421   N     0.08627   0.70586   0.04758   0.00000  Uiso   1.00
N422   N     0.23953   0.66976   0.27570   0.00000  Uiso   1.00
N423   N     0.09380   0.99691   0.22430   0.00000  Uiso   1.00
N424   N     0.01128   0.78943   0.20440   0.00000  Uiso   1.00
O425   O     0.12975   0.91286   0.25299   0.00000  Uiso   1.00
O426   O     0.20358   0.75381   0.24702   0.00000  Uiso   1.00
O427   O     0.22613   0.90387   0.24519   0.00000  Uiso   1.00
O428   O     0.10720   0.76279   0.25481   0.00000  Uiso   1.00
O429   O     0.11847   0.83784   0.31998   0.00000  Uiso   1.00
O430   O     0.21486   0.82883   0.18003   0.00000  Uiso   1.00
O431   O     0.21485   0.82885   0.31218   0.00000  Uiso   1.00
O432   O     0.11848   0.83781   0.18783   0.00000  Uiso   1.00
Zn433  Zn    0.10231   0.83933   0.25521   0.00000  Uiso   1.00
Zn434  Zn    0.23102   0.82734   0.24479   0.00000  Uiso   1.00
C435   C     0.51467   0.93124   0.24889   0.00000  Uiso   1.00
C436   C     0.51803   0.87851   0.40629   0.00000  Uiso   1.00
C437   C     0.49827   0.83376   0.11629   0.00000  Uiso   1.00
C438   C     0.50173   0.83290   0.38371   0.00000  Uiso   1.00
C439   C     0.51517   0.87927   0.09444   0.00000  Uiso   1.00
C440   C     0.48483   0.78739   0.40556   0.00000  Uiso   1.00
C441   C     0.52081   0.87841   0.04725   0.00000  Uiso   1.00
C442   C     0.47918   0.78826   0.45275   0.00000  Uiso   1.00
C443   C     0.49956   0.83348   0.02356   0.00000  Uiso   1.00
C444   C     0.50044   0.83319   0.47644   0.00000  Uiso   1.00
C445   C     0.47749   0.78881   0.04711   0.00000  Uiso   1.00
C446   C     0.48533   0.73543   0.25111   0.00000  Uiso   1.00
C447   C     0.52251   0.87786   0.45289   0.00000  Uiso   1.00
C448   C     0.54804   0.92019   0.02323   0.00000  Uiso   1.00
C449   C     0.45195   0.74648   0.47677   0.00000  Uiso   1.00
C450   C     0.54899   0.91984   0.47631   0.00000  Uiso   1.00
C451   C     0.45100   0.74683   0.02369   0.00000  Uiso   1.00
C452   C     0.52170   0.98491   0.25468   0.00000  Uiso   1.00
C453   C     0.47830   0.68176   0.24532   0.00000  Uiso   1.00
C454   C     0.50057   0.83324   0.33620   0.00000  Uiso   1.00
C455   C     0.49943   0.83343   0.16380   0.00000  Uiso   1.00
C456   C     0.48197   0.78816   0.09371   0.00000  Uiso   1.00
Cl457  Cl    0.47226   0.73074   0.12530   0.00000  Uiso   1.00
Cl458  Cl    0.52774   0.93593   0.37469   0.00000  Uiso   1.00
Cl459  Cl    0.52583   0.93646   0.12834   0.00000  Uiso   1.00
Cl460  Cl    0.47418   0.73021   0.37166   0.00000  Uiso   1.00
H461   H     0.62169   0.96245   0.03524   0.00000  Uiso   1.00
H462   H     0.60185   0.68817   0.25235   0.00000  Uiso   1.00
H463   H     0.43737   0.97281   0.19634   0.00000  Uiso   1.00
H464   H     0.39815   0.97850   0.24765   0.00000  Uiso   1.00
H465   H     0.66464   0.80102   0.17383   0.00000  Uiso   1.00
H466   H     0.66229   0.75126   0.20863   0.00000  Uiso   1.00
H467   H     0.33536   0.86565   0.32617   0.00000  Uiso   1.00
H468   H     0.33770   0.91541   0.29137   0.00000  Uiso   1.00
H469   H     0.56097   0.99697   0.03923   0.00000  Uiso   1.00
H470   H     0.37830   0.70423   0.46476   0.00000  Uiso   1.00
H471   H     0.43902   0.66970   0.46077   0.00000  Uiso   1.00
H472   H     0.62358   0.96128   0.45920   0.00000  Uiso   1.00
H473   H     0.56325   0.99630   0.46247   0.00000  Uiso   1.00
H474   H     0.37641   0.70539   0.04080   0.00000  Uiso   1.00
H475   H     0.43674   0.67037   0.03753   0.00000  Uiso   1.00
H476   H     0.56263   0.69386   0.30366   0.00000  Uiso   1.00
N477   N     0.65011   0.81932   0.23783   0.00000  Uiso   1.00
N478   N     0.65539   0.87724   0.29560   0.00000  Uiso   1.00
N479   N     0.34989   0.84735   0.26217   0.00000  Uiso   1.00
N480   N     0.57813   0.96178   0.04607   0.00000  Uiso   1.00
N481   N     0.42186   0.70489   0.45393   0.00000  Uiso   1.00
N482   N     0.58039   0.96082   0.45242   0.00000  Uiso   1.00
N483   N     0.41961   0.70586   0.04758   0.00000  Uiso   1.00
N484   N     0.57287   0.66976   0.27570   0.00000  Uiso   1.00
N485   N     0.42713   0.99691   0.22430   0.00000  Uiso   1.00
N486   N     0.34461   0.78943   0.20440   0.00000  Uiso   1.00
O487   O     0.46308   0.91286   0.25299   0.00000  Uiso   1.00
O488   O     0.53692   0.75381   0.24702   0.00000  Uiso   1.00
O489   O     0.55946   0.90387   0.24519   0.00000  Uiso   1.00
O490   O     0.44054   0.76279   0.25481   0.00000  Uiso   1.00
O491   O     0.45181   0.83784   0.31998   0.00000  Uiso   1.00
O492   O     0.54819   0.82883   0.18003   0.00000  Uiso   1.00
O493   O     0.54819   0.82885   0.31218   0.00000  Uiso   1.00
O494   O     0.45181   0.83781   0.18783   0.00000  Uiso   1.00
Zn495  Zn    0.43565   0.83933   0.25521   0.00000  Uiso   1.00
Zn496  Zn    0.56435   0.82734   0.24479   0.00000  Uiso   1.00
C497   C     0.84801   0.93124   0.24889   0.00000  Uiso   1.00
C498   C     0.85137   0.87851   0.40629   0.00000  Uiso   1.00
C499   C     0.83160   0.83376   0.11629   0.00000  Uiso   1.00
C500   C     0.83507   0.83290   0.38371   0.00000  Uiso   1.00
C501   C     0.84850   0.87927   0.09444   0.00000  Uiso   1.00
C502   C     0.81816   0.78739   0.40556   0.00000  Uiso   1.00
C503   C     0.85415   0.87841   0.04725   0.00000  Uiso   1.00
C504   C     0.81252   0.78826   0.45275   0.00000  Uiso   1.00
C505   C     0.83289   0.83348   0.02356   0.00000  Uiso   1.00
C506   C     0.83377   0.83319   0.47644   0.00000  Uiso   1.00
C507   C     0.81082   0.78881   0.04711   0.00000  Uiso   1.00
C508   C     0.81866   0.73543   0.25111   0.00000  Uiso   1.00
C509   C     0.85584   0.87786   0.45289   0.00000  Uiso   1.00
C510   C     0.88138   0.92019   0.02323   0.00000  Uiso   1.00
C511   C     0.78528   0.74648   0.47677   0.00000  Uiso   1.00
C512   C     0.88232   0.91984   0.47631   0.00000  Uiso   1.00
C513   C     0.78434   0.74683   0.02369   0.00000  Uiso   1.00
C514   C     0.85503   0.98491   0.25468   0.00000  Uiso   1.00
C515   C     0.81163   0.68176   0.24532   0.00000  Uiso   1.00
C516   C     0.83390   0.83324   0.33620   0.00000  Uiso   1.00
C517   C     0.83277   0.83343   0.16380   0.00000  Uiso   1.00
C518   C     0.81530   0.78816   0.09371   0.00000  Uiso   1.00
Cl519  Cl    0.80559   0.73074   0.12530   0.00000  Uiso   1.00
Cl520  Cl    0.86108   0.93593   0.37469   0.00000  Uiso   1.00
Cl521  Cl    0.85916   0.93646   0.12834   0.00000  Uiso   1.00
Cl522  Cl    0.80751   0.73021   0.37166   0.00000  Uiso   1.00
H523   H     0.95503   0.96245   0.03524   0.00000  Uiso   1.00
H524   H     0.93518   0.68817   0.25235   0.00000  Uiso   1.00
H525   H     0.77071   0.97281   0.19634   0.00000  Uiso   1.00
H526   H     0.73148   0.97850   0.24765   0.00000  Uiso   1.00
H527   H     0.99798   0.80102   0.17383   0.00000  Uiso   1.00
H528   H     0.99563   0.75126   0.20863   0.00000  Uiso   1.00
H529   H     0.66870   0.86565   0.32617   0.00000  Uiso   1.00
H530   H     0.67104   0.91541   0.29137   0.00000  Uiso   1.00
H531   H     0.89430   0.99697   0.03923   0.00000  Uiso   1.00
H532   H     0.71163   0.70423   0.46476   0.00000  Uiso   1.00
H533   H     0.77235   0.66970   0.46077   0.00000  Uiso   1.00
H534   H     0.95691   0.96128   0.45920   0.00000  Uiso   1.00
H535   H     0.89658   0.99630   0.46247   0.00000  Uiso   1.00
H536   H     0.70975   0.70539   0.04080   0.00000  Uiso   1.00
H537   H     0.77007   0.67037   0.03753   0.00000  Uiso   1.00
H538   H     0.89596   0.69386   0.30366   0.00000  Uiso   1.00
N539   N     0.98344   0.81932   0.23783   0.00000  Uiso   1.00
N540   N     0.98872   0.87724   0.29560   0.00000  Uiso   1.00
N541   N     0.68322   0.84735   0.26217   0.00000  Uiso   1.00
N542   N     0.91147   0.96178   0.04607   0.00000  Uiso   1.00
N543   N     0.75519   0.70489   0.45393   0.00000  Uiso   1.00
N544   N     0.91372   0.96082   0.45242   0.00000  Uiso   1.00
N545   N     0.75294   0.70586   0.04758   0.00000  Uiso   1.00
N546   N     0.90620   0.66976   0.27570   0.00000  Uiso   1.00
N547   N     0.76047   0.99691   0.22430   0.00000  Uiso   1.00
N548   N     0.67795   0.78943   0.20440   0.00000  Uiso   1.00
O549   O     0.79642   0.91286   0.25299   0.00000  Uiso   1.00
O550   O     0.87025   0.75381   0.24702   0.00000  Uiso   1.00
O551   O     0.89280   0.90387   0.24519   0.00000  Uiso   1.00
O552   O     0.77387   0.76279   0.25481   0.00000  Uiso   1.00
O553   O     0.78514   0.83784   0.31998   0.00000  Uiso   1.00
O554   O     0.88153   0.82883   0.18003   0.00000  Uiso   1.00
O555   O     0.88152   0.82885   0.31218   0.00000  Uiso   1.00
O556   O     0.78515   0.83781   0.18783   0.00000  Uiso   1.00
Zn557  Zn    0.76898   0.83933   0.25521   0.00000  Uiso   1.00
Zn558  Zn    0.89769   0.82734   0.24479   0.00000  Uiso   1.00
C559   C     0.18134   0.26457   0.74889   0.00000  Uiso   1.00
C560   C     0.18470   0.21184   0.90629   0.00000  Uiso   1.00
C561   C     0.16493   0.16710   0.61629   0.00000  Uiso   1.00
C562   C     0.16840   0.16624   0.88371   0.00000  Uiso   1.00
C563   C     0.18184   0.21261   0.59444   0.00000  Uiso   1.00
C564   C     0.15150   0.12073   0.90556   0.00000  Uiso   1.00
C565   C     0.18748   0.21174   0.54725   0.00000  Uiso   1.00
C566   C     0.14585   0.12160   0.95275   0.00000  Uiso   1.00
C567   C     0.16622   0.16681   0.52356   0.00000  Uiso   1.00
C568   C     0.16711   0.16652   0.97644   0.00000  Uiso   1.00
C569   C     0.14415   0.12214   0.54711   0.00000  Uiso   1.00
C570   C     0.15199   0.06876   0.75111   0.00000  Uiso   1.00
C571   C     0.18918   0.21119   0.95289   0.00000  Uiso   1.00
C572   C     0.21471   0.25352   0.52323   0.00000  Uiso   1.00
C573   C     0.11862   0.07981   0.97677   0.00000  Uiso   1.00
C574   C     0.21566   0.25318   0.97631   0.00000  Uiso   1.00
C575   C     0.11767   0.08016   0.52369   0.00000  Uiso   1.00
C576   C     0.18837   0.31824   0.75468   0.00000  Uiso   1.00
C577   C     0.14497   0.01509   0.74532   0.00000  Uiso   1.00
C578   C     0.16723   0.16657   0.83620   0.00000  Uiso   1.00
C579   C     0.16610   0.16676   0.66380   0.00000  Uiso   1.00
C580   C     0.14863   0.12149   0.59371   0.00000  Uiso   1.00
Cl581  Cl    0.13892   0.06407   0.62530   0.00000  Uiso   1.00
Cl582  Cl    0.19441   0.26926   0.87469   0.00000  Uiso   1.00
Cl583  Cl    0.19249   0.26979   0.62834   0.00000  Uiso   1.00
Cl584  Cl    0.14084   0.06354   0.87166   0.00000  Uiso   1.00
H585   H     0.28836   0.29578   0.53524   0.00000  Uiso   1.00
H586   H     0.26852   0.02150   0.75235   0.00000  Uiso   1.00
H587   H     0.10404   0.30614   0.69634   0.00000  Uiso   1.00
H588   H     0.06482   0.31183   0.74765   0.00000  Uiso   1.00
H589   H     0.33131   0.13435   0.67383   0.00000  Uiso   1.00
H590   H     0.32896   0.08459   0.70863   0.00000  Uiso   1.00
H591   H     0.00203   0.19899   0.82617   0.00000  Uiso   1.00
H592   H     0.00437   0.24874   0.79137   0.00000  Uiso   1.00
H593   H     0.22764   0.33030   0.53923   0.00000  Uiso   1.00
H594   H     0.04497   0.03756   0.96476   0.00000  Uiso   1.00
H595   H     0.10569   0.00304   0.96077   0.00000  Uiso   1.00
H596   H     0.29025   0.29461   0.95920   0.00000  Uiso   1.00
H597   H     0.22992   0.32963   0.96247   0.00000  Uiso   1.00
H598   H     0.04308   0.03873   0.54080   0.00000  Uiso   1.00
H599   H     0.10341   0.00371   0.53753   0.00000  Uiso   1.00
H600   H     0.22929   0.02719   0.80366   0.00000  Uiso   1.00
N601   N     0.31678   0.15265   0.73783   0.00000  Uiso   1.00
N602   N     0.32205   0.21057   0.79560   0.00000  Uiso   1.00
N603   N     0.01656   0.18068   0.76217   0.00000  Uiso   1.00
N604   N     0.24480   0.29511   0.54607   0.00000  Uiso   1.00
N605   N     0.08852   0.03823   0.95393   0.00000  Uiso   1.00
N606   N     0.24705   0.29415   0.95242   0.00000  Uiso   1.00
N607   N     0.08627   0.03919   0.54758   0.00000  Uiso   1.00
N608   N     0.23953   0.00309   0.77570   0.00000  Uiso   1.00
N609   N     0.09380   0.33024   0.72430   0.00000  Uiso   1.00
N610   N     0.01128   0.12276   0.70440   0.00000  Uiso   1.00
O611   O     0.12975   0.24619   0.75299   0.00000  Uiso   1.00
O612   O     0.20358   0.08714   0.74702   0.00000  Uiso   1.00
O613   O     0.22613   0.23721   0.74519   0.00000  Uiso   1.00
O614   O     0.10720   0.09613   0.75481   0.00000  Uiso   1.00
O615   O     0.11847   0.17117   0.81998   0.00000  Uiso   1.00
O616   O     0.21486   0.16216   0.68003   0.00000  Uiso   1.00
O617   O     0.21485   0.16219   0.81218   0.00000  Uiso   1.00
O618   O     0.11848   0.17115   0.68783   0.00000  Uiso   1.00
Zn619  Zn    0.10231   0.17266   0.75521   0.00000  Uiso   1.00
Zn620  Zn    0.23102   0.16067   0.74479   0.00000  Uiso   1.00
C621   C     0.51467   0.26457   0.74889   0.00000  Uiso   1.00
C622   C     0.51803   0.21184   0.90629   0.00000  Uiso   1.00
C623   C     0.49827   0.16710   0.61629   0.00000  Uiso   1.00
C624   C     0.50173   0.16624   0.88371   0.00000  Uiso   1.00
C625   C     0.51517   0.21261   0.59444   0.00000  Uiso   1.00
C626   C     0.48483   0.12073   0.90556   0.00000  Uiso   1.00
C627   C     0.52081   0.21174   0.54725   0.00000  Uiso   1.00
C628   C     0.47918   0.12160   0.95275   0.00000  Uiso   1.00
C629   C     0.49956   0.16681   0.52356   0.00000  Uiso   1.00
C630   C     0.50044   0.16652   0.97644   0.00000  Uiso   1.00
C631   C     0.47749   0.12214   0.54711   0.00000  Uiso   1.00
C632   C     0.48533   0.06876   0.75111   0.00000  Uiso   1.00
C633   C     0.52251   0.21119   0.95289   0.00000  Uiso   1.00
C634   C     0.54804   0.25352   0.52323   0.00000  Uiso   1.00
C635   C     0.45195   0.07981   0.97677   0.00000  Uiso   1.00
C636   C     0.54899   0.25318   0.97631   0.00000  Uiso   1.00
C637   C     0.45100   0.08016   0.52369   0.00000  Uiso   1.00
C638   C     0.52170   0.31824   0.75468   0.00000  Uiso   1.00
C639   C     0.47830   0.01509   0.74532   0.00000  Uiso   1.00
C640   C     0.50057   0.16657   0.83620   0.00000  Uiso   1.00
C641   C     0.49943   0.16676   0.66380   0.00000  Uiso   1.00
C642   C     0.48197   0.12149   0.59371   0.00000  Uiso   1.00
Cl643  Cl    0.47226   0.06407   0.62530   0.00000  Uiso   1.00
Cl644  Cl    0.52774   0.26926   0.87469   0.00000  Uiso   1.00
Cl645  Cl    0.52583   0.26979   0.62834   0.00000  Uiso   1.00
Cl646  Cl    0.47418   0.06354   0.87166   0.00000  Uiso   1.00
H647   H     0.62169   0.29578   0.53524   0.00000  Uiso   1.00
H648   H     0.60185   0.02150   0.75235   0.00000  Uiso   1.00
H649   H     0.43737   0.30614   0.69634   0.00000  Uiso   1.00
H650   H     0.39815   0.31183   0.74765   0.00000  Uiso   1.00
H651   H     0.66464   0.13435   0.67383   0.00000  Uiso   1.00
H652   H     0.66229   0.08459   0.70863   0.00000  Uiso   1.00
H653   H     0.33536   0.19899   0.82617   0.00000  Uiso   1.00
H654   H     0.33770   0.24874   0.79137   0.00000  Uiso   1.00
H655   H     0.56097   0.33030   0.53923   0.00000  Uiso   1.00
H656   H     0.37830   0.03756   0.96476   0.00000  Uiso   1.00
H657   H     0.43902   0.00304   0.96077   0.00000  Uiso   1.00
H658   H     0.62358   0.29461   0.95920   0.00000  Uiso   1.00
H659   H     0.56325   0.32963   0.96247   0.00000  Uiso   1.00
H660   H     0.37641   0.03873   0.54080   0.00000  Uiso   1.00
H661   H     0.43674   0.00371   0.53753   0.00000  Uiso   1.00
H662   H     0.56263   0.02719   0.80366   0.00000  Uiso   1.00
N663   N     0.65011   0.15265   0.73783   0.00000  Uiso   1.00
N664   N     0.65539   0.21057   0.79560   0.00000  Uiso   1.00
N665   N     0.34989   0.18068   0.76217   0.00000  Uiso   1.00
N666   N     0.57813   0.29511   0.54607   0.00000  Uiso   1.00
N667   N     0.42186   0.03823   0.95393   0.00000  Uiso   1.00
N668   N     0.58039   0.29415   0.95242   0.00000  Uiso   1.00
N669   N     0.41961   0.03919   0.54758   0.00000  Uiso   1.00
N670   N     0.57287   0.00309   0.77570   0.00000  Uiso   1.00
N671   N     0.42713   0.33024   0.72430   0.00000  Uiso   1.00
N672   N     0.34461   0.12276   0.70440   0.00000  Uiso   1.00
O673   O     0.46308   0.24619   0.75299   0.00000  Uiso   1.00
O674   O     0.53692   0.08714   0.74702   0.00000  Uiso   1.00
O675   O     0.55946   0.23721   0.74519   0.00000  Uiso   1.00
O676   O     0.44054   0.09613   0.75481   0.00000  Uiso   1.00
O677   O     0.45181   0.17117   0.81998   0.00000  Uiso   1.00
O678   O     0.54819   0.16216   0.68003   0.00000  Uiso   1.00
O679   O     0.54819   0.16219   0.81218   0.00000  Uiso   1.00
O680   O     0.45181   0.17115   0.68783   0.00000  Uiso   1.00
Zn681  Zn    0.43565   0.17266   0.75521   0.00000  Uiso   1.00
Zn682  Zn    0.56435   0.16067   0.74479   0.00000  Uiso   1.00
C683   C     0.84801   0.26457   0.74889   0.00000  Uiso   1.00
C684   C     0.85137   0.21184   0.90629   0.00000  Uiso   1.00
C685   C     0.83160   0.16710   0.61629   0.00000  Uiso   1.00
C686   C     0.83507   0.16624   0.88371   0.00000  Uiso   1.00
C687   C     0.84850   0.21261   0.59444   0.00000  Uiso   1.00
C688   C     0.81816   0.12073   0.90556   0.00000  Uiso   1.00
C689   C     0.85415   0.21174   0.54725   0.00000  Uiso   1.00
C690   C     0.81252   0.12160   0.95275   0.00000  Uiso   1.00
C691   C     0.83289   0.16681   0.52356   0.00000  Uiso   1.00
C692   C     0.83377   0.16652   0.97644   0.00000  Uiso   1.00
C693   C     0.81082   0.12214   0.54711   0.00000  Uiso   1.00
C694   C     0.81866   0.06876   0.75111   0.00000  Uiso   1.00
C695   C     0.85584   0.21119   0.95289   0.00000  Uiso   1.00
C696   C     0.88138   0.25352   0.52323   0.00000  Uiso   1.00
C697   C     0.78528   0.07981   0.97677   0.00000  Uiso   1.00
C698   C     0.88232   0.25318   0.97631   0.00000  Uiso   1.00
C699   C     0.78434   0.08016   0.52369   0.00000  Uiso   1.00
C700   C     0.85503   0.31824   0.75468   0.00000  Uiso   1.00
C701   C     0.81163   0.01509   0.74532   0.00000  Uiso   1.00
C702   C     0.83390   0.16657   0.83620   0.00000  Uiso   1.00
C703   C     0.83277   0.16676   0.66380   0.00000  Uiso   1.00
C704   C     0.81530   0.12149   0.59371   0.00000  Uiso   1.00
Cl705  Cl    0.80559   0.06407   0.62530   0.00000  Uiso   1.00
Cl706  Cl    0.86108   0.26926   0.87469   0.00000  Uiso   1.00
Cl707  Cl    0.85916   0.26979   0.62834   0.00000  Uiso   1.00
Cl708  Cl    0.80751   0.06354   0.87166   0.00000  Uiso   1.00
H709   H     0.95503   0.29578   0.53524   0.00000  Uiso   1.00
H710   H     0.93518   0.02150   0.75235   0.00000  Uiso   1.00
H711   H     0.77071   0.30614   0.69634   0.00000  Uiso   1.00
H712   H     0.73148   0.31183   0.74765   0.00000  Uiso   1.00
H713   H     0.99798   0.13435   0.67383   0.00000  Uiso   1.00
H714   H     0.99563   0.08459   0.70863   0.00000  Uiso   1.00
H715   H     0.66870   0.19899   0.82617   0.00000  Uiso   1.00
H716   H     0.67104   0.24874   0.79137   0.00000  Uiso   1.00
H717   H     0.89430   0.33030   0.53923   0.00000  Uiso   1.00
H718   H     0.71163   0.03756   0.96476   0.00000  Uiso   1.00
H719   H     0.77235   0.00304   0.96077   0.00000  Uiso   1.00
H720   H     0.95691   0.29461   0.95920   0.00000  Uiso   1.00
H721   H     0.89658   0.32963   0.96247   0.00000  Uiso   1.00
H722   H     0.70975   0.03873   0.54080   0.00000  Uiso   1.00
H723   H     0.77007   0.00371   0.53753   0.00000  Uiso   1.00
H724   H     0.89596   0.02719   0.80366   0.00000  Uiso   1.00
N725   N     0.98344   0.15265   0.73783   0.00000  Uiso   1.00
N726   N     0.98872   0.21057   0.79560   0.00000  Uiso   1.00
N727   N     0.68322   0.18068   0.76217   0.00000  Uiso   1.00
N728   N     0.91147   0.29511   0.54607   0.00000  Uiso   1.00
N729   N     0.75519   0.03823   0.95393   0.00000  Uiso   1.00
N730   N     0.91372   0.29415   0.95242   0.00000  Uiso   1.00
N731   N     0.75294   0.03919   0.54758   0.00000  Uiso   1.00
N732   N     0.90620   0.00309   0.77570   0.00000  Uiso   1.00
N733   N     0.76047   0.33024   0.72430   0.00000  Uiso   1.00
N734   N     0.67795   0.12276   0.70440   0.00000  Uiso   1.00
O735   O     0.79642   0.24619   0.75299   0.00000  Uiso   1.00
O736   O     0.87025   0.08714   0.74702   0.00000  Uiso   1.00
O737   O     0.89280   0.23721   0.74519   0.00000  Uiso   1.00
O738   O     0.77387   0.09613   0.75481   0.00000  Uiso   1.00
O739   O     0.78514   0.17117   0.81998   0.00000  Uiso   1.00
O740   O     0.88153   0.16216   0.68003   0.00000  Uiso   1.00
O741   O     0.88152   0.16219   0.81218   0.00000  Uiso   1.00
O742   O     0.78515   0.17115   0.68783   0.00000  Uiso   1.00
Zn743  Zn    0.76898   0.17266   0.75521   0.00000  Uiso   1.00
Zn744  Zn    0.89769   0.16067   0.74479   0.00000  Uiso   1.00
C745   C     0.18134   0.59791   0.74889   0.00000  Uiso   1.00
C746   C     0.18470   0.54518   0.90629   0.00000  Uiso   1.00
C747   C     0.16493   0.50043   0.61629   0.00000  Uiso   1.00
C748   C     0.16840   0.49957   0.88371   0.00000  Uiso   1.00
C749   C     0.18184   0.54594   0.59444   0.00000  Uiso   1.00
C750   C     0.15150   0.45406   0.90556   0.00000  Uiso   1.00
C751   C     0.18748   0.54507   0.54725   0.00000  Uiso   1.00
C752   C     0.14585   0.45493   0.95275   0.00000  Uiso   1.00
C753   C     0.16622   0.50015   0.52356   0.00000  Uiso   1.00
C754   C     0.16711   0.49986   0.97644   0.00000  Uiso   1.00
C755   C     0.14415   0.45548   0.54711   0.00000  Uiso   1.00
C756   C     0.15199   0.40209   0.75111   0.00000  Uiso   1.00
C757   C     0.18918   0.54453   0.95289   0.00000  Uiso   1.00
C758   C     0.21471   0.58686   0.52323   0.00000  Uiso   1.00
C759   C     0.11862   0.41315   0.97677   0.00000  Uiso   1.00
C760   C     0.21566   0.58651   0.97631   0.00000  Uiso   1.00
C761   C     0.11767   0.41349   0.52369   0.00000  Uiso   1.00
C762   C     0.18837   0.65157   0.75468   0.00000  Uiso   1.00
C763   C     0.14497   0.34843   0.74532   0.00000  Uiso   1.00
C764   C     0.16723   0.49990   0.83620   0.00000  Uiso   1.00
C765   C     0.16610   0.50010   0.66380   0.00000  Uiso   1.00
C766   C     0.14863   0.45483   0.59371   0.00000  Uiso   1.00
Cl767  Cl    0.13892   0.39741   0.62530   0.00000  Uiso   1.00
Cl768  Cl    0.19441   0.60259   0.87469   0.00000  Uiso   1.00
Cl769  Cl    0.19249   0.60312   0.62834   0.00000  Uiso   1.00
Cl770  Cl    0.14084   0.39688   0.87166   0.00000  Uiso   1.00
H771   H     0.28836   0.62911   0.53524   0.00000  Uiso   1.00
H772   H     0.26852   0.35484   0.75235   0.00000  Uiso   1.00
H773   H     0.10404   0.63948   0.69634   0.00000  Uiso   1.00
H774   H     0.06482   0.64516   0.74765   0.00000  Uiso   1.00
H775   H     0.33131   0.46768   0.67383   0.00000  Uiso   1.00
H776   H     0.32896   0.41792   0.70863   0.00000  Uiso   1.00
H777   H     0.00203   0.53232   0.82617   0.00000  Uiso   1.00
H778   H     0.00437   0.58208   0.79137   0.00000  Uiso   1.00
H779   H     0.22764   0.66363   0.53923   0.00000  Uiso   1.00
H780   H     0.04497   0.37089   0.96476   0.00000  Uiso   1.00
H781   H     0.10569   0.33637   0.96077   0.00000  Uiso   1.00
H782   H     0.29025   0.62795   0.95920   0.00000  Uiso   1.00
H783   H     0.22992   0.66297   0.96247   0.00000  Uiso   1.00
H784   H     0.04308   0.37206   0.54080   0.00000  Uiso   1.00
H785   H     0.10341   0.33704   0.53753   0.00000  Uiso   1.00
H786   H     0.22929   0.36052   0.80366   0.00000  Uiso   1.00
N787   N     0.31678   0.48598   0.73783   0.00000  Uiso   1.00
N788   N     0.32205   0.54391   0.79560   0.00000  Uiso   1.00
N789   N     0.01656   0.51402   0.76217   0.00000  Uiso   1.00
N790   N     0.24480   0.62845   0.54607   0.00000  Uiso   1.00
N791   N     0.08852   0.37156   0.95393   0.00000  Uiso   1.00
N792   N     0.24705   0.62748   0.95242   0.00000  Uiso   1.00
N793   N     0.08627   0.37252   0.54758   0.00000  Uiso   1.00
N794   N     0.23953   0.33643   0.77570   0.00000  Uiso   1.00
N795   N     0.09380   0.66357   0.72430   0.00000  Uiso   1.00
N796   N     0.01128   0.45610   0.70440   0.00000  Uiso   1.00
O797   O     0.12975   0.57952   0.75299   0.00000  Uiso   1.00
O798   O     0.20358   0.42048   0.74702   0.00000  Uiso   1.00
O799   O     0.22613   0.57054   0.74519   0.00000  Uiso   1.00
O800   O     0.10720   0.42946   0.75481   0.00000  Uiso   1.00
O801   O     0.11847   0.50450   0.81998   0.00000  Uiso   1.00
O802   O     0.21486   0.49550   0.68003   0.00000  Uiso   1.00
O803   O     0.21485   0.49552   0.81218   0.00000  Uiso   1.00
O804   O     0.11848   0.50448   0.68783   0.00000  Uiso   1.00
Zn805  Zn    0.10231   0.50600   0.75521   0.00000  Uiso   1.00
Zn806  Zn    0.23102   0.49400   0.74479   0.00000  Uiso   1.00
C807   C     0.51467   0.59791   0.74889   0.00000  Uiso   1.00
C808   C     0.51803   0.54518   0.90629   0.00000  Uiso   1.00
C809   C     0.49827   0.50043   0.61629   0.00000  Uiso   1.00
C810   C     0.50173   0.49957   0.88371   0.00000  Uiso   1.00
C811   C     0.51517   0.54594   0.59444   0.00000  Uiso   1.00
C812   C     0.48483   0.45406   0.90556   0.00000  Uiso   1.00
C813   C     0.52081   0.54507   0.54725   0.00000  Uiso   1.00
C814   C     0.47918   0.45493   0.95275   0.00000  Uiso   1.00
C815   C     0.49956   0.50015   0.52356   0.00000  Uiso   1.00
C816   C     0.50044   0.49986   0.97644   0.00000  Uiso   1.00
C817   C     0.47749   0.45548   0.54711   0.00000  Uiso   1.00
C818   C     0.48533   0.40209   0.75111   0.00000  Uiso   1.00
C819   C     0.52251   0.54453   0.95289   0.00000  Uiso   1.00
C820   C     0.54804   0.58686   0.52323   0.00000  Uiso   1.00
C821   C     0.45195   0.41315   0.97677   0.00000  Uiso   1.00
C822   C     0.54899   0.58651   0.97631   0.00000  Uiso   1.00
C823   C     0.45100   0.41349   0.52369   0.00000  Uiso   1.00
C824   C     0.52170   0.65157   0.75468   0.00000  Uiso   1.00
C825   C     0.47830   0.34843   0.74532   0.00000  Uiso   1.00
C826   C     0.50057   0.49990   0.83620   0.00000  Uiso   1.00
C827   C     0.49943   0.50010   0.66380   0.00000  Uiso   1.00
C828   C     0.48197   0.45483   0.59371   0.00000  Uiso   1.00
Cl829  Cl    0.47226   0.39741   0.62530   0.00000  Uiso   1.00
Cl830  Cl    0.52774   0.60259   0.87469   0.00000  Uiso   1.00
Cl831  Cl    0.52583   0.60312   0.62834   0.00000  Uiso   1.00
Cl832  Cl    0.47418   0.39688   0.87166   0.00000  Uiso   1.00
H833   H     0.62169   0.62911   0.53524   0.00000  Uiso   1.00
H834   H     0.60185   0.35484   0.75235   0.00000  Uiso   1.00
H835   H     0.43737   0.63948   0.69634   0.00000  Uiso   1.00
H836   H     0.39815   0.64516   0.74765   0.00000  Uiso   1.00
H837   H     0.66464   0.46768   0.67383   0.00000  Uiso   1.00
H838   H     0.66229   0.41792   0.70863   0.00000  Uiso   1.00
H839   H     0.33536   0.53232   0.82617   0.00000  Uiso   1.00
H840   H     0.33770   0.58208   0.79137   0.00000  Uiso   1.00
H841   H     0.56097   0.66363   0.53923   0.00000  Uiso   1.00
H842   H     0.37830   0.37089   0.96476   0.00000  Uiso   1.00
H843   H     0.43902   0.33637   0.96077   0.00000  Uiso   1.00
H844   H     0.62358   0.62795   0.95920   0.00000  Uiso   1.00
H845   H     0.56325   0.66297   0.96247   0.00000  Uiso   1.00
H846   H     0.37641   0.37206   0.54080   0.00000  Uiso   1.00
H847   H     0.43674   0.33704   0.53753   0.00000  Uiso   1.00
H848   H     0.56263   0.36052   0.80366   0.00000  Uiso   1.00
N849   N     0.65011   0.48598   0.73783   0.00000  Uiso   1.00
N850   N     0.65539   0.54391   0.79560   0.00000  Uiso   1.00
N851   N     0.34989   0.51402   0.76217   0.00000  Uiso   1.00
N852   N     0.57813   0.62845   0.54607   0.00000  Uiso   1.00
N853   N     0.42186   0.37156   0.95393   0.00000  Uiso   1.00
N854   N     0.58039   0.62748   0.95242   0.00000  Uiso   1.00
N855   N     0.41961   0.37252   0.54758   0.00000  Uiso   1.00
N856   N     0.57287   0.33643   0.77570   0.00000  Uiso   1.00
N857   N     0.42713   0.66357   0.72430   0.00000  Uiso   1.00
N858   N     0.34461   0.45610   0.70440   0.00000  Uiso   1.00
O859   O     0.46308   0.57952   0.75299   0.00000  Uiso   1.00
O860   O     0.53692   0.42048   0.74702   0.00000  Uiso   1.00
O861   O     0.55946   0.57054   0.74519   0.00000  Uiso   1.00
O862   O     0.44054   0.42946   0.75481   0.00000  Uiso   1.00
O863   O     0.45181   0.50450   0.81998   0.00000  Uiso   1.00
O864   O     0.54819   0.49550   0.68003   0.00000  Uiso   1.00
O865   O     0.54819   0.49552   0.81218   0.00000  Uiso   1.00
O866   O     0.45181   0.50448   0.68783   0.00000  Uiso   1.00
Zn867  Zn    0.43565   0.50600   0.75521   0.00000  Uiso   1.00
Zn868  Zn    0.56435   0.49400   0.74479   0.00000  Uiso   1.00
C869   C     0.84801   0.59791   0.74889   0.00000  Uiso   1.00
C870   C     0.85137   0.54518   0.90629   0.00000  Uiso   1.00
C871   C     0.83160   0.50043   0.61629   0.00000  Uiso   1.00
C872   C     0.83507   0.49957   0.88371   0.00000  Uiso   1.00
C873   C     0.84850   0.54594   0.59444   0.00000  Uiso   1.00
C874   C     0.81816   0.45406   0.90556   0.00000  Uiso   1.00
C875   C     0.85415   0.54507   0.54725   0.00000  Uiso   1.00
C876   C     0.81252   0.45493   0.95275   0.00000  Uiso   1.00
C877   C     0.83289   0.50015   0.52356   0.00000  Uiso   1.00
C878   C     0.83377   0.49986   0.97644   0.00000  Uiso   1.00
C879   C     0.81082   0.45548   0.54711   0.00000  Uiso   1.00
C880   C     0.81866   0.40209   0.75111   0.00000  Uiso   1.00
C881   C     0.85584   0.54453   0.95289   0.00000  Uiso   1.00
C882   C     0.88138   0.58686   0.52323   0.00000  Uiso   1.00
C883   C     0.78528   0.41315   0.97677   0.00000  Uiso   1.00
C884   C     0.88232   0.58651   0.97631   0.00000  Uiso   1.00
C885   C     0.78434   0.41349   0.52369   0.00000  Uiso   1.00
C886   C     0.85503   0.65157   0.75468   0.00000  Uiso   1.00
C887   C     0.81163   0.34843   0.74532   0.00000  Uiso   1.00
C888   C     0.83390   0.49990   0.83620   0.00000  Uiso   1.00
C889   C     0.83277   0.50010   0.66380   0.00000  Uiso   1.00
C890   C     0.81530   0.45483   0.59371   0.00000  Uiso   1.00
Cl891  Cl    0.80559   0.39741   0.62530   0.00000  Uiso   1.00
Cl892  Cl    0.86108   0.60259   0.87469   0.00000  Uiso   1.00
Cl893  Cl    0.85916   0.60312   0.62834   0.00000  Uiso   1.00
Cl894  Cl    0.80751   0.39688   0.87166   0.00000  Uiso   1.00
H895   H     0.95503   0.62911   0.53524   0.00000  Uiso   1.00
H896   H     0.93518   0.35484   0.75235   0.00000  Uiso   1.00
H897   H     0.77071   0.63948   0.69634   0.00000  Uiso   1.00
H898   H     0.73148   0.64516   0.74765   0.00000  Uiso   1.00
H899   H     0.99798   0.46768   0.67383   0.00000  Uiso   1.00
H900   H     0.99563   0.41792   0.70863   0.00000  Uiso   1.00
H901   H     0.66870   0.53232   0.82617   0.00000  Uiso   1.00
H902   H     0.67104   0.58208   0.79137   0.00000  Uiso   1.00
H903   H     0.89430   0.66363   0.53923   0.00000  Uiso   1.00
H904   H     0.71163   0.37089   0.96476   0.00000  Uiso   1.00
H905   H     0.77235   0.33637   0.96077   0.00000  Uiso   1.00
H906   H     0.95691   0.62795   0.95920   0.00000  Uiso   1.00
H907   H     0.89658   0.66297   0.96247   0.00000  Uiso   1.00
H908   H     0.70975   0.37206   0.54080   0.00000  Uiso   1.00
H909   H     0.77007   0.33704   0.53753   0.00000  Uiso   1.00
H910   H     0.89596   0.36052   0.80366   0.00000  Uiso   1.00
N911   N     0.98344   0.48598   0.73783   0.00000  Uiso   1.00
N912   N     0.98872   0.54391   0.79560   0.00000  Uiso   1.00
N913   N     0.68322   0.51402   0.76217   0.00000  Uiso   1.00
N914   N     0.91147   0.62845   0.54607   0.00000  Uiso   1.00
N915   N     0.75519   0.37156   0.95393   0.00000  Uiso   1.00
N916   N     0.91372   0.62748   0.95242   0.00000  Uiso   1.00
N917   N     0.75294   0.37252   0.54758   0.00000  Uiso   1.00
N918   N     0.90620   0.33643   0.77570   0.00000  Uiso   1.00
N919   N     0.76047   0.66357   0.72430   0.00000  Uiso   1.00
N920   N     0.67795   0.45610   0.70440   0.00000  Uiso   1.00
O921   O     0.79642   0.57952   0.75299   0.00000  Uiso   1.00
O922   O     0.87025   0.42048   0.74702   0.00000  Uiso   1.00
O923   O     0.89280   0.57054   0.74519   0.00000  Uiso   1.00
O924   O     0.77387   0.42946   0.75481   0.00000  Uiso   1.00
O925   O     0.78514   0.50450   0.81998   0.00000  Uiso   1.00
O926   O     0.88153   0.49550   0.68003   0.00000  Uiso   1.00
O927   O     0.88152   0.49552   0.81218   0.00000  Uiso   1.00
O928   O     0.78515   0.50448   0.68783   0.00000  Uiso   1.00
Zn929  Zn    0.76898   0.50600   0.75521   0.00000  Uiso   1.00
Zn930  Zn    0.89769   0.49400   0.74479   0.00000  Uiso   1.00
C931   C     0.18134   0.93124   0.74889   0.00000  Uiso   1.00
C932   C     0.18470   0.87851   0.90629   0.00000  Uiso   1.00
C933   C     0.16493   0.83376   0.61629   0.00000  Uiso   1.00
C934   C     0.16840   0.83290   0.88371   0.00000  Uiso   1.00
C935   C     0.18184   0.87927   0.59444   0.00000  Uiso   1.00
C936   C     0.15150   0.78739   0.90556   0.00000  Uiso   1.00
C937   C     0.18748   0.87841   0.54725   0.00000  Uiso   1.00
C938   C     0.14585   0.78826   0.95275   0.00000  Uiso   1.00
C939   C     0.16622   0.83348   0.52356   0.00000  Uiso   1.00
C940   C     0.16711   0.83319   0.97644   0.00000  Uiso   1.00
C941   C     0.14415   0.78881   0.54711   0.00000  Uiso   1.00
C942   C     0.15199   0.73543   0.75111   0.00000  Uiso   1.00
C943   C     0.18918   0.87786   0.95289   0.00000  Uiso   1.00
C944   C     0.21471   0.92019   0.52323   0.00000  Uiso   1.00
C945   C     0.11862   0.74648   0.97677   0.00000  Uiso   1.00
C946   C     0.21566   0.91984   0.97631   0.00000  Uiso   1.00
C947   C     0.11767   0.74683   0.52369   0.00000  Uiso   1.00
C948   C     0.18837   0.98491   0.75468   0.00000  Uiso   1.00
C949   C     0.14497   0.68176   0.74532   0.00000  Uiso   1.00
C950   C     0.16723   0.83324   0.83620   0.00000  Uiso   1.00
C951   C     0.16610   0.83343   0.66380   0.00000  Uiso   1.00
C952   C     0.14863   0.78816   0.59371   0.00000  Uiso   1.00
Cl953  Cl    0.13892   0.73074   0.62530   0.00000  Uiso   1.00
Cl954  Cl    0.19441   0.93593   0.87469   0.00000  Uiso   1.00
Cl955  Cl    0.19249   0.93646   0.62834   0.00000  Uiso   1.00
Cl956  Cl    0.14084   0.73021   0.87166   0.00000  Uiso   1.00
H957   H     0.28836   0.96245   0.53524   0.00000  Uiso   1.00
H958   H     0.26852   0.68817   0.75235   0.00000  Uiso   1.00
H959   H     0.10404   0.97281   0.69634   0.00000  Uiso   1.00
H960   H     0.06482   0.97850   0.74765   0.00000  Uiso   1.00
H961   H     0.33131   0.80102   0.67383   0.00000  Uiso   1.00
H962   H     0.32896   0.75126   0.70863   0.00000  Uiso   1.00
H963   H     0.00203   0.86565   0.82617   0.00000  Uiso   1.00
H964   H     0.00437   0.91541   0.79137   0.00000  Uiso   1.00
H965   H     0.22764   0.99697   0.53923   0.00000  Uiso   1.00
H966   H     0.04497   0.70423   0.96476   0.00000  Uiso   1.00
H967   H     0.10569   0.66970   0.96077   0.00000  Uiso   1.00
H968   H     0.29025   0.96128   0.95920   0.00000  Uiso   1.00
H969   H     0.22992   0.99630   0.96247   0.00000  Uiso   1.00
H970   H     0.04308   0.70539   0.54080   0.00000  Uiso   1.00
H971   H     0.10341   0.67037   0.53753   0.00000  Uiso   1.00
H972   H     0.22929   0.69386   0.80366   0.00000  Uiso   1.00
N973   N     0.31678   0.81932   0.73783   0.00000  Uiso   1.00
N974   N     0.32205   0.87724   0.79560   0.00000  Uiso   1.00
N975   N     0.01656   0.84735   0.76217   0.00000  Uiso   1.00
N976   N     0.24480   0.96178   0.54607   0.00000  Uiso   1.00
N977   N     0.08852   0.70489   0.95393   0.00000  Uiso   1.00
N978   N     0.24705   0.96082   0.95242   0.00000  Uiso   1.00
N979   N     0.08627   0.70586   0.54758   0.00000  Uiso   1.00
N980   N     0.23953   0.66976   0.77570   0.00000  Uiso   1.00
N981   N     0.09380   0.99691   0.72430   0.00000  Uiso   1.00
N982   N     0.01128   0.78943   0.70440   0.00000  Uiso   1.00
O983   O     0.12975   0.91286   0.75299   0.00000  Uiso   1.00
O984   O     0.20358   0.75381   0.74702   0.00000  Uiso   1.00
O985   O     0.22613   0.90387   0.74519   0.00000  Uiso   1.00
O986   O     0.10720   0.76279   0.75481   0.00000  Uiso   1.00
O987   O     0.11847   0.83784   0.81998   0.00000  Uiso   1.00
O988   O     0.21486   0.82883   0.68003   0.00000  Uiso   1.00
O989   O     0.21485   0.82885   0.81218   0.00000  Uiso   1.00
O990   O     0.11848   0.83781   0.68783   0.00000  Uiso   1.00
Zn991  Zn    0.10231   0.83933   0.75521   0.00000  Uiso   1.00
Zn992  Zn    0.23102   0.82734   0.74479   0.00000  Uiso   1.00
C993   C     0.51467   0.93124   0.74889   0.00000  Uiso   1.00
C994   C     0.51803   0.87851   0.90629   0.00000  Uiso   1.00
C995   C     0.49827   0.83376   0.61629   0.00000  Uiso   1.00
C996   C     0.50173   0.83290   0.88371   0.00000  Uiso   1.00
C997   C     0.51517   0.87927   0.59444   0.00000  Uiso   1.00
C998   C     0.48483   0.78739   0.90556   0.00000  Uiso   1.00
C999   C     0.52081   0.87841   0.54725   0.00000  Uiso   1.00
C1000  C     0.47918   0.78826   0.95275   0.00000  Uiso   1.00
C1001  C     0.49956   0.83348   0.52356   0.00000  Uiso   1.00
C1002  C     0.50044   0.83319   0.97644   0.00000  Uiso   1.00
C1003  C     0.47749   0.78881   0.54711   0.00000  Uiso   1.00
C1004  C     0.48533   0.73543   0.75111   0.00000  Uiso   1.00
C1005  C     0.52251   0.87786   0.95289   0.00000  Uiso   1.00
C1006  C     0.54804   0.92019   0.52323   0.00000  Uiso   1.00
C1007  C     0.45195   0.74648   0.97677   0.00000  Uiso   1.00
C1008  C     0.54899   0.91984   0.97631   0.00000  Uiso   1.00
C1009  C     0.45100   0.74683   0.52369   0.00000  Uiso   1.00
C1010  C     0.52170   0.98491   0.75468   0.00000  Uiso   1.00
C1011  C     0.47830   0.68176   0.74532   0.00000  Uiso   1.00
C1012  C     0.50057   0.83324   0.83620   0.00000  Uiso   1.00
C1013  C     0.49943   0.83343   0.66380   0.00000  Uiso   1.00
C1014  C     0.48197   0.78816   0.59371   0.00000  Uiso   1.00
Cl1015 Cl    0.47226   0.73074   0.62530   0.00000  Uiso   1.00
Cl1016 Cl    0.52774   0.93593   0.87469   0.00000  Uiso   1.00
Cl1017 Cl    0.52583   0.93646   0.62834   0.00000  Uiso   1.00
Cl1018 Cl    0.47418   0.73021   0.87166   0.00000  Uiso   1.00
H1019  H     0.62169   0.96245   0.53524   0.00000  Uiso   1.00
H1020  H     0.60185   0.68817   0.75235   0.00000  Uiso   1.00
H1021  H     0.43737   0.97281   0.69634   0.00000  Uiso   1.00
H1022  H     0.39815   0.97850   0.74765   0.00000  Uiso   1.00
H1023  H     0.66464   0.80102   0.67383   0.00000  Uiso   1.00
H1024  H     0.66229   0.75126   0.70863   0.00000  Uiso   1.00
H1025  H     0.33536   0.86565   0.82617   0.00000  Uiso   1.00
H1026  H     0.33770   0.91541   0.79137   0.00000  Uiso   1.00
H1027  H     0.56097   0.99697   0.53923   0.00000  Uiso   1.00
H1028  H     0.37830   0.70423   0.96476   0.00000  Uiso   1.00
H1029  H     0.43902   0.66970   0.96077   0.00000  Uiso   1.00
H1030  H     0.62358   0.96128   0.95920   0.00000  Uiso   1.00
H1031  H     0.56325   0.99630   0.96247   0.00000  Uiso   1.00
H1032  H     0.37641   0.70539   0.54080   0.00000  Uiso   1.00
H1033  H     0.43674   0.67037   0.53753   0.00000  Uiso   1.00
H1034  H     0.56263   0.69386   0.80366   0.00000  Uiso   1.00
N1035  N     0.65011   0.81932   0.73783   0.00000  Uiso   1.00
N1036  N     0.65539   0.87724   0.79560   0.00000  Uiso   1.00
N1037  N     0.34989   0.84735   0.76217   0.00000  Uiso   1.00
N1038  N     0.57813   0.96178   0.54607   0.00000  Uiso   1.00
N1039  N     0.42186   0.70489   0.95393   0.00000  Uiso   1.00
N1040  N     0.58039   0.96082   0.95242   0.00000  Uiso   1.00
N1041  N     0.41961   0.70586   0.54758   0.00000  Uiso   1.00
N1042  N     0.57287   0.66976   0.77570   0.00000  Uiso   1.00
N1043  N     0.42713   0.99691   0.72430   0.00000  Uiso   1.00
N1044  N     0.34461   0.78943   0.70440   0.00000  Uiso   1.00
O1045  O     0.46308   0.91286   0.75299   0.00000  Uiso   1.00
O1046  O     0.53692   0.75381   0.74702   0.00000  Uiso   1.00
O1047  O     0.55946   0.90387   0.74519   0.00000  Uiso   1.00
O1048  O     0.44054   0.76279   0.75481   0.00000  Uiso   1.00
O1049  O     0.45181   0.83784   0.81998   0.00000  Uiso   1.00
O1050  O     0.54819   0.82883   0.68003   0.00000  Uiso   1.00
O1051  O     0.54819   0.82885   0.81218   0.00000  Uiso   1.00
O1052  O     0.45181   0.83781   0.68783   0.00000  Uiso   1.00
Zn1053 Zn    0.43565   0.83933   0.75521   0.00000  Uiso   1.00
Zn1054 Zn    0.56435   0.82734   0.74479   0.00000  Uiso   1.00
C1055  C     0.84801   0.93124   0.74889   0.00000  Uiso   1.00
C1056  C     0.85137   0.87851   0.90629   0.00000  Uiso   1.00
C1057  C     0.83160   0.83376   0.61629   0.00000  Uiso   1.00
C1058  C     0.83507   0.83290   0.88371   0.00000  Uiso   1.00
C1059  C     0.84850   0.87927   0.59444   0.00000  Uiso   1.00
C1060  C     0.81816   0.78739   0.90556   0.00000  Uiso   1.00
C1061  C     0.85415   0.87841   0.54725   0.00000  Uiso   1.00
C1062  C     0.81252   0.78826   0.95275   0.00000  Uiso   1.00
C1063  C     0.83289   0.83348   0.52356   0.00000  Uiso   1.00
C1064  C     0.83377   0.83319   0.97644   0.00000  Uiso   1.00
C1065  C     0.81082   0.78881   0.54711   0.00000  Uiso   1.00
C1066  C     0.81866   0.73543   0.75111   0.00000  Uiso   1.00
C1067  C     0.85584   0.87786   0.95289   0.00000  Uiso   1.00
C1068  C     0.88138   0.92019   0.52323   0.00000  Uiso   1.00
C1069  C     0.78528   0.74648   0.97677   0.00000  Uiso   1.00
C1070  C     0.88232   0.91984   0.97631   0.00000  Uiso   1.00
C1071  C     0.78434   0.74683   0.52369   0.00000  Uiso   1.00
C1072  C     0.85503   0.98491   0.75468   0.00000  Uiso   1.00
C1073  C     0.81163   0.68176   0.74532   0.00000  Uiso   1.00
C1074  C     0.83390   0.83324   0.83620   0.00000  Uiso   1.00
C1075  C     0.83277   0.83343   0.66380   0.00000  Uiso   1.00
C1076  C     0.81530   0.78816   0.59371   0.00000  Uiso   1.00
Cl1077 Cl    0.80559   0.73074   0.62530   0.00000  Uiso   1.00
Cl1078 Cl    0.86108   0.93593   0.87469   0.00000  Uiso   1.00
Cl1079 Cl    0.85916   0.93646   0.62834   0.00000  Uiso   1.00
Cl1080 Cl    0.80751   0.73021   0.87166   0.00000  Uiso   1.00
H1081  H     0.95503   0.96245   0.53524   0.00000  Uiso   1.00
H1082  H     0.93518   0.68817   0.75235   0.00000  Uiso   1.00
H1083  H     0.77071   0.97281   0.69634   0.00000  Uiso   1.00
H1084  H     0.73148   0.97850   0.74765   0.00000  Uiso   1.00
H1085  H     0.99798   0.80102   0.67383   0.00000  Uiso   1.00
H1086  H     0.99563   0.75126   0.70863   0.00000  Uiso   1.00
H1087  H     0.66870   0.86565   0.82617   0.00000  Uiso   1.00
H1088  H     0.67104   0.91541   0.79137   0.00000  Uiso   1.00
H1089  H     0.89430   0.99697   0.53923   0.00000  Uiso   1.00
H1090  H     0.71163   0.70423   0.96476   0.00000  Uiso   1.00
H1091  H     0.77235   0.66970   0.96077   0.00000  Uiso   1.00
H1092  H     0.95691   0.96128   0.95920   0.00000  Uiso   1.00
H1093  H     0.89658   0.99630   0.96247   0.00000  Uiso   1.00
H1094  H     0.70975   0.70539   0.54080   0.00000  Uiso   1.00
H1095  H     0.77007   0.67037   0.53753   0.00000  Uiso   1.00
H1096  H     0.89596   0.69386   0.80366   0.00000  Uiso   1.00
N1097  N     0.98344   0.81932   0.73783   0.00000  Uiso   1.00
N1098  N     0.98872   0.87724   0.79560   0.00000  Uiso   1.00
N1099  N     0.68322   0.84735   0.76217   0.00000  Uiso   1.00
N1100  N     0.91147   0.96178   0.54607   0.00000  Uiso   1.00
N1101  N     0.75519   0.70489   0.95393   0.00000  Uiso   1.00
N1102  N     0.91372   0.96082   0.95242   0.00000  Uiso   1.00
N1103  N     0.75294   0.70586   0.54758   0.00000  Uiso   1.00
N1104  N     0.90620   0.66976   0.77570   0.00000  Uiso   1.00
N1105  N     0.76047   0.99691   0.72430   0.00000  Uiso   1.00
N1106  N     0.67795   0.78943   0.70440   0.00000  Uiso   1.00
O1107  O     0.79642   0.91286   0.75299   0.00000  Uiso   1.00
O1108  O     0.87025   0.75381   0.74702   0.00000  Uiso   1.00
O1109  O     0.89280   0.90387   0.74519   0.00000  Uiso   1.00
O1110  O     0.77387   0.76279   0.75481   0.00000  Uiso   1.00
O1111  O     0.78514   0.83784   0.81998   0.00000  Uiso   1.00
O1112  O     0.88153   0.82883   0.68003   0.00000  Uiso   1.00
O1113  O     0.88152   0.82885   0.81218   0.00000  Uiso   1.00
O1114  O     0.78515   0.83781   0.68783   0.00000  Uiso   1.00
Zn1115 Zn    0.76898   0.83933   0.75521   0.00000  Uiso   1.00
Zn1116 Zn    0.89769   0.82734   0.74479   0.00000  Uiso   1.00
loop_
_geom_bond_atom_site_label_1
_geom_bond_atom_site_label_2
_geom_bond_distance
_geom_bond_site_symmetry_2
_ccdc_geom_bond_type
C1     O55     1.289   .     A
C1     C18     1.396   .     S
C1     O53     1.273   .     A
C2     C4      1.390   .     A
C2     Cl24    1.782   .     S
C2     C13     1.404   .     A
C3     C21     1.422   .     S
C3     C22     1.390   .     A
C3     C5      1.391   .     A
C4     C20     1.422   .     S
C4     C6      1.391   .     A
C5     Cl25    1.781   .     S
C5     C7      1.405   .     A
C6     Cl26    1.781   .     S
C6     C8      1.405   .     A
C7     C9      1.427   .     A
C7     C14     1.415   .     A
C8     C15     1.415   .     A
C8     C10     1.427   .     A
C9     C11     1.427   .     A
C9     C568    1.406   1_554 S
C10    C13     1.427   .     A
C10    C567    1.406   .     S
C11    C22     1.404   .     A
C11    C17     1.414   .     A
C12    O56     1.289   .     A
C12    C19     1.396   .     S
C12    O54     1.273   .     A
C13    C16     1.414   .     A
C14    N46     1.437   .     S
C14    C574    1.400   1_554 S
C15    N47     1.437   .     S
C15    C575    1.400   .     S
C16    N48     1.437   .     S
C16    C572    1.400   .     S
C17    N49     1.437   .     S
C17    C573    1.400   1_554 S
C18    C205    1.362   .     S
C18    N236    1.444   .     S
C19    C390    1.362   1_545 S
C19    N423    1.444   1_545 S
C20    O59     1.286   .     A
C20    O57     1.285   .     A
C21    O58     1.285   .     A
C21    O60     1.286   .     A
C22    Cl23    1.782   .     S
H27    N46     1.045   .     S
H28    N50     1.044   .     S
H29    N51     1.045   .     S
H30    N51     1.044   .     S
H31    N114    1.045   .     S
H32    N114    1.044   .     S
H33    N168    1.045   1_455 S
H34    N168    1.044   1_455 S
H35    N46     1.045   .     S
H36    N47     1.045   .     S
H37    N47     1.045   .     S
H38    N48     1.045   .     S
H39    N48     1.045   .     S
H40    N49     1.045   .     S
H41    N49     1.045   .     S
H42    N50     1.045   .     S
N43    Zn62    2.022   .     S
N43    N107    1.283   .     S
N43    N114    1.385   .     S
N44    H95     1.045   .     S
N44    H96     1.044   .     S
N44    N107    1.385   .     S
N45    Zn61    2.022   .     S
N45    N167    1.283   1_455 S
N45    N168    1.385   1_455 S
N50    C390    1.444   1_545 S
N51    C205    1.444   .     S
N52    N167    1.385   1_455 S
N52    H156    1.044   1_455 S
N52    H155    1.045   1_455 S
O53    Zn61    1.978   .     S
O54    Zn62    1.978   .     S
O55    Zn62    1.988   .     S
O56    Zn61    1.988   .     S
O57    Zn61    2.001   .     S
O58    Zn62    2.001   .     S
O59    Zn62    2.019   .     S
O60    Zn61    2.019   .     S
C63    O117    1.289   .     A
C63    C80     1.396   .     S
C63    O115    1.273   .     A
C64    C66     1.390   .     A
C64    Cl86    1.782   .     S
C64    C75     1.404   .     A
C65    C83     1.422   .     S
C65    C84     1.390   .     A
C65    C67     1.391   .     A
C66    C82     1.422   .     S
C66    C68     1.391   .     A
C67    Cl87    1.781   .     S
C67    C69     1.405   .     A
C68    Cl88    1.781   .     S
C68    C70     1.405   .     A
C69    C71     1.427   .     A
C69    C76     1.415   .     A
C70    C77     1.415   .     A
C70    C72     1.427   .     A
C71    C73     1.427   .     A
C71    C630    1.406   1_554 S
C72    C75     1.427   .     A
C72    C629    1.406   .     S
C73    C84     1.404   .     A
C73    C79     1.414   .     A
C74    O118    1.289   .     A
C74    C81     1.396   .     S
C74    O116    1.273   .     A
C75    C78     1.414   .     A
C76    N108    1.437   .     S
C76    C636    1.400   1_554 S
C77    N109    1.437   .     S
C77    C637    1.400   .     S
C78    N110    1.437   .     S
C78    C634    1.400   .     S
C79    N111    1.437   .     S
C79    C635    1.400   1_554 S
C80    C267    1.362   .     S
C80    N298    1.444   .     S
C81    C452    1.362   1_545 S
C81    N485    1.444   1_545 S
C82    O121    1.286   .     A
C82    O119    1.285   .     A
C83    O120    1.285   .     A
C83    O122    1.286   .     A
C84    Cl85    1.782   .     S
H89    N108    1.045   .     S
H90    N112    1.044   .     S
H91    N113    1.045   .     S
H92    N113    1.044   .     S
H93    N176    1.045   .     S
H94    N176    1.044   .     S
H97    N108    1.045   .     S
H98    N109    1.045   .     S
H99    N109    1.045   .     S
H100   N110    1.045   .     S
H101   N110    1.045   .     S
H102   N111    1.045   .     S
H103   N111    1.045   .     S
H104   N112    1.045   .     S
N105   Zn124   2.022   .     S
N105   N169    1.283   .     S
N105   N176    1.385   .     S
N106   H157    1.045   .     S
N106   H158    1.044   .     S
N106   N169    1.385   .     S
N107   Zn123   2.022   .     S
N112   C452    1.444   1_545 S
N113   C267    1.444   .     S
O115   Zn123   1.978   .     S
O116   Zn124   1.978   .     S
O117   Zn124   1.988   .     S
O118   Zn123   1.988   .     S
O119   Zn123   2.001   .     S
O120   Zn124   2.001   .     S
O121   Zn124   2.019   .     S
O122   Zn123   2.019   .     S
C125   O179    1.289   .     A
C125   C142    1.396   .     S
C125   O177    1.273   .     A
C126   C128    1.390   .     A
C126   Cl148   1.782   .     S
C126   C137    1.404   .     A
C127   C145    1.422   .     S
C127   C146    1.390   .     A
C127   C129    1.391   .     A
C128   C144    1.422   .     S
C128   C130    1.391   .     A
C129   Cl149   1.781   .     S
C129   C131    1.405   .     A
C130   Cl150   1.781   .     S
C130   C132    1.405   .     A
C131   C133    1.427   .     A
C131   C138    1.415   .     A
C132   C139    1.415   .     A
C132   C134    1.427   .     A
C133   C135    1.427   .     A
C133   C692    1.406   1_554 S
C134   C137    1.427   .     A
C134   C691    1.406   .     S
C135   C146    1.404   .     A
C135   C141    1.414   .     A
C136   O180    1.289   .     A
C136   C143    1.396   .     S
C136   O178    1.273   .     A
C137   C140    1.414   .     A
C138   N170    1.437   .     S
C138   C698    1.400   1_554 S
C139   N171    1.437   .     S
C139   C699    1.400   .     S
C140   N172    1.437   .     S
C140   C696    1.400   .     S
C141   N173    1.437   .     S
C141   C697    1.400   1_554 S
C142   C329    1.362   .     S
C142   N360    1.444   .     S
C143   C514    1.362   1_545 S
C143   N547    1.444   1_545 S
C144   O183    1.286   .     A
C144   O181    1.285   .     A
C145   O182    1.285   .     A
C145   O184    1.286   .     A
C146   Cl147   1.782   .     S
H151   N170    1.045   .     S
H152   N174    1.044   .     S
H153   N175    1.045   .     S
H154   N175    1.044   .     S
H155   N52     1.045   1_655 S
H156   N52     1.044   1_655 S
H159   N170    1.045   .     S
H160   N171    1.045   .     S
H161   N171    1.045   .     S
H162   N172    1.045   .     S
H163   N172    1.045   .     S
H164   N173    1.045   .     S
H165   N173    1.045   .     S
H166   N174    1.045   .     S
N167   Zn186   2.022   .     S
N167   N45     1.283   1_655 S
N167   N52     1.385   1_655 S
N168   H33     1.045   1_655 S
N168   H34     1.044   1_655 S
N168   N45     1.385   1_655 S
N169   Zn185   2.022   .     S
N174   C514    1.444   1_545 S
N175   C329    1.444   .     S
O177   Zn185   1.978   .     S
O178   Zn186   1.978   .     S
O179   Zn186   1.988   .     S
O180   Zn185   1.988   .     S
O181   Zn185   2.001   .     S
O182   Zn186   2.001   .     S
O183   Zn186   2.019   .     S
O184   Zn185   2.019   .     S
C187   O241    1.289   .     A
C187   C204    1.396   .     S
C187   O239    1.273   .     A
C188   C190    1.390   .     A
C188   Cl210   1.782   .     S
C188   C199    1.404   .     A
C189   C207    1.422   .     S
C189   C208    1.390   .     A
C189   C191    1.391   .     A
C190   C206    1.422   .     S
C190   C192    1.391   .     A
C191   Cl211   1.781   .     S
C191   C193    1.405   .     A
C192   Cl212   1.781   .     S
C192   C194    1.405   .     A
C193   C195    1.427   .     A
C193   C200    1.415   .     A
C194   C201    1.415   .     A
C194   C196    1.427   .     A
C195   C197    1.427   .     A
C195   C754    1.406   1_554 S
C196   C199    1.427   .     A
C196   C753    1.406   .     S
C197   C208    1.404   .     A
C197   C203    1.414   .     A
C198   O242    1.289   .     A
C198   C205    1.396   .     S
C198   O240    1.273   .     A
C199   C202    1.414   .     A
C200   N232    1.437   .     S
C200   C760    1.400   1_554 S
C201   N233    1.437   .     S
C201   C761    1.400   .     S
C202   N234    1.437   .     S
C202   C758    1.400   .     S
C203   N235    1.437   .     S
C203   C759    1.400   1_554 S
C204   C391    1.362   .     S
C204   N422    1.444   .     S
C206   O245    1.286   .     A
C206   O243    1.285   .     A
C207   O244    1.285   .     A
C207   O246    1.286   .     A
C208   Cl209   1.782   .     S
H213   N232    1.045   .     S
H214   N236    1.044   .     S
H215   N237    1.045   .     S
H216   N237    1.044   .     S
H217   N300    1.045   .     S
H218   N300    1.044   .     S
H219   N354    1.045   1_455 S
H220   N354    1.044   1_455 S
H221   N232    1.045   .     S
H222   N233    1.045   .     S
H223   N233    1.045   .     S
H224   N234    1.045   .     S
H225   N234    1.045   .     S
H226   N235    1.045   .     S
H227   N235    1.045   .     S
H228   N236    1.045   .     S
N229   Zn248   2.022   .     S
N229   N293    1.283   .     S
N229   N300    1.385   .     S
N230   H281    1.045   .     S
N230   H282    1.044   .     S
N230   N293    1.385   .     S
N231   Zn247   2.022   .     S
N231   N353    1.283   1_455 S
N231   N354    1.385   1_455 S
N237   C391    1.444   .     S
N238   N353    1.385   1_455 S
N238   H342    1.044   1_455 S
N238   H341    1.045   1_455 S
O239   Zn247   1.978   .     S
O240   Zn248   1.978   .     S
O241   Zn248   1.988   .     S
O242   Zn247   1.988   .     S
O243   Zn247   2.001   .     S
O244   Zn248   2.001   .     S
O245   Zn248   2.019   .     S
O246   Zn247   2.019   .     S
C249   O303    1.289   .     A
C249   C266    1.396   .     S
C249   O301    1.273   .     A
C250   C252    1.390   .     A
C250   Cl272   1.782   .     S
C250   C261    1.404   .     A
C251   C269    1.422   .     S
C251   C270    1.390   .     A
C251   C253    1.391   .     A
C252   C268    1.422   .     S
C252   C254    1.391   .     A
C253   Cl273   1.781   .     S
C253   C255    1.405   .     A
C254   Cl274   1.781   .     S
C254   C256    1.405   .     A
C255   C257    1.427   .     A
C255   C262    1.415   .     A
C256   C263    1.415   .     A
C256   C258    1.427   .     A
C257   C259    1.427   .     A
C257   C816    1.406   1_554 S
C258   C261    1.427   .     A
C258   C815    1.406   .     S
C259   C270    1.404   .     A
C259   C265    1.414   .     A
C260   O304    1.289   .     A
C260   C267    1.396   .     S
C260   O302    1.273   .     A
C261   C264    1.414   .     A
C262   N294    1.437   .     S
C262   C822    1.400   1_554 S
C263   N295    1.437   .     S
C263   C823    1.400   .     S
C264   N296    1.437   .     S
C264   C820    1.400   .     S
C265   N297    1.437   .     S
C265   C821    1.400   1_554 S
C266   C453    1.362   .     S
C266   N484    1.444   .     S
C268   O307    1.286   .     A
C268   O305    1.285   .     A
C269   O306    1.285   .     A
C269   O308    1.286   .     A
C270   Cl271   1.782   .     S
H275   N294    1.045   .     S
H276   N298    1.044   .     S
H277   N299    1.045   .     S
H278   N299    1.044   .     S
H279   N362    1.045   .     S
H280   N362    1.044   .     S
H283   N294    1.045   .     S
H284   N295    1.045   .     S
H285   N295    1.045   .     S
H286   N296    1.045   .     S
H287   N296    1.045   .     S
H288   N297    1.045   .     S
H289   N297    1.045   .     S
H290   N298    1.045   .     S
N291   Zn310   2.022   .     S
N291   N355    1.283   .     S
N291   N362    1.385   .     S
N292   H343    1.045   .     S
N292   H344    1.044   .     S
N292   N355    1.385   .     S
N293   Zn309   2.022   .     S
N299   C453    1.444   .     S
O301   Zn309   1.978   .     S
O302   Zn310   1.978   .     S
O303   Zn310   1.988   .     S
O304   Zn309   1.988   .     S
O305   Zn309   2.001   .     S
O306   Zn310   2.001   .     S
O307   Zn310   2.019   .     S
O308   Zn309   2.019   .     S
C311   O365    1.289   .     A
C311   C328    1.396   .     S
C311   O363    1.273   .     A
C312   C314    1.390   .     A
C312   Cl334   1.782   .     S
C312   C323    1.404   .     A
C313   C331    1.422   .     S
C313   C332    1.390   .     A
C313   C315    1.391   .     A
C314   C330    1.422   .     S
C314   C316    1.391   .     A
C315   Cl335   1.781   .     S
C315   C317    1.405   .     A
C316   Cl336   1.781   .     S
C316   C318    1.405   .     A
C317   C319    1.427   .     A
C317   C324    1.415   .     A
C318   C325    1.415   .     A
C318   C320    1.427   .     A
C319   C321    1.427   .     A
C319   C878    1.406   1_554 S
C320   C323    1.427   .     A
C320   C877    1.406   .     S
C321   C332    1.404   .     A
C321   C327    1.414   .     A
C322   O366    1.289   .     A
C322   C329    1.396   .     S
C322   O364    1.273   .     A
C323   C326    1.414   .     A
C324   N356    1.437   .     S
C324   C884    1.400   1_554 S
C325   N357    1.437   .     S
C325   C885    1.400   .     S
C326   N358    1.437   .     S
C326   C882    1.400   .     S
C327   N359    1.437   .     S
C327   C883    1.400   1_554 S
C328   C515    1.362   .     S
C328   N546    1.444   .     S
C330   O369    1.286   .     A
C330   O367    1.285   .     A
C331   O368    1.285   .     A
C331   O370    1.286   .     A
C332   Cl333   1.782   .     S
H337   N356    1.045   .     S
H338   N360    1.044   .     S
H339   N361    1.045   .     S
H340   N361    1.044   .     S
H341   N238    1.045   1_655 S
H342   N238    1.044   1_655 S
H345   N356    1.045   .     S
H346   N357    1.045   .     S
H347   N357    1.045   .     S
H348   N358    1.045   .     S
H349   N358    1.045   .     S
H350   N359    1.045   .     S
H351   N359    1.045   .     S
H352   N360    1.045   .     S
N353   Zn372   2.022   .     S
N353   N231    1.283   1_655 S
N353   N238    1.385   1_655 S
N354   H219    1.045   1_655 S
N354   H220    1.044   1_655 S
N354   N231    1.385   1_655 S
N355   Zn371   2.022   .     S
N361   C515    1.444   .     S
O363   Zn371   1.978   .     S
O364   Zn372   1.978   .     S
O365   Zn372   1.988   .     S
O366   Zn371   1.988   .     S
O367   Zn371   2.001   .     S
O368   Zn372   2.001   .     S
O369   Zn372   2.019   .     S
O370   Zn371   2.019   .     S
C373   O427    1.289   .     A
C373   C390    1.396   .     S
C373   O425    1.273   .     A
C374   C376    1.390   .     A
C374   Cl396   1.782   .     S
C374   C385    1.404   .     A
C375   C393    1.422   .     S
C375   C394    1.390   .     A
C375   C377    1.391   .     A
C376   C392    1.422   .     S
C376   C378    1.391   .     A
C377   Cl397   1.781   .     S
C377   C379    1.405   .     A
C378   Cl398   1.781   .     S
C378   C380    1.405   .     A
C379   C381    1.427   .     A
C379   C386    1.415   .     A
C380   C387    1.415   .     A
C380   C382    1.427   .     A
C381   C383    1.427   .     A
C381   C940    1.406   1_554 S
C382   C385    1.427   .     A
C382   C939    1.406   .     S
C383   C394    1.404   .     A
C383   C389    1.414   .     A
C384   O428    1.289   .     A
C384   C391    1.396   .     S
C384   O426    1.273   .     A
C385   C388    1.414   .     A
C386   N418    1.437   .     S
C386   C946    1.400   1_554 S
C387   N419    1.437   .     S
C387   C947    1.400   .     S
C388   N420    1.437   .     S
C388   C944    1.400   .     S
C389   N421    1.437   .     S
C389   C945    1.400   1_554 S
C390   C19     1.362   1_565 S
C390   N50     1.444   1_565 S
C392   O431    1.286   .     A
C392   O429    1.285   .     A
C393   O430    1.285   .     A
C393   O432    1.286   .     A
C394   Cl395   1.782   .     S
H399   N418    1.045   .     S
H400   N422    1.044   .     S
H401   N423    1.045   .     S
H402   N423    1.044   .     S
H403   N486    1.045   .     S
H404   N486    1.044   .     S
H405   N540    1.045   1_455 S
H406   N540    1.044   1_455 S
H407   N418    1.045   .     S
H408   N419    1.045   .     S
H409   N419    1.045   .     S
H410   N420    1.045   .     S
H411   N420    1.045   .     S
H412   N421    1.045   .     S
H413   N421    1.045   .     S
H414   N422    1.045   .     S
N415   Zn434   2.022   .     S
N415   N479    1.283   .     S
N415   N486    1.385   .     S
N416   H467    1.045   .     S
N416   H468    1.044   .     S
N416   N479    1.385   .     S
N417   Zn433   2.022   .     S
N417   N539    1.283   1_455 S
N417   N540    1.385   1_455 S
N423   C19     1.444   1_565 S
N424   N539    1.385   1_455 S
N424   H528    1.044   1_455 S
N424   H527    1.045   1_455 S
O425   Zn433   1.978   .     S
O426   Zn434   1.978   .     S
O427   Zn434   1.988   .     S
O428   Zn433   1.988   .     S
O429   Zn433   2.001   .     S
O430   Zn434   2.001   .     S
O431   Zn434   2.019   .     S
O432   Zn433   2.019   .     S
C435   O489    1.289   .     A
C435   C452    1.396   .     S
C435   O487    1.273   .     A
C436   C438    1.390   .     A
C436   Cl458   1.782   .     S
C436   C447    1.404   .     A
C437   C455    1.422   .     S
C437   C456    1.390   .     A
C437   C439    1.391   .     A
C438   C454    1.422   .     S
C438   C440    1.391   .     A
C439   Cl459   1.781   .     S
C439   C441    1.405   .     A
C440   Cl460   1.781   .     S
C440   C442    1.405   .     A
C441   C443    1.427   .     A
C441   C448    1.415   .     A
C442   C449    1.415   .     A
C442   C444    1.427   .     A
C443   C445    1.427   .     A
C443   C1002   1.406   1_554 S
C444   C447    1.427   .     A
C444   C1001   1.406   .     S
C445   C456    1.404   .     A
C445   C451    1.414   .     A
C446   O490    1.289   .     A
C446   C453    1.396   .     S
C446   O488    1.273   .     A
C447   C450    1.414   .     A
C448   N480    1.437   .     S
C448   C1008   1.400   1_554 S
C449   N481    1.437   .     S
C449   C1009   1.400   .     S
C450   N482    1.437   .     S
C450   C1006   1.400   .     S
C451   N483    1.437   .     S
C451   C1007   1.400   1_554 S
C452   C81     1.362   1_565 S
C452   N112    1.444   1_565 S
C454   O493    1.286   .     A
C454   O491    1.285   .     A
C455   O492    1.285   .     A
C455   O494    1.286   .     A
C456   Cl457   1.782   .     S
H461   N480    1.045   .     S
H462   N484    1.044   .     S
H463   N485    1.045   .     S
H464   N485    1.044   .     S
H465   N548    1.045   .     S
H466   N548    1.044   .     S
H469   N480    1.045   .     S
H470   N481    1.045   .     S
H471   N481    1.045   .     S
H472   N482    1.045   .     S
H473   N482    1.045   .     S
H474   N483    1.045   .     S
H475   N483    1.045   .     S
H476   N484    1.045   .     S
N477   Zn496   2.022   .     S
N477   N541    1.283   .     S
N477   N548    1.385   .     S
N478   H529    1.045   .     S
N478   H530    1.044   .     S
N478   N541    1.385   .     S
N479   Zn495   2.022   .     S
N485   C81     1.444   1_565 S
O487   Zn495   1.978   .     S
O488   Zn496   1.978   .     S
O489   Zn496   1.988   .     S
O490   Zn495   1.988   .     S
O491   Zn495   2.001   .     S
O492   Zn496   2.001   .     S
O493   Zn496   2.019   .     S
O494   Zn495   2.019   .     S
C497   O551    1.289   .     A
C497   C514    1.396   .     S
C497   O549    1.273   .     A
C498   C500    1.390   .     A
C498   Cl520   1.782   .     S
C498   C509    1.404   .     A
C499   C517    1.422   .     S
C499   C518    1.390   .     A
C499   C501    1.391   .     A
C500   C516    1.422   .     S
C500   C502    1.391   .     A
C501   Cl521   1.781   .     S
C501   C503    1.405   .     A
C502   Cl522   1.781   .     S
C502   C504    1.405   .     A
C503   C505    1.427   .     A
C503   C510    1.415   .     A
C504   C511    1.415   .     A
C504   C506    1.427   .     A
C505   C507    1.427   .     A
C505   C1064   1.406   1_554 S
C506   C509    1.427   .     A
C506   C1063   1.406   .     S
C507   C518    1.404   .     A
C507   C513    1.414   .     A
C508   O552    1.289   .     A
C508   C515    1.396   .     S
C508   O550    1.273   .     A
C509   C512    1.414   .     A
C510   N542    1.437   .     S
C510   C1070   1.400   1_554 S
C511   N543    1.437   .     S
C511   C1071   1.400   .     S
C512   N544    1.437   .     S
C512   C1068   1.400   .     S
C513   N545    1.437   .     S
C513   C1069   1.400   1_554 S
C514   C143    1.362   1_565 S
C514   N174    1.444   1_565 S
C516   O555    1.286   .     A
C516   O553    1.285   .     A
C517   O554    1.285   .     A
C517   O556    1.286   .     A
C518   Cl519   1.782   .     S
H523   N542    1.045   .     S
H524   N546    1.044   .     S
H525   N547    1.045   .     S
H526   N547    1.044   .     S
H527   N424    1.045   1_655 S
H528   N424    1.044   1_655 S
H531   N542    1.045   .     S
H532   N543    1.045   .     S
H533   N543    1.045   .     S
H534   N544    1.045   .     S
H535   N544    1.045   .     S
H536   N545    1.045   .     S
H537   N545    1.045   .     S
H538   N546    1.045   .     S
N539   Zn558   2.022   .     S
N539   N417    1.283   1_655 S
N539   N424    1.385   1_655 S
N540   H405    1.045   1_655 S
N540   H406    1.044   1_655 S
N540   N417    1.385   1_655 S
N541   Zn557   2.022   .     S
N547   C143    1.444   1_565 S
O549   Zn557   1.978   .     S
O550   Zn558   1.978   .     S
O551   Zn558   1.988   .     S
O552   Zn557   1.988   .     S
O553   Zn557   2.001   .     S
O554   Zn558   2.001   .     S
O555   Zn558   2.019   .     S
O556   Zn557   2.019   .     S
C559   O613    1.289   .     A
C559   C576    1.396   .     S
C559   O611    1.273   .     A
C560   C562    1.390   .     A
C560   Cl582   1.782   .     S
C560   C571    1.404   .     A
C561   C579    1.422   .     S
C561   C580    1.390   .     A
C561   C563    1.391   .     A
C562   C578    1.422   .     S
C562   C564    1.391   .     A
C563   Cl583   1.781   .     S
C563   C565    1.405   .     A
C564   Cl584   1.781   .     S
C564   C566    1.405   .     A
C565   C567    1.427   .     A
C565   C572    1.415   .     A
C566   C573    1.415   .     A
C566   C568    1.427   .     A
C567   C569    1.427   .     A
C568   C571    1.427   .     A
C568   C9      1.406   1_556 S
C569   C580    1.404   .     A
C569   C575    1.414   .     A
C570   O614    1.289   .     A
C570   C577    1.396   .     S
C570   O612    1.273   .     A
C571   C574    1.414   .     A
C572   N604    1.437   .     S
C573   N605    1.437   .     S
C573   C17     1.400   1_556 S
C574   N606    1.437   .     S
C574   C14     1.400   1_556 S
C575   N607    1.437   .     S
C576   C763    1.362   .     S
C576   N794    1.444   .     S
C577   C948    1.362   1_545 S
C577   N981    1.444   1_545 S
C578   O617    1.286   .     A
C578   O615    1.285   .     A
C579   O616    1.285   .     A
C579   O618    1.286   .     A
C580   Cl581   1.782   .     S
H585   N604    1.045   .     S
H586   N608    1.044   .     S
H587   N609    1.045   .     S
H588   N609    1.044   .     S
H589   N672    1.045   .     S
H590   N672    1.044   .     S
H591   N726    1.045   1_455 S
H592   N726    1.044   1_455 S
H593   N604    1.045   .     S
H594   N605    1.045   .     S
H595   N605    1.045   .     S
H596   N606    1.045   .     S
H597   N606    1.045   .     S
H598   N607    1.045   .     S
H599   N607    1.045   .     S
H600   N608    1.045   .     S
N601   Zn620   2.022   .     S
N601   N665    1.283   .     S
N601   N672    1.385   .     S
N602   H653    1.045   .     S
N602   H654    1.044   .     S
N602   N665    1.385   .     S
N603   Zn619   2.022   .     S
N603   N725    1.283   1_455 S
N603   N726    1.385   1_455 S
N608   C948    1.444   1_545 S
N609   C763    1.444   .     S
N610   N725    1.385   1_455 S
N610   H714    1.044   1_455 S
N610   H713    1.045   1_455 S
O611   Zn619   1.978   .     S
O612   Zn620   1.978   .     S
O613   Zn620   1.988   .     S
O614   Zn619   1.988   .     S
O615   Zn619   2.001   .     S
O616   Zn620   2.001   .     S
O617   Zn620   2.019   .     S
O618   Zn619   2.019   .     S
C621   O675    1.289   .     A
C621   C638    1.396   .     S
C621   O673    1.273   .     A
C622   C624    1.390   .     A
C622   Cl644   1.782   .     S
C622   C633    1.404   .     A
C623   C641    1.422   .     S
C623   C642    1.390   .     A
C623   C625    1.391   .     A
C624   C640    1.422   .     S
C624   C626    1.391   .     A
C625   Cl645   1.781   .     S
C625   C627    1.405   .     A
C626   Cl646   1.781   .     S
C626   C628    1.405   .     A
C627   C629    1.427   .     A
C627   C634    1.415   .     A
C628   C635    1.415   .     A
C628   C630    1.427   .     A
C629   C631    1.427   .     A
C630   C633    1.427   .     A
C630   C71     1.406   1_556 S
C631   C642    1.404   .     A
C631   C637    1.414   .     A
C632   O676    1.289   .     A
C632   C639    1.396   .     S
C632   O674    1.273   .     A
C633   C636    1.414   .     A
C634   N666    1.437   .     S
C635   N667    1.437   .     S
C635   C79     1.400   1_556 S
C636   N668    1.437   .     S
C636   C76     1.400   1_556 S
C637   N669    1.437   .     S
C638   C825    1.362   .     S
C638   N856    1.444   .     S
C639   C1010   1.362   1_545 S
C639   N1043   1.444   1_545 S
C640   O679    1.286   .     A
C640   O677    1.285   .     A
C641   O678    1.285   .     A
C641   O680    1.286   .     A
C642   Cl643   1.782   .     S
H647   N666    1.045   .     S
H648   N670    1.044   .     S
H649   N671    1.045   .     S
H650   N671    1.044   .     S
H651   N734    1.045   .     S
H652   N734    1.044   .     S
H655   N666    1.045   .     S
H656   N667    1.045   .     S
H657   N667    1.045   .     S
H658   N668    1.045   .     S
H659   N668    1.045   .     S
H660   N669    1.045   .     S
H661   N669    1.045   .     S
H662   N670    1.045   .     S
N663   Zn682   2.022   .     S
N663   N727    1.283   .     S
N663   N734    1.385   .     S
N664   H715    1.045   .     S
N664   H716    1.044   .     S
N664   N727    1.385   .     S
N665   Zn681   2.022   .     S
N670   C1010   1.444   1_545 S
N671   C825    1.444   .     S
O673   Zn681   1.978   .     S
O674   Zn682   1.978   .     S
O675   Zn682   1.988   .     S
O676   Zn681   1.988   .     S
O677   Zn681   2.001   .     S
O678   Zn682   2.001   .     S
O679   Zn682   2.019   .     S
O680   Zn681   2.019   .     S
C683   O737    1.289   .     A
C683   C700    1.396   .     S
C683   O735    1.273   .     A
C684   C686    1.390   .     A
C684   Cl706   1.782   .     S
C684   C695    1.404   .     A
C685   C703    1.422   .     S
C685   C704    1.390   .     A
C685   C687    1.391   .     A
C686   C702    1.422   .     S
C686   C688    1.391   .     A
C687   Cl707   1.781   .     S
C687   C689    1.405   .     A
C688   Cl708   1.781   .     S
C688   C690    1.405   .     A
C689   C691    1.427   .     A
C689   C696    1.415   .     A
C690   C697    1.415   .     A
C690   C692    1.427   .     A
C691   C693    1.427   .     A
C692   C695    1.427   .     A
C692   C133    1.406   1_556 S
C693   C704    1.404   .     A
C693   C699    1.414   .     A
C694   O738    1.289   .     A
C694   C701    1.396   .     S
C694   O736    1.273   .     A
C695   C698    1.414   .     A
C696   N728    1.437   .     S
C697   N729    1.437   .     S
C697   C141    1.400   1_556 S
C698   N730    1.437   .     S
C698   C138    1.400   1_556 S
C699   N731    1.437   .     S
C700   C887    1.362   .     S
C700   N918    1.444   .     S
C701   C1072   1.362   1_545 S
C701   N1105   1.444   1_545 S
C702   O741    1.286   .     A
C702   O739    1.285   .     A
C703   O740    1.285   .     A
C703   O742    1.286   .     A
C704   Cl705   1.782   .     S
H709   N728    1.045   .     S
H710   N732    1.044   .     S
H711   N733    1.045   .     S
H712   N733    1.044   .     S
H713   N610    1.045   1_655 S
H714   N610    1.044   1_655 S
H717   N728    1.045   .     S
H718   N729    1.045   .     S
H719   N729    1.045   .     S
H720   N730    1.045   .     S
H721   N730    1.045   .     S
H722   N731    1.045   .     S
H723   N731    1.045   .     S
H724   N732    1.045   .     S
N725   Zn744   2.022   .     S
N725   N603    1.283   1_655 S
N725   N610    1.385   1_655 S
N726   H591    1.045   1_655 S
N726   H592    1.044   1_655 S
N726   N603    1.385   1_655 S
N727   Zn743   2.022   .     S
N732   C1072   1.444   1_545 S
N733   C887    1.444   .     S
O735   Zn743   1.978   .     S
O736   Zn744   1.978   .     S
O737   Zn744   1.988   .     S
O738   Zn743   1.988   .     S
O739   Zn743   2.001   .     S
O740   Zn744   2.001   .     S
O741   Zn744   2.019   .     S
O742   Zn743   2.019   .     S
C745   O799    1.289   .     A
C745   C762    1.396   .     S
C745   O797    1.273   .     A
C746   C748    1.390   .     A
C746   Cl768   1.782   .     S
C746   C757    1.404   .     A
C747   C765    1.422   .     S
C747   C766    1.390   .     A
C747   C749    1.391   .     A
C748   C764    1.422   .     S
C748   C750    1.391   .     A
C749   Cl769   1.781   .     S
C749   C751    1.405   .     A
C750   Cl770   1.781   .     S
C750   C752    1.405   .     A
C751   C753    1.427   .     A
C751   C758    1.415   .     A
C752   C759    1.415   .     A
C752   C754    1.427   .     A
C753   C755    1.427   .     A
C754   C757    1.427   .     A
C754   C195    1.406   1_556 S
C755   C766    1.404   .     A
C755   C761    1.414   .     A
C756   O800    1.289   .     A
C756   C763    1.396   .     S
C756   O798    1.273   .     A
C757   C760    1.414   .     A
C758   N790    1.437   .     S
C759   N791    1.437   .     S
C759   C203    1.400   1_556 S
C760   N792    1.437   .     S
C760   C200    1.400   1_556 S
C761   N793    1.437   .     S
C762   C949    1.362   .     S
C762   N980    1.444   .     S
C764   O803    1.286   .     A
C764   O801    1.285   .     A
C765   O802    1.285   .     A
C765   O804    1.286   .     A
C766   Cl767   1.782   .     S
H771   N790    1.045   .     S
H772   N794    1.044   .     S
H773   N795    1.045   .     S
H774   N795    1.044   .     S
H775   N858    1.045   .     S
H776   N858    1.044   .     S
H777   N912    1.045   1_455 S
H778   N912    1.044   1_455 S
H779   N790    1.045   .     S
H780   N791    1.045   .     S
H781   N791    1.045   .     S
H782   N792    1.045   .     S
H783   N792    1.045   .     S
H784   N793    1.045   .     S
H785   N793    1.045   .     S
H786   N794    1.045   .     S
N787   Zn806   2.022   .     S
N787   N851    1.283   .     S
N787   N858    1.385   .     S
N788   H839    1.045   .     S
N788   H840    1.044   .     S
N788   N851    1.385   .     S
N789   Zn805   2.022   .     S
N789   N911    1.283   1_455 S
N789   N912    1.385   1_455 S
N795   C949    1.444   .     S
N796   N911    1.385   1_455 S
N796   H900    1.044   1_455 S
N796   H899    1.045   1_455 S
O797   Zn805   1.978   .     S
O798   Zn806   1.978   .     S
O799   Zn806   1.988   .     S
O800   Zn805   1.988   .     S
O801   Zn805   2.001   .     S
O802   Zn806   2.001   .     S
O803   Zn806   2.019   .     S
O804   Zn805   2.019   .     S
C807   O861    1.289   .     A
C807   C824    1.396   .     S
C807   O859    1.273   .     A
C808   C810    1.390   .     A
C808   Cl830   1.782   .     S
C808   C819    1.404   .     A
C809   C827    1.422   .     S
C809   C828    1.390   .     A
C809   C811    1.391   .     A
C810   C826    1.422   .     S
C810   C812    1.391   .     A
C811   Cl831   1.781   .     S
C811   C813    1.405   .     A
C812   Cl832   1.781   .     S
C812   C814    1.405   .     A
C813   C815    1.427   .     A
C813   C820    1.415   .     A
C814   C821    1.415   .     A
C814   C816    1.427   .     A
C815   C817    1.427   .     A
C816   C819    1.427   .     A
C816   C257    1.406   1_556 S
C817   C828    1.404   .     A
C817   C823    1.414   .     A
C818   O862    1.289   .     A
C818   C825    1.396   .     S
C818   O860    1.273   .     A
C819   C822    1.414   .     A
C820   N852    1.437   .     S
C821   N853    1.437   .     S
C821   C265    1.400   1_556 S
C822   N854    1.437   .     S
C822   C262    1.400   1_556 S
C823   N855    1.437   .     S
C824   C1011   1.362   .     S
C824   N1042   1.444   .     S
C826   O865    1.286   .     A
C826   O863    1.285   .     A
C827   O864    1.285   .     A
C827   O866    1.286   .     A
C828   Cl829   1.782   .     S
H833   N852    1.045   .     S
H834   N856    1.044   .     S
H835   N857    1.045   .     S
H836   N857    1.044   .     S
H837   N920    1.045   .     S
H838   N920    1.044   .     S
H841   N852    1.045   .     S
H842   N853    1.045   .     S
H843   N853    1.045   .     S
H844   N854    1.045   .     S
H845   N854    1.045   .     S
H846   N855    1.045   .     S
H847   N855    1.045   .     S
H848   N856    1.045   .     S
N849   Zn868   2.022   .     S
N849   N913    1.283   .     S
N849   N920    1.385   .     S
N850   H901    1.045   .     S
N850   H902    1.044   .     S
N850   N913    1.385   .     S
N851   Zn867   2.022   .     S
N857   C1011   1.444   .     S
O859   Zn867   1.978   .     S
O860   Zn868   1.978   .     S
O861   Zn868   1.988   .     S
O862   Zn867   1.988   .     S
O863   Zn867   2.001   .     S
O864   Zn868   2.001   .     S
O865   Zn868   2.019   .     S
O866   Zn867   2.019   .     S
C869   O923    1.289   .     A
C869   C886    1.396   .     S
C869   O921    1.273   .     A
C870   C872    1.390   .     A
C870   Cl892   1.782   .     S
C870   C881    1.404   .     A
C871   C889    1.422   .     S
C871   C890    1.390   .     A
C871   C873    1.391   .     A
C872   C888    1.422   .     S
C872   C874    1.391   .     A
C873   Cl893   1.781   .     S
C873   C875    1.405   .     A
C874   Cl894   1.781   .     S
C874   C876    1.405   .     A
C875   C877    1.427   .     A
C875   C882    1.415   .     A
C876   C883    1.415   .     A
C876   C878    1.427   .     A
C877   C879    1.427   .     A
C878   C881    1.427   .     A
C878   C319    1.406   1_556 S
C879   C890    1.404   .     A
C879   C885    1.414   .     A
C880   O924    1.289   .     A
C880   C887    1.396   .     S
C880   O922    1.273   .     A
C881   C884    1.414   .     A
C882   N914    1.437   .     S
C883   N915    1.437   .     S
C883   C327    1.400   1_556 S
C884   N916    1.437   .     S
C884   C324    1.400   1_556 S
C885   N917    1.437   .     S
C886   C1073   1.362   .     S
C886   N1104   1.444   .     S
C888   O927    1.286   .     A
C888   O925    1.285   .     A
C889   O926    1.285   .     A
C889   O928    1.286   .     A
C890   Cl891   1.782   .     S
H895   N914    1.045   .     S
H896   N918    1.044   .     S
H897   N919    1.045   .     S
H898   N919    1.044   .     S
H899   N796    1.045   1_655 S
H900   N796    1.044   1_655 S
H903   N914    1.045   .     S
H904   N915    1.045   .     S
H905   N915    1.045   .     S
H906   N916    1.045   .     S
H907   N916    1.045   .     S
H908   N917    1.045   .     S
H909   N917    1.045   .     S
H910   N918    1.045   .     S
N911   Zn930   2.022   .     S
N911   N789    1.283   1_655 S
N911   N796    1.385   1_655 S
N912   H777    1.045   1_655 S
N912   H778    1.044   1_655 S
N912   N789    1.385   1_655 S
N913   Zn929   2.022   .     S
N919   C1073   1.444   .     S
O921   Zn929   1.978   .     S
O922   Zn930   1.978   .     S
O923   Zn930   1.988   .     S
O924   Zn929   1.988   .     S
O925   Zn929   2.001   .     S
O926   Zn930   2.001   .     S
O927   Zn930   2.019   .     S
O928   Zn929   2.019   .     S
C931   O985    1.289   .     A
C931   C948    1.396   .     S
C931   O983    1.273   .     A
C932   C934    1.390   .     A
C932   Cl954   1.782   .     S
C932   C943    1.404   .     A
C933   C951    1.422   .     S
C933   C952    1.390   .     A
C933   C935    1.391   .     A
C934   C950    1.422   .     S
C934   C936    1.391   .     A
C935   Cl955   1.781   .     S
C935   C937    1.405   .     A
C936   Cl956   1.781   .     S
C936   C938    1.405   .     A
C937   C939    1.427   .     A
C937   C944    1.415   .     A
C938   C945    1.415   .     A
C938   C940    1.427   .     A
C939   C941    1.427   .     A
C940   C943    1.427   .     A
C940   C381    1.406   1_556 S
C941   C952    1.404   .     A
C941   C947    1.414   .     A
C942   O986    1.289   .     A
C942   C949    1.396   .     S
C942   O984    1.273   .     A
C943   C946    1.414   .     A
C944   N976    1.437   .     S
C945   N977    1.437   .     S
C945   C389    1.400   1_556 S
C946   N978    1.437   .     S
C946   C386    1.400   1_556 S
C947   N979    1.437   .     S
C948   C577    1.362   1_565 S
C948   N608    1.444   1_565 S
C950   O989    1.286   .     A
C950   O987    1.285   .     A
C951   O988    1.285   .     A
C951   O990    1.286   .     A
C952   Cl953   1.782   .     S
H957   N976    1.045   .     S
H958   N980    1.044   .     S
H959   N981    1.045   .     S
H960   N981    1.044   .     S
H961   N1044   1.045   .     S
H962   N1044   1.044   .     S
H963   N1098   1.045   1_455 S
H964   N1098   1.044   1_455 S
H965   N976    1.045   .     S
H966   N977    1.045   .     S
H967   N977    1.045   .     S
H968   N978    1.045   .     S
H969   N978    1.045   .     S
H970   N979    1.045   .     S
H971   N979    1.045   .     S
H972   N980    1.045   .     S
N973   Zn992   2.022   .     S
N973   N1037   1.283   .     S
N973   N1044   1.385   .     S
N974   H1025   1.045   .     S
N974   H1026   1.044   .     S
N974   N1037   1.385   .     S
N975   Zn991   2.022   .     S
N975   N1097   1.283   1_455 S
N975   N1098   1.385   1_455 S
N981   C577    1.444   1_565 S
N982   N1097   1.385   1_455 S
N982   H1086   1.044   1_455 S
N982   H1085   1.045   1_455 S
O983   Zn991   1.978   .     S
O984   Zn992   1.978   .     S
O985   Zn992   1.988   .     S
O986   Zn991   1.988   .     S
O987   Zn991   2.001   .     S
O988   Zn992   2.001   .     S
O989   Zn992   2.019   .     S
O990   Zn991   2.019   .     S
C993   O1047   1.289   .     A
C993   C1010   1.396   .     S
C993   O1045   1.273   .     A
C994   C996    1.390   .     A
C994   Cl1016  1.782   .     S
C994   C1005   1.404   .     A
C995   C1013   1.422   .     S
C995   C1014   1.390   .     A
C995   C997    1.391   .     A
C996   C1012   1.422   .     S
C996   C998    1.391   .     A
C997   Cl1017  1.781   .     S
C997   C999    1.405   .     A
C998   Cl1018  1.781   .     S
C998   C1000   1.405   .     A
C999   C1001   1.427   .     A
C999   C1006   1.415   .     A
C1000  C1007   1.415   .     A
C1000  C1002   1.427   .     A
C1001  C1003   1.427   .     A
C1002  C1005   1.427   .     A
C1002  C443    1.406   1_556 S
C1003  C1014   1.404   .     A
C1003  C1009   1.414   .     A
C1004  O1048   1.289   .     A
C1004  C1011   1.396   .     S
C1004  O1046   1.273   .     A
C1005  C1008   1.414   .     A
C1006  N1038   1.437   .     S
C1007  N1039   1.437   .     S
C1007  C451    1.400   1_556 S
C1008  N1040   1.437   .     S
C1008  C448    1.400   1_556 S
C1009  N1041   1.437   .     S
C1010  C639    1.362   1_565 S
C1010  N670    1.444   1_565 S
C1012  O1051   1.286   .     A
C1012  O1049   1.285   .     A
C1013  O1050   1.285   .     A
C1013  O1052   1.286   .     A
C1014  Cl1015  1.782   .     S
H1019  N1038   1.045   .     S
H1020  N1042   1.044   .     S
H1021  N1043   1.045   .     S
H1022  N1043   1.044   .     S
H1023  N1106   1.045   .     S
H1024  N1106   1.044   .     S
H1027  N1038   1.045   .     S
H1028  N1039   1.045   .     S
H1029  N1039   1.045   .     S
H1030  N1040   1.045   .     S
H1031  N1040   1.045   .     S
H1032  N1041   1.045   .     S
H1033  N1041   1.045   .     S
H1034  N1042   1.045   .     S
N1035  Zn1054  2.022   .     S
N1035  N1099   1.283   .     S
N1035  N1106   1.385   .     S
N1036  H1087   1.045   .     S
N1036  H1088   1.044   .     S
N1036  N1099   1.385   .     S
N1037  Zn1053  2.022   .     S
N1043  C639    1.444   1_565 S
O1045  Zn1053  1.978   .     S
O1046  Zn1054  1.978   .     S
O1047  Zn1054  1.988   .     S
O1048  Zn1053  1.988   .     S
O1049  Zn1053  2.001   .     S
O1050  Zn1054  2.001   .     S
O1051  Zn1054  2.019   .     S
O1052  Zn1053  2.019   .     S
C1055  O1109   1.289   .     A
C1055  C1072   1.396   .     S
C1055  O1107   1.273   .     A
C1056  C1058   1.390   .     A
C1056  Cl1078  1.782   .     S
C1056  C1067   1.404   .     A
C1057  C1075   1.422   .     S
C1057  C1076   1.390   .     A
C1057  C1059   1.391   .     A
C1058  C1074   1.422   .     S
C1058  C1060   1.391   .     A
C1059  Cl1079  1.781   .     S
C1059  C1061   1.405   .     A
C1060  Cl1080  1.781   .     S
C1060  C1062   1.405   .     A
C1061  C1063   1.427   .     A
C1061  C1068   1.415   .     A
C1062  C1069   1.415   .     A
C1062  C1064   1.427   .     A
C1063  C1065   1.427   .     A
C1064  C1067   1.427   .     A
C1064  C505    1.406   1_556 S
C1065  C1076   1.404   .     A
C1065  C1071   1.414   .     A
C1066  O1110   1.289   .     A
C1066  C1073   1.396   .     S
C1066  O1108   1.273   .     A
C1067  C1070   1.414   .     A
C1068  N1100   1.437   .     S
C1069  N1101   1.437   .     S
C1069  C513    1.400   1_556 S
C1070  N1102   1.437   .     S
C1070  C510    1.400   1_556 S
C1071  N1103   1.437   .     S
C1072  C701    1.362   1_565 S
C1072  N732    1.444   1_565 S
C1074  O1113   1.286   .     A
C1074  O1111   1.285   .     A
C1075  O1112   1.285   .     A
C1075  O1114   1.286   .     A
C1076  Cl1077  1.782   .     S
H1081  N1100   1.045   .     S
H1082  N1104   1.044   .     S
H1083  N1105   1.045   .     S
H1084  N1105   1.044   .     S
H1085  N982    1.045   1_655 S
H1086  N982    1.044   1_655 S
H1089  N1100   1.045   .     S
H1090  N1101   1.045   .     S
H1091  N1101   1.045   .     S
H1092  N1102   1.045   .     S
H1093  N1102   1.045   .     S
H1094  N1103   1.045   .     S
H1095  N1103   1.045   .     S
H1096  N1104   1.045   .     S
N1097  Zn1116  2.022   .     S
N1097  N975    1.283   1_655 S
N1097  N982    1.385   1_655 S
N1098  H963    1.045   1_655 S
N1098  H964    1.044   1_655 S
N1098  N975    1.385   1_655 S
N1099  Zn1115  2.022   .     S
N1105  C701    1.444   1_565 S
O1107  Zn1115  1.978   .     S
O1108  Zn1116  1.978   .     S
O1109  Zn1116  1.988   .     S
O1110  Zn1115  1.988   .     S
O1111  Zn1115  2.001   .     S
O1112  Zn1116  2.001   .     S
O1113  Zn1116  2.019   .     S
O1114  Zn1115  2.019   .     S
