data_str_m2_o1_o16_pcu_sym.199
_audit_creation_date              2020-01-03
_audit_creation_method            'Materials Studio'
_symmetry_space_group_name_H-M    'P1'
_symmetry_Int_Tables_number       1
_symmetry_cell_setting            triclinic
loop_
_symmetry_equiv_pos_as_xyz
  x,y,z
_cell_length_a                    28.5193
_cell_length_b                    32.4806
_cell_length_c                    26.8904
_cell_angle_alpha                 90.3990
_cell_angle_beta                  72.6110
_cell_angle_gamma                 89.9189
loop_
_atom_site_label
_atom_site_type_symbol
_atom_site_fract_x
_atom_site_fract_y
_atom_site_fract_z
_atom_site_U_iso_or_equiv
_atom_site_adp_type
_atom_site_occupancy
C1     C     0.16597   0.24598   0.25205   0.00000  Uiso   1.00
C2     C     0.14475   0.17369   0.48946   0.00000  Uiso   1.00
C3     C     0.15587   0.18570   0.43657   0.00000  Uiso   1.00
C4     C     0.18124   0.17805   0.01539   0.00000  Uiso   1.00
C5     C     0.22710   0.19659   0.48943   0.00000  Uiso   1.00
C6     C     0.23427   0.21469   0.44021   0.00000  Uiso   1.00
C7     C     0.19732   0.21147   0.41514   0.00000  Uiso   1.00
C8     C     0.17332   0.16462   0.06685   0.00000  Uiso   1.00
C9     C     0.25389   0.18730   0.06670   0.00000  Uiso   1.00
C10    C     0.12413   0.17223   0.40751   0.00000  Uiso   1.00
C11    C     0.20964   0.31173   0.23715   0.00000  Uiso   1.00
C12    C     0.14043   0.16926   0.35008   0.00000  Uiso   1.00
C13    C     0.21034   0.02092   0.23582   0.00000  Uiso   1.00
C14    C     0.16620   0.04292   0.25159   0.00000  Uiso   1.00
C15    C     0.12138   0.02241   0.27011   0.00000  Uiso   1.00
C16    C     0.12013   0.31307   0.27347   0.00000  Uiso   1.00
C17    C     0.16486   0.29074   0.25507   0.00000  Uiso   1.00
C18    C     0.31780   0.19143   0.21685   0.00000  Uiso   1.00
C19    C     0.03410   0.19143   0.21686   0.00000  Uiso   1.00
C20    C     0.01548   0.14207   0.28331   0.00000  Uiso   1.00
C21    C     0.29920   0.14202   0.28324   0.00000  Uiso   1.00
C22    C     0.16665   0.08741   0.25012   0.00000  Uiso   1.00
C23    C     0.19289   0.16674   0.14993   0.00000  Uiso   1.00
C24    C     0.26359   0.19945   0.01522   0.00000  Uiso   1.00
C25    C     0.20793   0.17143   0.09327   0.00000  Uiso   1.00
C26    C     0.07749   0.15672   0.43379   0.00000  Uiso   1.00
C27    C     0.06359   0.15118   0.48716   0.00000  Uiso   1.00
C28    C     0.09702   0.15828   0.01463   0.00000  Uiso   1.00
Cu29   Cu    0.11978   0.16666   0.25000   0.00000  Uiso   1.00
Cu30   Cu    0.21355   0.16667   0.25000   0.00000  Uiso   1.00
H31    H     0.28145   0.19234   0.08640   0.00000  Uiso   1.00
H32    H     0.24529   0.03654   0.22150   0.00000  Uiso   1.00
H33    H     0.08739   0.03980   0.28396   0.00000  Uiso   1.00
H34    H     0.30648   0.21126   0.19035   0.00000  Uiso   1.00
H35    H     0.06024   0.21130   0.19038   0.00000  Uiso   1.00
H36    H     0.02675   0.12236   0.30996   0.00000  Uiso   1.00
H37    H     0.27302   0.12226   0.30986   0.00000  Uiso   1.00
H38    H     0.29923   0.21282   0.49687   0.00000  Uiso   1.00
H39    H     0.13992   0.14953   0.08823   0.00000  Uiso   1.00
H40    H     0.05206   0.14759   0.41283   0.00000  Uiso   1.00
H41    H     0.08368   0.15210   0.05571   0.00000  Uiso   1.00
H42    H     0.02735   0.13946   0.00710   0.00000  Uiso   1.00
H43    H     0.24422   0.29525   0.22320   0.00000  Uiso   1.00
N44    N     0.04931   0.16666   0.24999   0.00000  Uiso   1.00
N45    N     0.28402   0.16669   0.24999   0.00000  Uiso   1.00
O46    O     0.12708   0.22678   0.25001   0.00000  Uiso   1.00
O47    O     0.20627   0.22679   0.25001   0.00000  Uiso   1.00
O48    O     0.10775   0.16665   0.32549   0.00000  Uiso   1.00
O49    O     0.18694   0.16666   0.32549   0.00000  Uiso   1.00
O50    O     0.12706   0.10654   0.25000   0.00000  Uiso   1.00
O51    O     0.20625   0.10655   0.24999   0.00000  Uiso   1.00
O52    O     0.14640   0.16667   0.17451   0.00000  Uiso   1.00
O53    O     0.22559   0.16668   0.17451   0.00000  Uiso   1.00
C54    C     0.07189   0.29371   0.29849   0.00000  Uiso   1.00
O55    O     0.06818   0.26696   0.33118   0.00000  Uiso   1.00
O56    O     0.03028   0.30726   0.28595   0.00000  Uiso   1.00
H57    H     0.33295   0.29146   0.30495   0.00000  Uiso   1.00
C58    C     0.27831   0.24039   0.41757   0.00000  Uiso   1.00
O59    O     0.31833   0.22391   0.39872   0.00000  Uiso   1.00
O60    O     0.27381   0.28325   0.41830   0.00000  Uiso   1.00
H61    H     0.30649   0.29745   0.40278   0.00000  Uiso   1.00
C62    C     0.19737   0.24112   0.37292   0.00000  Uiso   1.00
O63    O     0.16012   0.26075   0.37568   0.00000  Uiso   1.00
O64    O     0.23921   0.24780   0.33070   0.00000  Uiso   1.00
H65    H     0.26575   0.22638   0.32751   0.00000  Uiso   1.00
C66    C     0.49931   0.24598   0.25205   0.00000  Uiso   1.00
C67    C     0.47808   0.17369   0.48946   0.00000  Uiso   1.00
C68    C     0.48921   0.18570   0.43657   0.00000  Uiso   1.00
C69    C     0.51458   0.17805   0.01539   0.00000  Uiso   1.00
C70    C     0.56044   0.19659   0.48943   0.00000  Uiso   1.00
C71    C     0.56760   0.21469   0.44021   0.00000  Uiso   1.00
C72    C     0.53066   0.21147   0.41514   0.00000  Uiso   1.00
C73    C     0.50666   0.16462   0.06685   0.00000  Uiso   1.00
C74    C     0.58722   0.18730   0.06670   0.00000  Uiso   1.00
C75    C     0.45746   0.17223   0.40751   0.00000  Uiso   1.00
C76    C     0.54297   0.31173   0.23715   0.00000  Uiso   1.00
C77    C     0.47376   0.16926   0.35008   0.00000  Uiso   1.00
C78    C     0.54367   0.02092   0.23582   0.00000  Uiso   1.00
C79    C     0.49953   0.04292   0.25159   0.00000  Uiso   1.00
C80    C     0.45471   0.02241   0.27011   0.00000  Uiso   1.00
C81    C     0.45347   0.31307   0.27347   0.00000  Uiso   1.00
C82    C     0.49819   0.29074   0.25507   0.00000  Uiso   1.00
C83    C     0.65113   0.19143   0.21685   0.00000  Uiso   1.00
C84    C     0.36743   0.19143   0.21686   0.00000  Uiso   1.00
C85    C     0.34882   0.14207   0.28331   0.00000  Uiso   1.00
C86    C     0.63253   0.14202   0.28324   0.00000  Uiso   1.00
C87    C     0.49999   0.08741   0.25012   0.00000  Uiso   1.00
C88    C     0.52622   0.16674   0.14993   0.00000  Uiso   1.00
C89    C     0.59692   0.19945   0.01522   0.00000  Uiso   1.00
C90    C     0.54126   0.17143   0.09327   0.00000  Uiso   1.00
C91    C     0.41082   0.15672   0.43379   0.00000  Uiso   1.00
C92    C     0.39692   0.15118   0.48716   0.00000  Uiso   1.00
C93    C     0.43035   0.15828   0.01463   0.00000  Uiso   1.00
Cu94   Cu    0.45311   0.16666   0.25000   0.00000  Uiso   1.00
Cu95   Cu    0.54689   0.16667   0.25000   0.00000  Uiso   1.00
H96    H     0.61479   0.19234   0.08640   0.00000  Uiso   1.00
H97    H     0.57862   0.03654   0.22150   0.00000  Uiso   1.00
H98    H     0.42073   0.03980   0.28396   0.00000  Uiso   1.00
H99    H     0.63982   0.21126   0.19035   0.00000  Uiso   1.00
H100   H     0.39358   0.21130   0.19038   0.00000  Uiso   1.00
H101   H     0.36009   0.12236   0.30996   0.00000  Uiso   1.00
H102   H     0.60635   0.12226   0.30986   0.00000  Uiso   1.00
H103   H     0.63256   0.21282   0.49687   0.00000  Uiso   1.00
H104   H     0.47325   0.14953   0.08823   0.00000  Uiso   1.00
H105   H     0.38540   0.14759   0.41283   0.00000  Uiso   1.00
H106   H     0.41702   0.15210   0.05571   0.00000  Uiso   1.00
H107   H     0.36069   0.13946   0.00710   0.00000  Uiso   1.00
H108   H     0.57755   0.29525   0.22320   0.00000  Uiso   1.00
N109   N     0.38265   0.16666   0.24999   0.00000  Uiso   1.00
N110   N     0.61735   0.16669   0.24999   0.00000  Uiso   1.00
O111   O     0.46042   0.22678   0.25001   0.00000  Uiso   1.00
O112   O     0.53961   0.22679   0.25001   0.00000  Uiso   1.00
O113   O     0.44108   0.16665   0.32549   0.00000  Uiso   1.00
O114   O     0.52027   0.16666   0.32549   0.00000  Uiso   1.00
O115   O     0.46039   0.10654   0.25000   0.00000  Uiso   1.00
O116   O     0.53958   0.10655   0.24999   0.00000  Uiso   1.00
O117   O     0.47973   0.16667   0.17451   0.00000  Uiso   1.00
O118   O     0.55892   0.16668   0.17451   0.00000  Uiso   1.00
C119   C     0.40522   0.29371   0.29849   0.00000  Uiso   1.00
O120   O     0.40151   0.26696   0.33118   0.00000  Uiso   1.00
O121   O     0.36362   0.30726   0.28595   0.00000  Uiso   1.00
H122   H     0.66628   0.29146   0.30495   0.00000  Uiso   1.00
C123   C     0.61164   0.24039   0.41757   0.00000  Uiso   1.00
O124   O     0.65166   0.22391   0.39872   0.00000  Uiso   1.00
O125   O     0.60715   0.28325   0.41830   0.00000  Uiso   1.00
H126   H     0.63982   0.29745   0.40278   0.00000  Uiso   1.00
C127   C     0.53070   0.24112   0.37292   0.00000  Uiso   1.00
O128   O     0.49345   0.26075   0.37568   0.00000  Uiso   1.00
O129   O     0.57254   0.24780   0.33070   0.00000  Uiso   1.00
H130   H     0.59908   0.22638   0.32751   0.00000  Uiso   1.00
C131   C     0.83264   0.24598   0.25205   0.00000  Uiso   1.00
C132   C     0.81142   0.17369   0.48946   0.00000  Uiso   1.00
C133   C     0.82254   0.18570   0.43657   0.00000  Uiso   1.00
C134   C     0.84791   0.17805   0.01539   0.00000  Uiso   1.00
C135   C     0.89377   0.19659   0.48943   0.00000  Uiso   1.00
C136   C     0.90094   0.21469   0.44021   0.00000  Uiso   1.00
C137   C     0.86399   0.21147   0.41514   0.00000  Uiso   1.00
C138   C     0.83999   0.16462   0.06685   0.00000  Uiso   1.00
C139   C     0.92055   0.18730   0.06670   0.00000  Uiso   1.00
C140   C     0.79079   0.17223   0.40751   0.00000  Uiso   1.00
C141   C     0.87631   0.31173   0.23715   0.00000  Uiso   1.00
C142   C     0.80710   0.16926   0.35008   0.00000  Uiso   1.00
C143   C     0.87700   0.02092   0.23582   0.00000  Uiso   1.00
C144   C     0.83286   0.04292   0.25159   0.00000  Uiso   1.00
C145   C     0.78805   0.02241   0.27011   0.00000  Uiso   1.00
C146   C     0.78680   0.31307   0.27347   0.00000  Uiso   1.00
C147   C     0.83153   0.29074   0.25507   0.00000  Uiso   1.00
C148   C     0.98447   0.19143   0.21685   0.00000  Uiso   1.00
C149   C     0.70077   0.19143   0.21686   0.00000  Uiso   1.00
C150   C     0.68215   0.14207   0.28331   0.00000  Uiso   1.00
C151   C     0.96587   0.14202   0.28324   0.00000  Uiso   1.00
C152   C     0.83332   0.08741   0.25012   0.00000  Uiso   1.00
C153   C     0.85956   0.16674   0.14993   0.00000  Uiso   1.00
C154   C     0.93026   0.19945   0.01522   0.00000  Uiso   1.00
C155   C     0.87459   0.17143   0.09327   0.00000  Uiso   1.00
C156   C     0.74415   0.15672   0.43379   0.00000  Uiso   1.00
C157   C     0.73026   0.15118   0.48716   0.00000  Uiso   1.00
C158   C     0.76369   0.15828   0.01463   0.00000  Uiso   1.00
Cu159  Cu    0.78645   0.16666   0.25000   0.00000  Uiso   1.00
Cu160  Cu    0.88022   0.16667   0.25000   0.00000  Uiso   1.00
H161   H     0.94812   0.19234   0.08640   0.00000  Uiso   1.00
H162   H     0.91196   0.03654   0.22150   0.00000  Uiso   1.00
H163   H     0.75406   0.03980   0.28396   0.00000  Uiso   1.00
H164   H     0.97315   0.21126   0.19035   0.00000  Uiso   1.00
H165   H     0.72691   0.21130   0.19038   0.00000  Uiso   1.00
H166   H     0.69342   0.12236   0.30996   0.00000  Uiso   1.00
H167   H     0.93969   0.12226   0.30986   0.00000  Uiso   1.00
H168   H     0.96589   0.21282   0.49687   0.00000  Uiso   1.00
H169   H     0.80658   0.14953   0.08823   0.00000  Uiso   1.00
H170   H     0.71873   0.14759   0.41283   0.00000  Uiso   1.00
H171   H     0.75035   0.15210   0.05571   0.00000  Uiso   1.00
H172   H     0.69402   0.13946   0.00710   0.00000  Uiso   1.00
H173   H     0.91089   0.29525   0.22320   0.00000  Uiso   1.00
N174   N     0.71598   0.16666   0.24999   0.00000  Uiso   1.00
N175   N     0.95069   0.16669   0.24999   0.00000  Uiso   1.00
O176   O     0.79375   0.22678   0.25001   0.00000  Uiso   1.00
O177   O     0.87294   0.22679   0.25001   0.00000  Uiso   1.00
O178   O     0.77441   0.16665   0.32549   0.00000  Uiso   1.00
O179   O     0.85360   0.16666   0.32549   0.00000  Uiso   1.00
O180   O     0.79373   0.10654   0.25000   0.00000  Uiso   1.00
O181   O     0.87292   0.10655   0.24999   0.00000  Uiso   1.00
O182   O     0.81306   0.16667   0.17451   0.00000  Uiso   1.00
O183   O     0.89225   0.16668   0.17451   0.00000  Uiso   1.00
C184   C     0.73856   0.29371   0.29849   0.00000  Uiso   1.00
O185   O     0.73485   0.26696   0.33118   0.00000  Uiso   1.00
O186   O     0.69695   0.30726   0.28595   0.00000  Uiso   1.00
H187   H     0.99962   0.29146   0.30495   0.00000  Uiso   1.00
C188   C     0.94498   0.24039   0.41757   0.00000  Uiso   1.00
O189   O     0.98500   0.22391   0.39872   0.00000  Uiso   1.00
O190   O     0.94048   0.28325   0.41830   0.00000  Uiso   1.00
H191   H     0.97316   0.29745   0.40278   0.00000  Uiso   1.00
C192   C     0.86404   0.24112   0.37292   0.00000  Uiso   1.00
O193   O     0.82679   0.26075   0.37568   0.00000  Uiso   1.00
O194   O     0.90587   0.24780   0.33070   0.00000  Uiso   1.00
H195   H     0.93242   0.22638   0.32751   0.00000  Uiso   1.00
C196   C     0.16597   0.57932   0.25205   0.00000  Uiso   1.00
C197   C     0.14475   0.50702   0.48946   0.00000  Uiso   1.00
C198   C     0.15587   0.51903   0.43657   0.00000  Uiso   1.00
C199   C     0.18124   0.51138   0.01539   0.00000  Uiso   1.00
C200   C     0.22710   0.52992   0.48943   0.00000  Uiso   1.00
C201   C     0.23427   0.54803   0.44021   0.00000  Uiso   1.00
C202   C     0.19732   0.54480   0.41514   0.00000  Uiso   1.00
C203   C     0.17332   0.49795   0.06685   0.00000  Uiso   1.00
C204   C     0.25389   0.52064   0.06670   0.00000  Uiso   1.00
C205   C     0.12413   0.50557   0.40751   0.00000  Uiso   1.00
C206   C     0.20964   0.64506   0.23715   0.00000  Uiso   1.00
C207   C     0.14043   0.50260   0.35008   0.00000  Uiso   1.00
C208   C     0.21034   0.35425   0.23582   0.00000  Uiso   1.00
C209   C     0.16620   0.37625   0.25159   0.00000  Uiso   1.00
C210   C     0.12138   0.35574   0.27011   0.00000  Uiso   1.00
C211   C     0.12013   0.64641   0.27347   0.00000  Uiso   1.00
C212   C     0.16486   0.62407   0.25507   0.00000  Uiso   1.00
C213   C     0.31780   0.52476   0.21685   0.00000  Uiso   1.00
C214   C     0.03410   0.52476   0.21686   0.00000  Uiso   1.00
C215   C     0.01548   0.47540   0.28331   0.00000  Uiso   1.00
C216   C     0.29920   0.47535   0.28324   0.00000  Uiso   1.00
C217   C     0.16665   0.42074   0.25012   0.00000  Uiso   1.00
C218   C     0.19289   0.50007   0.14993   0.00000  Uiso   1.00
C219   C     0.26359   0.53279   0.01522   0.00000  Uiso   1.00
C220   C     0.20793   0.50477   0.09327   0.00000  Uiso   1.00
C221   C     0.07749   0.49005   0.43379   0.00000  Uiso   1.00
C222   C     0.06359   0.48451   0.48716   0.00000  Uiso   1.00
C223   C     0.09702   0.49161   0.01463   0.00000  Uiso   1.00
Cu224  Cu    0.11978   0.49999   0.25000   0.00000  Uiso   1.00
Cu225  Cu    0.21355   0.50001   0.25000   0.00000  Uiso   1.00
H226   H     0.28145   0.52567   0.08640   0.00000  Uiso   1.00
H227   H     0.24529   0.36987   0.22150   0.00000  Uiso   1.00
H228   H     0.08739   0.37313   0.28396   0.00000  Uiso   1.00
H229   H     0.30648   0.54460   0.19035   0.00000  Uiso   1.00
H230   H     0.06024   0.54463   0.19038   0.00000  Uiso   1.00
H231   H     0.02675   0.45569   0.30996   0.00000  Uiso   1.00
H232   H     0.27302   0.45560   0.30986   0.00000  Uiso   1.00
H233   H     0.29923   0.54615   0.49687   0.00000  Uiso   1.00
H234   H     0.13992   0.48287   0.08823   0.00000  Uiso   1.00
H235   H     0.05206   0.48093   0.41283   0.00000  Uiso   1.00
H236   H     0.08368   0.48544   0.05571   0.00000  Uiso   1.00
H237   H     0.02735   0.47279   0.00710   0.00000  Uiso   1.00
H238   H     0.24422   0.62859   0.22320   0.00000  Uiso   1.00
N239   N     0.04931   0.49999   0.24999   0.00000  Uiso   1.00
N240   N     0.28402   0.50002   0.24999   0.00000  Uiso   1.00
O241   O     0.12708   0.56011   0.25001   0.00000  Uiso   1.00
O242   O     0.20627   0.56012   0.25001   0.00000  Uiso   1.00
O243   O     0.10775   0.49998   0.32549   0.00000  Uiso   1.00
O244   O     0.18694   0.49999   0.32549   0.00000  Uiso   1.00
O245   O     0.12706   0.43988   0.25000   0.00000  Uiso   1.00
O246   O     0.20625   0.43989   0.24999   0.00000  Uiso   1.00
O247   O     0.14640   0.50001   0.17451   0.00000  Uiso   1.00
O248   O     0.22559   0.50002   0.17451   0.00000  Uiso   1.00
C249   C     0.07189   0.62705   0.29849   0.00000  Uiso   1.00
O250   O     0.06818   0.60029   0.33118   0.00000  Uiso   1.00
O251   O     0.03028   0.64059   0.28595   0.00000  Uiso   1.00
H252   H     0.33295   0.62479   0.30495   0.00000  Uiso   1.00
C253   C     0.27831   0.57372   0.41757   0.00000  Uiso   1.00
O254   O     0.31833   0.55725   0.39872   0.00000  Uiso   1.00
O255   O     0.27381   0.61658   0.41830   0.00000  Uiso   1.00
H256   H     0.30649   0.63079   0.40278   0.00000  Uiso   1.00
C257   C     0.19737   0.57446   0.37292   0.00000  Uiso   1.00
O258   O     0.16012   0.59408   0.37568   0.00000  Uiso   1.00
O259   O     0.23921   0.58113   0.33070   0.00000  Uiso   1.00
H260   H     0.26575   0.55971   0.32751   0.00000  Uiso   1.00
C261   C     0.49931   0.57932   0.25205   0.00000  Uiso   1.00
C262   C     0.47808   0.50702   0.48946   0.00000  Uiso   1.00
C263   C     0.48921   0.51903   0.43657   0.00000  Uiso   1.00
C264   C     0.51458   0.51138   0.01539   0.00000  Uiso   1.00
C265   C     0.56044   0.52992   0.48943   0.00000  Uiso   1.00
C266   C     0.56760   0.54803   0.44021   0.00000  Uiso   1.00
C267   C     0.53066   0.54480   0.41514   0.00000  Uiso   1.00
C268   C     0.50666   0.49795   0.06685   0.00000  Uiso   1.00
C269   C     0.58722   0.52064   0.06670   0.00000  Uiso   1.00
C270   C     0.45746   0.50557   0.40751   0.00000  Uiso   1.00
C271   C     0.54297   0.64506   0.23715   0.00000  Uiso   1.00
C272   C     0.47376   0.50260   0.35008   0.00000  Uiso   1.00
C273   C     0.54367   0.35425   0.23582   0.00000  Uiso   1.00
C274   C     0.49953   0.37625   0.25159   0.00000  Uiso   1.00
C275   C     0.45471   0.35574   0.27011   0.00000  Uiso   1.00
C276   C     0.45347   0.64641   0.27347   0.00000  Uiso   1.00
C277   C     0.49819   0.62407   0.25507   0.00000  Uiso   1.00
C278   C     0.65113   0.52476   0.21685   0.00000  Uiso   1.00
C279   C     0.36743   0.52476   0.21686   0.00000  Uiso   1.00
C280   C     0.34882   0.47540   0.28331   0.00000  Uiso   1.00
C281   C     0.63253   0.47535   0.28324   0.00000  Uiso   1.00
C282   C     0.49999   0.42074   0.25012   0.00000  Uiso   1.00
C283   C     0.52622   0.50007   0.14993   0.00000  Uiso   1.00
C284   C     0.59692   0.53279   0.01522   0.00000  Uiso   1.00
C285   C     0.54126   0.50477   0.09327   0.00000  Uiso   1.00
C286   C     0.41082   0.49005   0.43379   0.00000  Uiso   1.00
C287   C     0.39692   0.48451   0.48716   0.00000  Uiso   1.00
C288   C     0.43035   0.49161   0.01463   0.00000  Uiso   1.00
Cu289  Cu    0.45311   0.49999   0.25000   0.00000  Uiso   1.00
Cu290  Cu    0.54689   0.50001   0.25000   0.00000  Uiso   1.00
H291   H     0.61479   0.52567   0.08640   0.00000  Uiso   1.00
H292   H     0.57862   0.36987   0.22150   0.00000  Uiso   1.00
H293   H     0.42073   0.37313   0.28396   0.00000  Uiso   1.00
H294   H     0.63982   0.54460   0.19035   0.00000  Uiso   1.00
H295   H     0.39358   0.54463   0.19038   0.00000  Uiso   1.00
H296   H     0.36009   0.45569   0.30996   0.00000  Uiso   1.00
H297   H     0.60635   0.45560   0.30986   0.00000  Uiso   1.00
H298   H     0.63256   0.54615   0.49687   0.00000  Uiso   1.00
H299   H     0.47325   0.48287   0.08823   0.00000  Uiso   1.00
H300   H     0.38540   0.48093   0.41283   0.00000  Uiso   1.00
H301   H     0.41702   0.48544   0.05571   0.00000  Uiso   1.00
H302   H     0.36069   0.47279   0.00710   0.00000  Uiso   1.00
H303   H     0.57755   0.62859   0.22320   0.00000  Uiso   1.00
N304   N     0.38265   0.49999   0.24999   0.00000  Uiso   1.00
N305   N     0.61735   0.50002   0.24999   0.00000  Uiso   1.00
O306   O     0.46042   0.56011   0.25001   0.00000  Uiso   1.00
O307   O     0.53961   0.56012   0.25001   0.00000  Uiso   1.00
O308   O     0.44108   0.49998   0.32549   0.00000  Uiso   1.00
O309   O     0.52027   0.49999   0.32549   0.00000  Uiso   1.00
O310   O     0.46039   0.43988   0.25000   0.00000  Uiso   1.00
O311   O     0.53958   0.43989   0.24999   0.00000  Uiso   1.00
O312   O     0.47973   0.50001   0.17451   0.00000  Uiso   1.00
O313   O     0.55892   0.50002   0.17451   0.00000  Uiso   1.00
C314   C     0.40522   0.62705   0.29849   0.00000  Uiso   1.00
O315   O     0.40151   0.60029   0.33118   0.00000  Uiso   1.00
O316   O     0.36362   0.64059   0.28595   0.00000  Uiso   1.00
H317   H     0.66628   0.62479   0.30495   0.00000  Uiso   1.00
C318   C     0.61164   0.57372   0.41757   0.00000  Uiso   1.00
O319   O     0.65166   0.55725   0.39872   0.00000  Uiso   1.00
O320   O     0.60715   0.61658   0.41830   0.00000  Uiso   1.00
H321   H     0.63982   0.63079   0.40278   0.00000  Uiso   1.00
C322   C     0.53070   0.57446   0.37292   0.00000  Uiso   1.00
O323   O     0.49345   0.59408   0.37568   0.00000  Uiso   1.00
O324   O     0.57254   0.58113   0.33070   0.00000  Uiso   1.00
H325   H     0.59908   0.55971   0.32751   0.00000  Uiso   1.00
C326   C     0.83264   0.57932   0.25205   0.00000  Uiso   1.00
C327   C     0.81142   0.50702   0.48946   0.00000  Uiso   1.00
C328   C     0.82254   0.51903   0.43657   0.00000  Uiso   1.00
C329   C     0.84791   0.51138   0.01539   0.00000  Uiso   1.00
C330   C     0.89377   0.52992   0.48943   0.00000  Uiso   1.00
C331   C     0.90094   0.54803   0.44021   0.00000  Uiso   1.00
C332   C     0.86399   0.54480   0.41514   0.00000  Uiso   1.00
C333   C     0.83999   0.49795   0.06685   0.00000  Uiso   1.00
C334   C     0.92055   0.52064   0.06670   0.00000  Uiso   1.00
C335   C     0.79079   0.50557   0.40751   0.00000  Uiso   1.00
C336   C     0.87631   0.64506   0.23715   0.00000  Uiso   1.00
C337   C     0.80710   0.50260   0.35008   0.00000  Uiso   1.00
C338   C     0.87700   0.35425   0.23582   0.00000  Uiso   1.00
C339   C     0.83286   0.37625   0.25159   0.00000  Uiso   1.00
C340   C     0.78805   0.35574   0.27011   0.00000  Uiso   1.00
C341   C     0.78680   0.64641   0.27347   0.00000  Uiso   1.00
C342   C     0.83153   0.62407   0.25507   0.00000  Uiso   1.00
C343   C     0.98447   0.52476   0.21685   0.00000  Uiso   1.00
C344   C     0.70077   0.52476   0.21686   0.00000  Uiso   1.00
C345   C     0.68215   0.47540   0.28331   0.00000  Uiso   1.00
C346   C     0.96587   0.47535   0.28324   0.00000  Uiso   1.00
C347   C     0.83332   0.42074   0.25012   0.00000  Uiso   1.00
C348   C     0.85956   0.50007   0.14993   0.00000  Uiso   1.00
C349   C     0.93026   0.53279   0.01522   0.00000  Uiso   1.00
C350   C     0.87459   0.50477   0.09327   0.00000  Uiso   1.00
C351   C     0.74415   0.49005   0.43379   0.00000  Uiso   1.00
C352   C     0.73026   0.48451   0.48716   0.00000  Uiso   1.00
C353   C     0.76369   0.49161   0.01463   0.00000  Uiso   1.00
Cu354  Cu    0.78645   0.49999   0.25000   0.00000  Uiso   1.00
Cu355  Cu    0.88022   0.50001   0.25000   0.00000  Uiso   1.00
H356   H     0.94812   0.52567   0.08640   0.00000  Uiso   1.00
H357   H     0.91196   0.36987   0.22150   0.00000  Uiso   1.00
H358   H     0.75406   0.37313   0.28396   0.00000  Uiso   1.00
H359   H     0.97315   0.54460   0.19035   0.00000  Uiso   1.00
H360   H     0.72691   0.54463   0.19038   0.00000  Uiso   1.00
H361   H     0.69342   0.45569   0.30996   0.00000  Uiso   1.00
H362   H     0.93969   0.45560   0.30986   0.00000  Uiso   1.00
H363   H     0.96589   0.54615   0.49687   0.00000  Uiso   1.00
H364   H     0.80658   0.48287   0.08823   0.00000  Uiso   1.00
H365   H     0.71873   0.48093   0.41283   0.00000  Uiso   1.00
H366   H     0.75035   0.48544   0.05571   0.00000  Uiso   1.00
H367   H     0.69402   0.47279   0.00710   0.00000  Uiso   1.00
H368   H     0.91089   0.62859   0.22320   0.00000  Uiso   1.00
N369   N     0.71598   0.49999   0.24999   0.00000  Uiso   1.00
N370   N     0.95069   0.50002   0.24999   0.00000  Uiso   1.00
O371   O     0.79375   0.56011   0.25001   0.00000  Uiso   1.00
O372   O     0.87294   0.56012   0.25001   0.00000  Uiso   1.00
O373   O     0.77441   0.49998   0.32549   0.00000  Uiso   1.00
O374   O     0.85360   0.49999   0.32549   0.00000  Uiso   1.00
O375   O     0.79373   0.43988   0.25000   0.00000  Uiso   1.00
O376   O     0.87292   0.43989   0.24999   0.00000  Uiso   1.00
O377   O     0.81306   0.50001   0.17451   0.00000  Uiso   1.00
O378   O     0.89225   0.50002   0.17451   0.00000  Uiso   1.00
C379   C     0.73856   0.62705   0.29849   0.00000  Uiso   1.00
O380   O     0.73485   0.60029   0.33118   0.00000  Uiso   1.00
O381   O     0.69695   0.64059   0.28595   0.00000  Uiso   1.00
H382   H     0.99962   0.62479   0.30495   0.00000  Uiso   1.00
C383   C     0.94498   0.57372   0.41757   0.00000  Uiso   1.00
O384   O     0.98500   0.55725   0.39872   0.00000  Uiso   1.00
O385   O     0.94048   0.61658   0.41830   0.00000  Uiso   1.00
H386   H     0.97316   0.63079   0.40278   0.00000  Uiso   1.00
C387   C     0.86404   0.57446   0.37292   0.00000  Uiso   1.00
O388   O     0.82679   0.59408   0.37568   0.00000  Uiso   1.00
O389   O     0.90587   0.58113   0.33070   0.00000  Uiso   1.00
H390   H     0.93242   0.55971   0.32751   0.00000  Uiso   1.00
C391   C     0.16597   0.91265   0.25205   0.00000  Uiso   1.00
C392   C     0.14475   0.84035   0.48946   0.00000  Uiso   1.00
C393   C     0.15587   0.85237   0.43657   0.00000  Uiso   1.00
C394   C     0.18124   0.84472   0.01539   0.00000  Uiso   1.00
C395   C     0.22710   0.86325   0.48943   0.00000  Uiso   1.00
C396   C     0.23427   0.88136   0.44021   0.00000  Uiso   1.00
C397   C     0.19732   0.87814   0.41514   0.00000  Uiso   1.00
C398   C     0.17332   0.83129   0.06685   0.00000  Uiso   1.00
C399   C     0.25389   0.85397   0.06670   0.00000  Uiso   1.00
C400   C     0.12413   0.83890   0.40751   0.00000  Uiso   1.00
C401   C     0.20964   0.97840   0.23715   0.00000  Uiso   1.00
C402   C     0.14043   0.83593   0.35008   0.00000  Uiso   1.00
C403   C     0.21034   0.68759   0.23582   0.00000  Uiso   1.00
C404   C     0.16620   0.70959   0.25159   0.00000  Uiso   1.00
C405   C     0.12138   0.68907   0.27011   0.00000  Uiso   1.00
C406   C     0.12013   0.97974   0.27347   0.00000  Uiso   1.00
C407   C     0.16486   0.95740   0.25507   0.00000  Uiso   1.00
C408   C     0.31780   0.85810   0.21685   0.00000  Uiso   1.00
C409   C     0.03410   0.85810   0.21686   0.00000  Uiso   1.00
C410   C     0.01548   0.80874   0.28331   0.00000  Uiso   1.00
C411   C     0.29920   0.80869   0.28324   0.00000  Uiso   1.00
C412   C     0.16665   0.75407   0.25012   0.00000  Uiso   1.00
C413   C     0.19289   0.83340   0.14993   0.00000  Uiso   1.00
C414   C     0.26359   0.86612   0.01522   0.00000  Uiso   1.00
C415   C     0.20793   0.83810   0.09327   0.00000  Uiso   1.00
C416   C     0.07749   0.82338   0.43379   0.00000  Uiso   1.00
C417   C     0.06359   0.81784   0.48716   0.00000  Uiso   1.00
C418   C     0.09702   0.82495   0.01463   0.00000  Uiso   1.00
Cu419  Cu    0.11978   0.83333   0.25000   0.00000  Uiso   1.00
Cu420  Cu    0.21355   0.83334   0.25000   0.00000  Uiso   1.00
H421   H     0.28145   0.85900   0.08640   0.00000  Uiso   1.00
H422   H     0.24529   0.70321   0.22150   0.00000  Uiso   1.00
H423   H     0.08739   0.70646   0.28396   0.00000  Uiso   1.00
H424   H     0.30648   0.87793   0.19035   0.00000  Uiso   1.00
H425   H     0.06024   0.87797   0.19038   0.00000  Uiso   1.00
H426   H     0.02675   0.78903   0.30996   0.00000  Uiso   1.00
H427   H     0.27302   0.78893   0.30986   0.00000  Uiso   1.00
H428   H     0.29923   0.87949   0.49687   0.00000  Uiso   1.00
H429   H     0.13992   0.81620   0.08823   0.00000  Uiso   1.00
H430   H     0.05206   0.81426   0.41283   0.00000  Uiso   1.00
H431   H     0.08368   0.81877   0.05571   0.00000  Uiso   1.00
H432   H     0.02735   0.80613   0.00710   0.00000  Uiso   1.00
H433   H     0.24422   0.96192   0.22320   0.00000  Uiso   1.00
N434   N     0.04931   0.83332   0.24999   0.00000  Uiso   1.00
N435   N     0.28402   0.83335   0.24999   0.00000  Uiso   1.00
O436   O     0.12708   0.89345   0.25001   0.00000  Uiso   1.00
O437   O     0.20627   0.89346   0.25001   0.00000  Uiso   1.00
O438   O     0.10775   0.83332   0.32549   0.00000  Uiso   1.00
O439   O     0.18694   0.83333   0.32549   0.00000  Uiso   1.00
O440   O     0.12706   0.77321   0.25000   0.00000  Uiso   1.00
O441   O     0.20625   0.77322   0.24999   0.00000  Uiso   1.00
O442   O     0.14640   0.83334   0.17451   0.00000  Uiso   1.00
O443   O     0.22559   0.83335   0.17451   0.00000  Uiso   1.00
C444   C     0.07189   0.96038   0.29849   0.00000  Uiso   1.00
O445   O     0.06818   0.93362   0.33118   0.00000  Uiso   1.00
O446   O     0.03028   0.97393   0.28595   0.00000  Uiso   1.00
H447   H     0.33295   0.95812   0.30495   0.00000  Uiso   1.00
C448   C     0.27831   0.90705   0.41757   0.00000  Uiso   1.00
O449   O     0.31833   0.89058   0.39872   0.00000  Uiso   1.00
O450   O     0.27381   0.94991   0.41830   0.00000  Uiso   1.00
H451   H     0.30649   0.96412   0.40278   0.00000  Uiso   1.00
C452   C     0.19737   0.90779   0.37292   0.00000  Uiso   1.00
O453   O     0.16012   0.92742   0.37568   0.00000  Uiso   1.00
O454   O     0.23921   0.91447   0.33070   0.00000  Uiso   1.00
H455   H     0.26575   0.89305   0.32751   0.00000  Uiso   1.00
C456   C     0.49931   0.91265   0.25205   0.00000  Uiso   1.00
C457   C     0.47808   0.84035   0.48946   0.00000  Uiso   1.00
C458   C     0.48921   0.85237   0.43657   0.00000  Uiso   1.00
C459   C     0.51458   0.84472   0.01539   0.00000  Uiso   1.00
C460   C     0.56044   0.86325   0.48943   0.00000  Uiso   1.00
C461   C     0.56760   0.88136   0.44021   0.00000  Uiso   1.00
C462   C     0.53066   0.87814   0.41514   0.00000  Uiso   1.00
C463   C     0.50666   0.83129   0.06685   0.00000  Uiso   1.00
C464   C     0.58722   0.85397   0.06670   0.00000  Uiso   1.00
C465   C     0.45746   0.83890   0.40751   0.00000  Uiso   1.00
C466   C     0.54297   0.97840   0.23715   0.00000  Uiso   1.00
C467   C     0.47376   0.83593   0.35008   0.00000  Uiso   1.00
C468   C     0.54367   0.68759   0.23582   0.00000  Uiso   1.00
C469   C     0.49953   0.70959   0.25159   0.00000  Uiso   1.00
C470   C     0.45471   0.68907   0.27011   0.00000  Uiso   1.00
C471   C     0.45347   0.97974   0.27347   0.00000  Uiso   1.00
C472   C     0.49819   0.95740   0.25507   0.00000  Uiso   1.00
C473   C     0.65113   0.85810   0.21685   0.00000  Uiso   1.00
C474   C     0.36743   0.85810   0.21686   0.00000  Uiso   1.00
C475   C     0.34882   0.80874   0.28331   0.00000  Uiso   1.00
C476   C     0.63253   0.80869   0.28324   0.00000  Uiso   1.00
C477   C     0.49999   0.75407   0.25012   0.00000  Uiso   1.00
C478   C     0.52622   0.83340   0.14993   0.00000  Uiso   1.00
C479   C     0.59692   0.86612   0.01522   0.00000  Uiso   1.00
C480   C     0.54126   0.83810   0.09327   0.00000  Uiso   1.00
C481   C     0.41082   0.82338   0.43379   0.00000  Uiso   1.00
C482   C     0.39692   0.81784   0.48716   0.00000  Uiso   1.00
C483   C     0.43035   0.82495   0.01463   0.00000  Uiso   1.00
Cu484  Cu    0.45311   0.83333   0.25000   0.00000  Uiso   1.00
Cu485  Cu    0.54689   0.83334   0.25000   0.00000  Uiso   1.00
H486   H     0.61479   0.85900   0.08640   0.00000  Uiso   1.00
H487   H     0.57862   0.70321   0.22150   0.00000  Uiso   1.00
H488   H     0.42073   0.70646   0.28396   0.00000  Uiso   1.00
H489   H     0.63982   0.87793   0.19035   0.00000  Uiso   1.00
H490   H     0.39358   0.87797   0.19038   0.00000  Uiso   1.00
H491   H     0.36009   0.78903   0.30996   0.00000  Uiso   1.00
H492   H     0.60635   0.78893   0.30986   0.00000  Uiso   1.00
H493   H     0.63256   0.87949   0.49687   0.00000  Uiso   1.00
H494   H     0.47325   0.81620   0.08823   0.00000  Uiso   1.00
H495   H     0.38540   0.81426   0.41283   0.00000  Uiso   1.00
H496   H     0.41702   0.81877   0.05571   0.00000  Uiso   1.00
H497   H     0.36069   0.80613   0.00710   0.00000  Uiso   1.00
H498   H     0.57755   0.96192   0.22320   0.00000  Uiso   1.00
N499   N     0.38265   0.83332   0.24999   0.00000  Uiso   1.00
N500   N     0.61735   0.83335   0.24999   0.00000  Uiso   1.00
O501   O     0.46042   0.89345   0.25001   0.00000  Uiso   1.00
O502   O     0.53961   0.89346   0.25001   0.00000  Uiso   1.00
O503   O     0.44108   0.83332   0.32549   0.00000  Uiso   1.00
O504   O     0.52027   0.83333   0.32549   0.00000  Uiso   1.00
O505   O     0.46039   0.77321   0.25000   0.00000  Uiso   1.00
O506   O     0.53958   0.77322   0.24999   0.00000  Uiso   1.00
O507   O     0.47973   0.83334   0.17451   0.00000  Uiso   1.00
O508   O     0.55892   0.83335   0.17451   0.00000  Uiso   1.00
C509   C     0.40522   0.96038   0.29849   0.00000  Uiso   1.00
O510   O     0.40151   0.93362   0.33118   0.00000  Uiso   1.00
O511   O     0.36362   0.97393   0.28595   0.00000  Uiso   1.00
H512   H     0.66628   0.95812   0.30495   0.00000  Uiso   1.00
C513   C     0.61164   0.90705   0.41757   0.00000  Uiso   1.00
O514   O     0.65166   0.89058   0.39872   0.00000  Uiso   1.00
O515   O     0.60715   0.94991   0.41830   0.00000  Uiso   1.00
H516   H     0.63982   0.96412   0.40278   0.00000  Uiso   1.00
C517   C     0.53070   0.90779   0.37292   0.00000  Uiso   1.00
O518   O     0.49345   0.92742   0.37568   0.00000  Uiso   1.00
O519   O     0.57254   0.91447   0.33070   0.00000  Uiso   1.00
H520   H     0.59908   0.89305   0.32751   0.00000  Uiso   1.00
C521   C     0.83264   0.91265   0.25205   0.00000  Uiso   1.00
C522   C     0.81142   0.84035   0.48946   0.00000  Uiso   1.00
C523   C     0.82254   0.85237   0.43657   0.00000  Uiso   1.00
C524   C     0.84791   0.84472   0.01539   0.00000  Uiso   1.00
C525   C     0.89377   0.86325   0.48943   0.00000  Uiso   1.00
C526   C     0.90094   0.88136   0.44021   0.00000  Uiso   1.00
C527   C     0.86399   0.87814   0.41514   0.00000  Uiso   1.00
C528   C     0.83999   0.83129   0.06685   0.00000  Uiso   1.00
C529   C     0.92055   0.85397   0.06670   0.00000  Uiso   1.00
C530   C     0.79079   0.83890   0.40751   0.00000  Uiso   1.00
C531   C     0.87631   0.97840   0.23715   0.00000  Uiso   1.00
C532   C     0.80710   0.83593   0.35008   0.00000  Uiso   1.00
C533   C     0.87700   0.68759   0.23582   0.00000  Uiso   1.00
C534   C     0.83286   0.70959   0.25159   0.00000  Uiso   1.00
C535   C     0.78805   0.68907   0.27011   0.00000  Uiso   1.00
C536   C     0.78680   0.97974   0.27347   0.00000  Uiso   1.00
C537   C     0.83153   0.95740   0.25507   0.00000  Uiso   1.00
C538   C     0.98447   0.85810   0.21685   0.00000  Uiso   1.00
C539   C     0.70077   0.85810   0.21686   0.00000  Uiso   1.00
C540   C     0.68215   0.80874   0.28331   0.00000  Uiso   1.00
C541   C     0.96587   0.80869   0.28324   0.00000  Uiso   1.00
C542   C     0.83332   0.75407   0.25012   0.00000  Uiso   1.00
C543   C     0.85956   0.83340   0.14993   0.00000  Uiso   1.00
C544   C     0.93026   0.86612   0.01522   0.00000  Uiso   1.00
C545   C     0.87459   0.83810   0.09327   0.00000  Uiso   1.00
C546   C     0.74415   0.82338   0.43379   0.00000  Uiso   1.00
C547   C     0.73026   0.81784   0.48716   0.00000  Uiso   1.00
C548   C     0.76369   0.82495   0.01463   0.00000  Uiso   1.00
Cu549  Cu    0.78645   0.83333   0.25000   0.00000  Uiso   1.00
Cu550  Cu    0.88022   0.83334   0.25000   0.00000  Uiso   1.00
H551   H     0.94812   0.85900   0.08640   0.00000  Uiso   1.00
H552   H     0.91196   0.70321   0.22150   0.00000  Uiso   1.00
H553   H     0.75406   0.70646   0.28396   0.00000  Uiso   1.00
H554   H     0.97315   0.87793   0.19035   0.00000  Uiso   1.00
H555   H     0.72691   0.87797   0.19038   0.00000  Uiso   1.00
H556   H     0.69342   0.78903   0.30996   0.00000  Uiso   1.00
H557   H     0.93969   0.78893   0.30986   0.00000  Uiso   1.00
H558   H     0.96589   0.87949   0.49687   0.00000  Uiso   1.00
H559   H     0.80658   0.81620   0.08823   0.00000  Uiso   1.00
H560   H     0.71873   0.81426   0.41283   0.00000  Uiso   1.00
H561   H     0.75035   0.81877   0.05571   0.00000  Uiso   1.00
H562   H     0.69402   0.80613   0.00710   0.00000  Uiso   1.00
H563   H     0.91089   0.96192   0.22320   0.00000  Uiso   1.00
N564   N     0.71598   0.83332   0.24999   0.00000  Uiso   1.00
N565   N     0.95069   0.83335   0.24999   0.00000  Uiso   1.00
O566   O     0.79375   0.89345   0.25001   0.00000  Uiso   1.00
O567   O     0.87294   0.89346   0.25001   0.00000  Uiso   1.00
O568   O     0.77441   0.83332   0.32549   0.00000  Uiso   1.00
O569   O     0.85360   0.83333   0.32549   0.00000  Uiso   1.00
O570   O     0.79373   0.77321   0.25000   0.00000  Uiso   1.00
O571   O     0.87292   0.77322   0.24999   0.00000  Uiso   1.00
O572   O     0.81306   0.83334   0.17451   0.00000  Uiso   1.00
O573   O     0.89225   0.83335   0.17451   0.00000  Uiso   1.00
C574   C     0.73856   0.96038   0.29849   0.00000  Uiso   1.00
O575   O     0.73485   0.93362   0.33118   0.00000  Uiso   1.00
O576   O     0.69695   0.97393   0.28595   0.00000  Uiso   1.00
H577   H     0.99962   0.95812   0.30495   0.00000  Uiso   1.00
C578   C     0.94498   0.90705   0.41757   0.00000  Uiso   1.00
O579   O     0.98500   0.89058   0.39872   0.00000  Uiso   1.00
O580   O     0.94048   0.94991   0.41830   0.00000  Uiso   1.00
H581   H     0.97316   0.96412   0.40278   0.00000  Uiso   1.00
C582   C     0.86404   0.90779   0.37292   0.00000  Uiso   1.00
O583   O     0.82679   0.92742   0.37568   0.00000  Uiso   1.00
O584   O     0.90587   0.91447   0.33070   0.00000  Uiso   1.00
H585   H     0.93242   0.89305   0.32751   0.00000  Uiso   1.00
C586   C     0.16597   0.24598   0.75205   0.00000  Uiso   1.00
C587   C     0.14475   0.17369   0.98946   0.00000  Uiso   1.00
C588   C     0.15587   0.18570   0.93657   0.00000  Uiso   1.00
C589   C     0.18124   0.17805   0.51539   0.00000  Uiso   1.00
C590   C     0.22710   0.19659   0.98943   0.00000  Uiso   1.00
C591   C     0.23427   0.21469   0.94021   0.00000  Uiso   1.00
C592   C     0.19732   0.21147   0.91514   0.00000  Uiso   1.00
C593   C     0.17332   0.16462   0.56685   0.00000  Uiso   1.00
C594   C     0.25389   0.18730   0.56670   0.00000  Uiso   1.00
C595   C     0.12413   0.17223   0.90751   0.00000  Uiso   1.00
C596   C     0.20964   0.31173   0.73715   0.00000  Uiso   1.00
C597   C     0.14043   0.16926   0.85008   0.00000  Uiso   1.00
C598   C     0.21034   0.02092   0.73582   0.00000  Uiso   1.00
C599   C     0.16620   0.04292   0.75159   0.00000  Uiso   1.00
C600   C     0.12138   0.02241   0.77011   0.00000  Uiso   1.00
C601   C     0.12013   0.31307   0.77347   0.00000  Uiso   1.00
C602   C     0.16486   0.29074   0.75507   0.00000  Uiso   1.00
C603   C     0.31780   0.19143   0.71685   0.00000  Uiso   1.00
C604   C     0.03410   0.19143   0.71686   0.00000  Uiso   1.00
C605   C     0.01548   0.14207   0.78331   0.00000  Uiso   1.00
C606   C     0.29920   0.14202   0.78324   0.00000  Uiso   1.00
C607   C     0.16665   0.08741   0.75012   0.00000  Uiso   1.00
C608   C     0.19289   0.16674   0.64993   0.00000  Uiso   1.00
C609   C     0.26359   0.19945   0.51522   0.00000  Uiso   1.00
C610   C     0.20793   0.17143   0.59327   0.00000  Uiso   1.00
C611   C     0.07749   0.15672   0.93379   0.00000  Uiso   1.00
C612   C     0.06359   0.15118   0.98716   0.00000  Uiso   1.00
C613   C     0.09702   0.15828   0.51463   0.00000  Uiso   1.00
Cu614  Cu    0.11978   0.16666   0.75000   0.00000  Uiso   1.00
Cu615  Cu    0.21355   0.16667   0.75000   0.00000  Uiso   1.00
H616   H     0.28145   0.19234   0.58640   0.00000  Uiso   1.00
H617   H     0.24529   0.03654   0.72150   0.00000  Uiso   1.00
H618   H     0.08739   0.03980   0.78396   0.00000  Uiso   1.00
H619   H     0.30648   0.21126   0.69035   0.00000  Uiso   1.00
H620   H     0.06024   0.21130   0.69038   0.00000  Uiso   1.00
H621   H     0.02675   0.12236   0.80996   0.00000  Uiso   1.00
H622   H     0.27302   0.12226   0.80986   0.00000  Uiso   1.00
H623   H     0.29923   0.21282   0.99687   0.00000  Uiso   1.00
H624   H     0.13992   0.14953   0.58823   0.00000  Uiso   1.00
H625   H     0.05206   0.14759   0.91283   0.00000  Uiso   1.00
H626   H     0.08368   0.15210   0.55571   0.00000  Uiso   1.00
H627   H     0.02735   0.13946   0.50710   0.00000  Uiso   1.00
H628   H     0.24422   0.29525   0.72320   0.00000  Uiso   1.00
N629   N     0.04931   0.16666   0.74999   0.00000  Uiso   1.00
N630   N     0.28402   0.16669   0.74999   0.00000  Uiso   1.00
O631   O     0.12708   0.22678   0.75001   0.00000  Uiso   1.00
O632   O     0.20627   0.22679   0.75001   0.00000  Uiso   1.00
O633   O     0.10775   0.16665   0.82549   0.00000  Uiso   1.00
O634   O     0.18694   0.16666   0.82549   0.00000  Uiso   1.00
O635   O     0.12706   0.10654   0.75000   0.00000  Uiso   1.00
O636   O     0.20625   0.10655   0.74999   0.00000  Uiso   1.00
O637   O     0.14640   0.16667   0.67451   0.00000  Uiso   1.00
O638   O     0.22559   0.16668   0.67451   0.00000  Uiso   1.00
C639   C     0.07189   0.29371   0.79849   0.00000  Uiso   1.00
O640   O     0.06818   0.26696   0.83118   0.00000  Uiso   1.00
O641   O     0.03028   0.30726   0.78595   0.00000  Uiso   1.00
H642   H     0.33295   0.29146   0.80495   0.00000  Uiso   1.00
C643   C     0.27831   0.24039   0.91757   0.00000  Uiso   1.00
O644   O     0.31833   0.22391   0.89872   0.00000  Uiso   1.00
O645   O     0.27381   0.28325   0.91830   0.00000  Uiso   1.00
H646   H     0.30649   0.29745   0.90278   0.00000  Uiso   1.00
C647   C     0.19737   0.24112   0.87292   0.00000  Uiso   1.00
O648   O     0.16012   0.26075   0.87568   0.00000  Uiso   1.00
O649   O     0.23921   0.24780   0.83070   0.00000  Uiso   1.00
H650   H     0.26575   0.22638   0.82751   0.00000  Uiso   1.00
C651   C     0.49931   0.24598   0.75205   0.00000  Uiso   1.00
C652   C     0.47808   0.17369   0.98946   0.00000  Uiso   1.00
C653   C     0.48921   0.18570   0.93657   0.00000  Uiso   1.00
C654   C     0.51458   0.17805   0.51539   0.00000  Uiso   1.00
C655   C     0.56044   0.19659   0.98943   0.00000  Uiso   1.00
C656   C     0.56760   0.21469   0.94021   0.00000  Uiso   1.00
C657   C     0.53066   0.21147   0.91514   0.00000  Uiso   1.00
C658   C     0.50666   0.16462   0.56685   0.00000  Uiso   1.00
C659   C     0.58722   0.18730   0.56670   0.00000  Uiso   1.00
C660   C     0.45746   0.17223   0.90751   0.00000  Uiso   1.00
C661   C     0.54297   0.31173   0.73715   0.00000  Uiso   1.00
C662   C     0.47376   0.16926   0.85008   0.00000  Uiso   1.00
C663   C     0.54367   0.02092   0.73582   0.00000  Uiso   1.00
C664   C     0.49953   0.04292   0.75159   0.00000  Uiso   1.00
C665   C     0.45471   0.02241   0.77011   0.00000  Uiso   1.00
C666   C     0.45347   0.31307   0.77347   0.00000  Uiso   1.00
C667   C     0.49819   0.29074   0.75507   0.00000  Uiso   1.00
C668   C     0.65113   0.19143   0.71685   0.00000  Uiso   1.00
C669   C     0.36743   0.19143   0.71686   0.00000  Uiso   1.00
C670   C     0.34882   0.14207   0.78331   0.00000  Uiso   1.00
C671   C     0.63253   0.14202   0.78324   0.00000  Uiso   1.00
C672   C     0.49999   0.08741   0.75012   0.00000  Uiso   1.00
C673   C     0.52622   0.16674   0.64993   0.00000  Uiso   1.00
C674   C     0.59692   0.19945   0.51522   0.00000  Uiso   1.00
C675   C     0.54126   0.17143   0.59327   0.00000  Uiso   1.00
C676   C     0.41082   0.15672   0.93379   0.00000  Uiso   1.00
C677   C     0.39692   0.15118   0.98716   0.00000  Uiso   1.00
C678   C     0.43035   0.15828   0.51463   0.00000  Uiso   1.00
Cu679  Cu    0.45311   0.16666   0.75000   0.00000  Uiso   1.00
Cu680  Cu    0.54689   0.16667   0.75000   0.00000  Uiso   1.00
H681   H     0.61479   0.19234   0.58640   0.00000  Uiso   1.00
H682   H     0.57862   0.03654   0.72150   0.00000  Uiso   1.00
H683   H     0.42073   0.03980   0.78396   0.00000  Uiso   1.00
H684   H     0.63982   0.21126   0.69035   0.00000  Uiso   1.00
H685   H     0.39358   0.21130   0.69038   0.00000  Uiso   1.00
H686   H     0.36009   0.12236   0.80996   0.00000  Uiso   1.00
H687   H     0.60635   0.12226   0.80986   0.00000  Uiso   1.00
H688   H     0.63256   0.21282   0.99687   0.00000  Uiso   1.00
H689   H     0.47325   0.14953   0.58823   0.00000  Uiso   1.00
H690   H     0.38540   0.14759   0.91283   0.00000  Uiso   1.00
H691   H     0.41702   0.15210   0.55571   0.00000  Uiso   1.00
H692   H     0.36069   0.13946   0.50710   0.00000  Uiso   1.00
H693   H     0.57755   0.29525   0.72320   0.00000  Uiso   1.00
N694   N     0.38265   0.16666   0.74999   0.00000  Uiso   1.00
N695   N     0.61735   0.16669   0.74999   0.00000  Uiso   1.00
O696   O     0.46042   0.22678   0.75001   0.00000  Uiso   1.00
O697   O     0.53961   0.22679   0.75001   0.00000  Uiso   1.00
O698   O     0.44108   0.16665   0.82549   0.00000  Uiso   1.00
O699   O     0.52027   0.16666   0.82549   0.00000  Uiso   1.00
O700   O     0.46039   0.10654   0.75000   0.00000  Uiso   1.00
O701   O     0.53958   0.10655   0.74999   0.00000  Uiso   1.00
O702   O     0.47973   0.16667   0.67451   0.00000  Uiso   1.00
O703   O     0.55892   0.16668   0.67451   0.00000  Uiso   1.00
C704   C     0.40522   0.29371   0.79849   0.00000  Uiso   1.00
O705   O     0.40151   0.26696   0.83118   0.00000  Uiso   1.00
O706   O     0.36362   0.30726   0.78595   0.00000  Uiso   1.00
H707   H     0.66628   0.29146   0.80495   0.00000  Uiso   1.00
C708   C     0.61164   0.24039   0.91757   0.00000  Uiso   1.00
O709   O     0.65166   0.22391   0.89872   0.00000  Uiso   1.00
O710   O     0.60715   0.28325   0.91830   0.00000  Uiso   1.00
H711   H     0.63982   0.29745   0.90278   0.00000  Uiso   1.00
C712   C     0.53070   0.24112   0.87292   0.00000  Uiso   1.00
O713   O     0.49345   0.26075   0.87568   0.00000  Uiso   1.00
O714   O     0.57254   0.24780   0.83070   0.00000  Uiso   1.00
H715   H     0.59908   0.22638   0.82751   0.00000  Uiso   1.00
C716   C     0.83264   0.24598   0.75205   0.00000  Uiso   1.00
C717   C     0.81142   0.17369   0.98946   0.00000  Uiso   1.00
C718   C     0.82254   0.18570   0.93657   0.00000  Uiso   1.00
C719   C     0.84791   0.17805   0.51539   0.00000  Uiso   1.00
C720   C     0.89377   0.19659   0.98943   0.00000  Uiso   1.00
C721   C     0.90094   0.21469   0.94021   0.00000  Uiso   1.00
C722   C     0.86399   0.21147   0.91514   0.00000  Uiso   1.00
C723   C     0.83999   0.16462   0.56685   0.00000  Uiso   1.00
C724   C     0.92055   0.18730   0.56670   0.00000  Uiso   1.00
C725   C     0.79079   0.17223   0.90751   0.00000  Uiso   1.00
C726   C     0.87631   0.31173   0.73715   0.00000  Uiso   1.00
C727   C     0.80710   0.16926   0.85008   0.00000  Uiso   1.00
C728   C     0.87700   0.02092   0.73582   0.00000  Uiso   1.00
C729   C     0.83286   0.04292   0.75159   0.00000  Uiso   1.00
C730   C     0.78805   0.02241   0.77011   0.00000  Uiso   1.00
C731   C     0.78680   0.31307   0.77347   0.00000  Uiso   1.00
C732   C     0.83153   0.29074   0.75507   0.00000  Uiso   1.00
C733   C     0.98447   0.19143   0.71685   0.00000  Uiso   1.00
C734   C     0.70077   0.19143   0.71686   0.00000  Uiso   1.00
C735   C     0.68215   0.14207   0.78331   0.00000  Uiso   1.00
C736   C     0.96587   0.14202   0.78324   0.00000  Uiso   1.00
C737   C     0.83332   0.08741   0.75012   0.00000  Uiso   1.00
C738   C     0.85956   0.16674   0.64993   0.00000  Uiso   1.00
C739   C     0.93026   0.19945   0.51522   0.00000  Uiso   1.00
C740   C     0.87459   0.17143   0.59327   0.00000  Uiso   1.00
C741   C     0.74415   0.15672   0.93379   0.00000  Uiso   1.00
C742   C     0.73026   0.15118   0.98716   0.00000  Uiso   1.00
C743   C     0.76369   0.15828   0.51463   0.00000  Uiso   1.00
Cu744  Cu    0.78645   0.16666   0.75000   0.00000  Uiso   1.00
Cu745  Cu    0.88022   0.16667   0.75000   0.00000  Uiso   1.00
H746   H     0.94812   0.19234   0.58640   0.00000  Uiso   1.00
H747   H     0.91196   0.03654   0.72150   0.00000  Uiso   1.00
H748   H     0.75406   0.03980   0.78396   0.00000  Uiso   1.00
H749   H     0.97315   0.21126   0.69035   0.00000  Uiso   1.00
H750   H     0.72691   0.21130   0.69038   0.00000  Uiso   1.00
H751   H     0.69342   0.12236   0.80996   0.00000  Uiso   1.00
H752   H     0.93969   0.12226   0.80986   0.00000  Uiso   1.00
H753   H     0.96589   0.21282   0.99687   0.00000  Uiso   1.00
H754   H     0.80658   0.14953   0.58823   0.00000  Uiso   1.00
H755   H     0.71873   0.14759   0.91283   0.00000  Uiso   1.00
H756   H     0.75035   0.15210   0.55571   0.00000  Uiso   1.00
H757   H     0.69402   0.13946   0.50710   0.00000  Uiso   1.00
H758   H     0.91089   0.29525   0.72320   0.00000  Uiso   1.00
N759   N     0.71598   0.16666   0.74999   0.00000  Uiso   1.00
N760   N     0.95069   0.16669   0.74999   0.00000  Uiso   1.00
O761   O     0.79375   0.22678   0.75001   0.00000  Uiso   1.00
O762   O     0.87294   0.22679   0.75001   0.00000  Uiso   1.00
O763   O     0.77441   0.16665   0.82549   0.00000  Uiso   1.00
O764   O     0.85360   0.16666   0.82549   0.00000  Uiso   1.00
O765   O     0.79373   0.10654   0.75000   0.00000  Uiso   1.00
O766   O     0.87292   0.10655   0.74999   0.00000  Uiso   1.00
O767   O     0.81306   0.16667   0.67451   0.00000  Uiso   1.00
O768   O     0.89225   0.16668   0.67451   0.00000  Uiso   1.00
C769   C     0.73856   0.29371   0.79849   0.00000  Uiso   1.00
O770   O     0.73485   0.26696   0.83118   0.00000  Uiso   1.00
O771   O     0.69695   0.30726   0.78595   0.00000  Uiso   1.00
H772   H     0.99962   0.29146   0.80495   0.00000  Uiso   1.00
C773   C     0.94498   0.24039   0.91757   0.00000  Uiso   1.00
O774   O     0.98500   0.22391   0.89872   0.00000  Uiso   1.00
O775   O     0.94048   0.28325   0.91830   0.00000  Uiso   1.00
H776   H     0.97316   0.29745   0.90278   0.00000  Uiso   1.00
C777   C     0.86404   0.24112   0.87292   0.00000  Uiso   1.00
O778   O     0.82679   0.26075   0.87568   0.00000  Uiso   1.00
O779   O     0.90587   0.24780   0.83070   0.00000  Uiso   1.00
H780   H     0.93242   0.22638   0.82751   0.00000  Uiso   1.00
C781   C     0.16597   0.57932   0.75205   0.00000  Uiso   1.00
C782   C     0.14475   0.50702   0.98946   0.00000  Uiso   1.00
C783   C     0.15587   0.51903   0.93657   0.00000  Uiso   1.00
C784   C     0.18124   0.51138   0.51539   0.00000  Uiso   1.00
C785   C     0.22710   0.52992   0.98943   0.00000  Uiso   1.00
C786   C     0.23427   0.54803   0.94021   0.00000  Uiso   1.00
C787   C     0.19732   0.54480   0.91514   0.00000  Uiso   1.00
C788   C     0.17332   0.49795   0.56685   0.00000  Uiso   1.00
C789   C     0.25389   0.52064   0.56670   0.00000  Uiso   1.00
C790   C     0.12413   0.50557   0.90751   0.00000  Uiso   1.00
C791   C     0.20964   0.64506   0.73715   0.00000  Uiso   1.00
C792   C     0.14043   0.50260   0.85008   0.00000  Uiso   1.00
C793   C     0.21034   0.35425   0.73582   0.00000  Uiso   1.00
C794   C     0.16620   0.37625   0.75159   0.00000  Uiso   1.00
C795   C     0.12138   0.35574   0.77011   0.00000  Uiso   1.00
C796   C     0.12013   0.64641   0.77347   0.00000  Uiso   1.00
C797   C     0.16486   0.62407   0.75507   0.00000  Uiso   1.00
C798   C     0.31780   0.52476   0.71685   0.00000  Uiso   1.00
C799   C     0.03410   0.52476   0.71686   0.00000  Uiso   1.00
C800   C     0.01548   0.47540   0.78331   0.00000  Uiso   1.00
C801   C     0.29920   0.47535   0.78324   0.00000  Uiso   1.00
C802   C     0.16665   0.42074   0.75012   0.00000  Uiso   1.00
C803   C     0.19289   0.50007   0.64993   0.00000  Uiso   1.00
C804   C     0.26359   0.53279   0.51522   0.00000  Uiso   1.00
C805   C     0.20793   0.50477   0.59327   0.00000  Uiso   1.00
C806   C     0.07749   0.49005   0.93379   0.00000  Uiso   1.00
C807   C     0.06359   0.48451   0.98716   0.00000  Uiso   1.00
C808   C     0.09702   0.49161   0.51463   0.00000  Uiso   1.00
Cu809  Cu    0.11978   0.49999   0.75000   0.00000  Uiso   1.00
Cu810  Cu    0.21355   0.50001   0.75000   0.00000  Uiso   1.00
H811   H     0.28145   0.52567   0.58640   0.00000  Uiso   1.00
H812   H     0.24529   0.36987   0.72150   0.00000  Uiso   1.00
H813   H     0.08739   0.37313   0.78396   0.00000  Uiso   1.00
H814   H     0.30648   0.54460   0.69035   0.00000  Uiso   1.00
H815   H     0.06024   0.54463   0.69038   0.00000  Uiso   1.00
H816   H     0.02675   0.45569   0.80996   0.00000  Uiso   1.00
H817   H     0.27302   0.45560   0.80986   0.00000  Uiso   1.00
H818   H     0.29923   0.54615   0.99687   0.00000  Uiso   1.00
H819   H     0.13992   0.48287   0.58823   0.00000  Uiso   1.00
H820   H     0.05206   0.48093   0.91283   0.00000  Uiso   1.00
H821   H     0.08368   0.48544   0.55571   0.00000  Uiso   1.00
H822   H     0.02735   0.47279   0.50710   0.00000  Uiso   1.00
H823   H     0.24422   0.62859   0.72320   0.00000  Uiso   1.00
N824   N     0.04931   0.49999   0.74999   0.00000  Uiso   1.00
N825   N     0.28402   0.50002   0.74999   0.00000  Uiso   1.00
O826   O     0.12708   0.56011   0.75001   0.00000  Uiso   1.00
O827   O     0.20627   0.56012   0.75001   0.00000  Uiso   1.00
O828   O     0.10775   0.49998   0.82549   0.00000  Uiso   1.00
O829   O     0.18694   0.49999   0.82549   0.00000  Uiso   1.00
O830   O     0.12706   0.43988   0.75000   0.00000  Uiso   1.00
O831   O     0.20625   0.43989   0.74999   0.00000  Uiso   1.00
O832   O     0.14640   0.50001   0.67451   0.00000  Uiso   1.00
O833   O     0.22559   0.50002   0.67451   0.00000  Uiso   1.00
C834   C     0.07189   0.62705   0.79849   0.00000  Uiso   1.00
O835   O     0.06818   0.60029   0.83118   0.00000  Uiso   1.00
O836   O     0.03028   0.64059   0.78595   0.00000  Uiso   1.00
H837   H     0.33295   0.62479   0.80495   0.00000  Uiso   1.00
C838   C     0.27831   0.57372   0.91757   0.00000  Uiso   1.00
O839   O     0.31833   0.55725   0.89872   0.00000  Uiso   1.00
O840   O     0.27381   0.61658   0.91830   0.00000  Uiso   1.00
H841   H     0.30649   0.63079   0.90278   0.00000  Uiso   1.00
C842   C     0.19737   0.57446   0.87292   0.00000  Uiso   1.00
O843   O     0.16012   0.59408   0.87568   0.00000  Uiso   1.00
O844   O     0.23921   0.58113   0.83070   0.00000  Uiso   1.00
H845   H     0.26575   0.55971   0.82751   0.00000  Uiso   1.00
C846   C     0.49931   0.57932   0.75205   0.00000  Uiso   1.00
C847   C     0.47808   0.50702   0.98946   0.00000  Uiso   1.00
C848   C     0.48921   0.51903   0.93657   0.00000  Uiso   1.00
C849   C     0.51458   0.51138   0.51539   0.00000  Uiso   1.00
C850   C     0.56044   0.52992   0.98943   0.00000  Uiso   1.00
C851   C     0.56760   0.54803   0.94021   0.00000  Uiso   1.00
C852   C     0.53066   0.54480   0.91514   0.00000  Uiso   1.00
C853   C     0.50666   0.49795   0.56685   0.00000  Uiso   1.00
C854   C     0.58722   0.52064   0.56670   0.00000  Uiso   1.00
C855   C     0.45746   0.50557   0.90751   0.00000  Uiso   1.00
C856   C     0.54297   0.64506   0.73715   0.00000  Uiso   1.00
C857   C     0.47376   0.50260   0.85008   0.00000  Uiso   1.00
C858   C     0.54367   0.35425   0.73582   0.00000  Uiso   1.00
C859   C     0.49953   0.37625   0.75159   0.00000  Uiso   1.00
C860   C     0.45471   0.35574   0.77011   0.00000  Uiso   1.00
C861   C     0.45347   0.64641   0.77347   0.00000  Uiso   1.00
C862   C     0.49819   0.62407   0.75507   0.00000  Uiso   1.00
C863   C     0.65113   0.52476   0.71685   0.00000  Uiso   1.00
C864   C     0.36743   0.52476   0.71686   0.00000  Uiso   1.00
C865   C     0.34882   0.47540   0.78331   0.00000  Uiso   1.00
C866   C     0.63253   0.47535   0.78324   0.00000  Uiso   1.00
C867   C     0.49999   0.42074   0.75012   0.00000  Uiso   1.00
C868   C     0.52622   0.50007   0.64993   0.00000  Uiso   1.00
C869   C     0.59692   0.53279   0.51522   0.00000  Uiso   1.00
C870   C     0.54126   0.50477   0.59327   0.00000  Uiso   1.00
C871   C     0.41082   0.49005   0.93379   0.00000  Uiso   1.00
C872   C     0.39692   0.48451   0.98716   0.00000  Uiso   1.00
C873   C     0.43035   0.49161   0.51463   0.00000  Uiso   1.00
Cu874  Cu    0.45311   0.49999   0.75000   0.00000  Uiso   1.00
Cu875  Cu    0.54689   0.50001   0.75000   0.00000  Uiso   1.00
H876   H     0.61479   0.52567   0.58640   0.00000  Uiso   1.00
H877   H     0.57862   0.36987   0.72150   0.00000  Uiso   1.00
H878   H     0.42073   0.37313   0.78396   0.00000  Uiso   1.00
H879   H     0.63982   0.54460   0.69035   0.00000  Uiso   1.00
H880   H     0.39358   0.54463   0.69038   0.00000  Uiso   1.00
H881   H     0.36009   0.45569   0.80996   0.00000  Uiso   1.00
H882   H     0.60635   0.45560   0.80986   0.00000  Uiso   1.00
H883   H     0.63256   0.54615   0.99687   0.00000  Uiso   1.00
H884   H     0.47325   0.48287   0.58823   0.00000  Uiso   1.00
H885   H     0.38540   0.48093   0.91283   0.00000  Uiso   1.00
H886   H     0.41702   0.48544   0.55571   0.00000  Uiso   1.00
H887   H     0.36069   0.47279   0.50710   0.00000  Uiso   1.00
H888   H     0.57755   0.62859   0.72320   0.00000  Uiso   1.00
N889   N     0.38265   0.49999   0.74999   0.00000  Uiso   1.00
N890   N     0.61735   0.50002   0.74999   0.00000  Uiso   1.00
O891   O     0.46042   0.56011   0.75001   0.00000  Uiso   1.00
O892   O     0.53961   0.56012   0.75001   0.00000  Uiso   1.00
O893   O     0.44108   0.49998   0.82549   0.00000  Uiso   1.00
O894   O     0.52027   0.49999   0.82549   0.00000  Uiso   1.00
O895   O     0.46039   0.43988   0.75000   0.00000  Uiso   1.00
O896   O     0.53958   0.43989   0.74999   0.00000  Uiso   1.00
O897   O     0.47973   0.50001   0.67451   0.00000  Uiso   1.00
O898   O     0.55892   0.50002   0.67451   0.00000  Uiso   1.00
C899   C     0.40522   0.62705   0.79849   0.00000  Uiso   1.00
O900   O     0.40151   0.60029   0.83118   0.00000  Uiso   1.00
O901   O     0.36362   0.64059   0.78595   0.00000  Uiso   1.00
H902   H     0.66628   0.62479   0.80495   0.00000  Uiso   1.00
C903   C     0.61164   0.57372   0.91757   0.00000  Uiso   1.00
O904   O     0.65166   0.55725   0.89872   0.00000  Uiso   1.00
O905   O     0.60715   0.61658   0.91830   0.00000  Uiso   1.00
H906   H     0.63982   0.63079   0.90278   0.00000  Uiso   1.00
C907   C     0.53070   0.57446   0.87292   0.00000  Uiso   1.00
O908   O     0.49345   0.59408   0.87568   0.00000  Uiso   1.00
O909   O     0.57254   0.58113   0.83070   0.00000  Uiso   1.00
H910   H     0.59908   0.55971   0.82751   0.00000  Uiso   1.00
C911   C     0.83264   0.57932   0.75205   0.00000  Uiso   1.00
C912   C     0.81142   0.50702   0.98946   0.00000  Uiso   1.00
C913   C     0.82254   0.51903   0.93657   0.00000  Uiso   1.00
C914   C     0.84791   0.51138   0.51539   0.00000  Uiso   1.00
C915   C     0.89377   0.52992   0.98943   0.00000  Uiso   1.00
C916   C     0.90094   0.54803   0.94021   0.00000  Uiso   1.00
C917   C     0.86399   0.54480   0.91514   0.00000  Uiso   1.00
C918   C     0.83999   0.49795   0.56685   0.00000  Uiso   1.00
C919   C     0.92055   0.52064   0.56670   0.00000  Uiso   1.00
C920   C     0.79079   0.50557   0.90751   0.00000  Uiso   1.00
C921   C     0.87631   0.64506   0.73715   0.00000  Uiso   1.00
C922   C     0.80710   0.50260   0.85008   0.00000  Uiso   1.00
C923   C     0.87700   0.35425   0.73582   0.00000  Uiso   1.00
C924   C     0.83286   0.37625   0.75159   0.00000  Uiso   1.00
C925   C     0.78805   0.35574   0.77011   0.00000  Uiso   1.00
C926   C     0.78680   0.64641   0.77347   0.00000  Uiso   1.00
C927   C     0.83153   0.62407   0.75507   0.00000  Uiso   1.00
C928   C     0.98447   0.52476   0.71685   0.00000  Uiso   1.00
C929   C     0.70077   0.52476   0.71686   0.00000  Uiso   1.00
C930   C     0.68215   0.47540   0.78331   0.00000  Uiso   1.00
C931   C     0.96587   0.47535   0.78324   0.00000  Uiso   1.00
C932   C     0.83332   0.42074   0.75012   0.00000  Uiso   1.00
C933   C     0.85956   0.50007   0.64993   0.00000  Uiso   1.00
C934   C     0.93026   0.53279   0.51522   0.00000  Uiso   1.00
C935   C     0.87459   0.50477   0.59327   0.00000  Uiso   1.00
C936   C     0.74415   0.49005   0.93379   0.00000  Uiso   1.00
C937   C     0.73026   0.48451   0.98716   0.00000  Uiso   1.00
C938   C     0.76369   0.49161   0.51463   0.00000  Uiso   1.00
Cu939  Cu    0.78645   0.49999   0.75000   0.00000  Uiso   1.00
Cu940  Cu    0.88022   0.50001   0.75000   0.00000  Uiso   1.00
H941   H     0.94812   0.52567   0.58640   0.00000  Uiso   1.00
H942   H     0.91196   0.36987   0.72150   0.00000  Uiso   1.00
H943   H     0.75406   0.37313   0.78396   0.00000  Uiso   1.00
H944   H     0.97315   0.54460   0.69035   0.00000  Uiso   1.00
H945   H     0.72691   0.54463   0.69038   0.00000  Uiso   1.00
H946   H     0.69342   0.45569   0.80996   0.00000  Uiso   1.00
H947   H     0.93969   0.45560   0.80986   0.00000  Uiso   1.00
H948   H     0.96589   0.54615   0.99687   0.00000  Uiso   1.00
H949   H     0.80658   0.48287   0.58823   0.00000  Uiso   1.00
H950   H     0.71873   0.48093   0.91283   0.00000  Uiso   1.00
H951   H     0.75035   0.48544   0.55571   0.00000  Uiso   1.00
H952   H     0.69402   0.47279   0.50710   0.00000  Uiso   1.00
H953   H     0.91089   0.62859   0.72320   0.00000  Uiso   1.00
N954   N     0.71598   0.49999   0.74999   0.00000  Uiso   1.00
N955   N     0.95069   0.50002   0.74999   0.00000  Uiso   1.00
O956   O     0.79375   0.56011   0.75001   0.00000  Uiso   1.00
O957   O     0.87294   0.56012   0.75001   0.00000  Uiso   1.00
O958   O     0.77441   0.49998   0.82549   0.00000  Uiso   1.00
O959   O     0.85360   0.49999   0.82549   0.00000  Uiso   1.00
O960   O     0.79373   0.43988   0.75000   0.00000  Uiso   1.00
O961   O     0.87292   0.43989   0.74999   0.00000  Uiso   1.00
O962   O     0.81306   0.50001   0.67451   0.00000  Uiso   1.00
O963   O     0.89225   0.50002   0.67451   0.00000  Uiso   1.00
C964   C     0.73856   0.62705   0.79849   0.00000  Uiso   1.00
O965   O     0.73485   0.60029   0.83118   0.00000  Uiso   1.00
O966   O     0.69695   0.64059   0.78595   0.00000  Uiso   1.00
H967   H     0.99962   0.62479   0.80495   0.00000  Uiso   1.00
C968   C     0.94498   0.57372   0.91757   0.00000  Uiso   1.00
O969   O     0.98500   0.55725   0.89872   0.00000  Uiso   1.00
O970   O     0.94048   0.61658   0.91830   0.00000  Uiso   1.00
H971   H     0.97316   0.63079   0.90278   0.00000  Uiso   1.00
C972   C     0.86404   0.57446   0.87292   0.00000  Uiso   1.00
O973   O     0.82679   0.59408   0.87568   0.00000  Uiso   1.00
O974   O     0.90587   0.58113   0.83070   0.00000  Uiso   1.00
H975   H     0.93242   0.55971   0.82751   0.00000  Uiso   1.00
C976   C     0.16597   0.91265   0.75205   0.00000  Uiso   1.00
C977   C     0.14475   0.84035   0.98946   0.00000  Uiso   1.00
C978   C     0.15587   0.85237   0.93657   0.00000  Uiso   1.00
C979   C     0.18124   0.84472   0.51539   0.00000  Uiso   1.00
C980   C     0.22710   0.86325   0.98943   0.00000  Uiso   1.00
C981   C     0.23427   0.88136   0.94021   0.00000  Uiso   1.00
C982   C     0.19732   0.87814   0.91514   0.00000  Uiso   1.00
C983   C     0.17332   0.83129   0.56685   0.00000  Uiso   1.00
C984   C     0.25389   0.85397   0.56670   0.00000  Uiso   1.00
C985   C     0.12413   0.83890   0.90751   0.00000  Uiso   1.00
C986   C     0.20964   0.97840   0.73715   0.00000  Uiso   1.00
C987   C     0.14043   0.83593   0.85008   0.00000  Uiso   1.00
C988   C     0.21034   0.68759   0.73582   0.00000  Uiso   1.00
C989   C     0.16620   0.70959   0.75159   0.00000  Uiso   1.00
C990   C     0.12138   0.68907   0.77011   0.00000  Uiso   1.00
C991   C     0.12013   0.97974   0.77347   0.00000  Uiso   1.00
C992   C     0.16486   0.95740   0.75507   0.00000  Uiso   1.00
C993   C     0.31780   0.85810   0.71685   0.00000  Uiso   1.00
C994   C     0.03410   0.85810   0.71686   0.00000  Uiso   1.00
C995   C     0.01548   0.80874   0.78331   0.00000  Uiso   1.00
C996   C     0.29920   0.80869   0.78324   0.00000  Uiso   1.00
C997   C     0.16665   0.75407   0.75012   0.00000  Uiso   1.00
C998   C     0.19289   0.83340   0.64993   0.00000  Uiso   1.00
C999   C     0.26359   0.86612   0.51522   0.00000  Uiso   1.00
C1000  C     0.20793   0.83810   0.59327   0.00000  Uiso   1.00
C1001  C     0.07749   0.82338   0.93379   0.00000  Uiso   1.00
C1002  C     0.06359   0.81784   0.98716   0.00000  Uiso   1.00
C1003  C     0.09702   0.82495   0.51463   0.00000  Uiso   1.00
Cu1004 Cu    0.11978   0.83333   0.75000   0.00000  Uiso   1.00
Cu1005 Cu    0.21355   0.83334   0.75000   0.00000  Uiso   1.00
H1006  H     0.28145   0.85900   0.58640   0.00000  Uiso   1.00
H1007  H     0.24529   0.70321   0.72150   0.00000  Uiso   1.00
H1008  H     0.08739   0.70646   0.78396   0.00000  Uiso   1.00
H1009  H     0.30648   0.87793   0.69035   0.00000  Uiso   1.00
H1010  H     0.06024   0.87797   0.69038   0.00000  Uiso   1.00
H1011  H     0.02675   0.78903   0.80996   0.00000  Uiso   1.00
H1012  H     0.27302   0.78893   0.80986   0.00000  Uiso   1.00
H1013  H     0.29923   0.87949   0.99687   0.00000  Uiso   1.00
H1014  H     0.13992   0.81620   0.58823   0.00000  Uiso   1.00
H1015  H     0.05206   0.81426   0.91283   0.00000  Uiso   1.00
H1016  H     0.08368   0.81877   0.55571   0.00000  Uiso   1.00
H1017  H     0.02735   0.80613   0.50710   0.00000  Uiso   1.00
H1018  H     0.24422   0.96192   0.72320   0.00000  Uiso   1.00
N1019  N     0.04931   0.83332   0.74999   0.00000  Uiso   1.00
N1020  N     0.28402   0.83335   0.74999   0.00000  Uiso   1.00
O1021  O     0.12708   0.89345   0.75001   0.00000  Uiso   1.00
O1022  O     0.20627   0.89346   0.75001   0.00000  Uiso   1.00
O1023  O     0.10775   0.83332   0.82549   0.00000  Uiso   1.00
O1024  O     0.18694   0.83333   0.82549   0.00000  Uiso   1.00
O1025  O     0.12706   0.77321   0.75000   0.00000  Uiso   1.00
O1026  O     0.20625   0.77322   0.74999   0.00000  Uiso   1.00
O1027  O     0.14640   0.83334   0.67451   0.00000  Uiso   1.00
O1028  O     0.22559   0.83335   0.67451   0.00000  Uiso   1.00
C1029  C     0.07189   0.96038   0.79849   0.00000  Uiso   1.00
O1030  O     0.06818   0.93362   0.83118   0.00000  Uiso   1.00
O1031  O     0.03028   0.97393   0.78595   0.00000  Uiso   1.00
H1032  H     0.33295   0.95812   0.80495   0.00000  Uiso   1.00
C1033  C     0.27831   0.90705   0.91757   0.00000  Uiso   1.00
O1034  O     0.31833   0.89058   0.89872   0.00000  Uiso   1.00
O1035  O     0.27381   0.94991   0.91830   0.00000  Uiso   1.00
H1036  H     0.30649   0.96412   0.90278   0.00000  Uiso   1.00
C1037  C     0.19737   0.90779   0.87292   0.00000  Uiso   1.00
O1038  O     0.16012   0.92742   0.87568   0.00000  Uiso   1.00
O1039  O     0.23921   0.91447   0.83070   0.00000  Uiso   1.00
H1040  H     0.26575   0.89305   0.82751   0.00000  Uiso   1.00
C1041  C     0.49931   0.91265   0.75205   0.00000  Uiso   1.00
C1042  C     0.47808   0.84035   0.98946   0.00000  Uiso   1.00
C1043  C     0.48921   0.85237   0.93657   0.00000  Uiso   1.00
C1044  C     0.51458   0.84472   0.51539   0.00000  Uiso   1.00
C1045  C     0.56044   0.86325   0.98943   0.00000  Uiso   1.00
C1046  C     0.56760   0.88136   0.94021   0.00000  Uiso   1.00
C1047  C     0.53066   0.87814   0.91514   0.00000  Uiso   1.00
C1048  C     0.50666   0.83129   0.56685   0.00000  Uiso   1.00
C1049  C     0.58722   0.85397   0.56670   0.00000  Uiso   1.00
C1050  C     0.45746   0.83890   0.90751   0.00000  Uiso   1.00
C1051  C     0.54297   0.97840   0.73715   0.00000  Uiso   1.00
C1052  C     0.47376   0.83593   0.85008   0.00000  Uiso   1.00
C1053  C     0.54367   0.68759   0.73582   0.00000  Uiso   1.00
C1054  C     0.49953   0.70959   0.75159   0.00000  Uiso   1.00
C1055  C     0.45471   0.68907   0.77011   0.00000  Uiso   1.00
C1056  C     0.45347   0.97974   0.77347   0.00000  Uiso   1.00
C1057  C     0.49819   0.95740   0.75507   0.00000  Uiso   1.00
C1058  C     0.65113   0.85810   0.71685   0.00000  Uiso   1.00
C1059  C     0.36743   0.85810   0.71686   0.00000  Uiso   1.00
C1060  C     0.34882   0.80874   0.78331   0.00000  Uiso   1.00
C1061  C     0.63253   0.80869   0.78324   0.00000  Uiso   1.00
C1062  C     0.49999   0.75407   0.75012   0.00000  Uiso   1.00
C1063  C     0.52622   0.83340   0.64993   0.00000  Uiso   1.00
C1064  C     0.59692   0.86612   0.51522   0.00000  Uiso   1.00
C1065  C     0.54126   0.83810   0.59327   0.00000  Uiso   1.00
C1066  C     0.41082   0.82338   0.93379   0.00000  Uiso   1.00
C1067  C     0.39692   0.81784   0.98716   0.00000  Uiso   1.00
C1068  C     0.43035   0.82495   0.51463   0.00000  Uiso   1.00
Cu1069 Cu    0.45311   0.83333   0.75000   0.00000  Uiso   1.00
Cu1070 Cu    0.54689   0.83334   0.75000   0.00000  Uiso   1.00
H1071  H     0.61479   0.85900   0.58640   0.00000  Uiso   1.00
H1072  H     0.57862   0.70321   0.72150   0.00000  Uiso   1.00
H1073  H     0.42073   0.70646   0.78396   0.00000  Uiso   1.00
H1074  H     0.63982   0.87793   0.69035   0.00000  Uiso   1.00
H1075  H     0.39358   0.87797   0.69038   0.00000  Uiso   1.00
H1076  H     0.36009   0.78903   0.80996   0.00000  Uiso   1.00
H1077  H     0.60635   0.78893   0.80986   0.00000  Uiso   1.00
H1078  H     0.63256   0.87949   0.99687   0.00000  Uiso   1.00
H1079  H     0.47325   0.81620   0.58823   0.00000  Uiso   1.00
H1080  H     0.38540   0.81426   0.91283   0.00000  Uiso   1.00
H1081  H     0.41702   0.81877   0.55571   0.00000  Uiso   1.00
H1082  H     0.36069   0.80613   0.50710   0.00000  Uiso   1.00
H1083  H     0.57755   0.96192   0.72320   0.00000  Uiso   1.00
N1084  N     0.38265   0.83332   0.74999   0.00000  Uiso   1.00
N1085  N     0.61735   0.83335   0.74999   0.00000  Uiso   1.00
O1086  O     0.46042   0.89345   0.75001   0.00000  Uiso   1.00
O1087  O     0.53961   0.89346   0.75001   0.00000  Uiso   1.00
O1088  O     0.44108   0.83332   0.82549   0.00000  Uiso   1.00
O1089  O     0.52027   0.83333   0.82549   0.00000  Uiso   1.00
O1090  O     0.46039   0.77321   0.75000   0.00000  Uiso   1.00
O1091  O     0.53958   0.77322   0.74999   0.00000  Uiso   1.00
O1092  O     0.47973   0.83334   0.67451   0.00000  Uiso   1.00
O1093  O     0.55892   0.83335   0.67451   0.00000  Uiso   1.00
C1094  C     0.40522   0.96038   0.79849   0.00000  Uiso   1.00
O1095  O     0.40151   0.93362   0.83118   0.00000  Uiso   1.00
O1096  O     0.36362   0.97393   0.78595   0.00000  Uiso   1.00
H1097  H     0.66628   0.95812   0.80495   0.00000  Uiso   1.00
C1098  C     0.61164   0.90705   0.91757   0.00000  Uiso   1.00
O1099  O     0.65166   0.89058   0.89872   0.00000  Uiso   1.00
O1100  O     0.60715   0.94991   0.91830   0.00000  Uiso   1.00
H1101  H     0.63982   0.96412   0.90278   0.00000  Uiso   1.00
C1102  C     0.53070   0.90779   0.87292   0.00000  Uiso   1.00
O1103  O     0.49345   0.92742   0.87568   0.00000  Uiso   1.00
O1104  O     0.57254   0.91447   0.83070   0.00000  Uiso   1.00
H1105  H     0.59908   0.89305   0.82751   0.00000  Uiso   1.00
C1106  C     0.83264   0.91265   0.75205   0.00000  Uiso   1.00
C1107  C     0.81142   0.84035   0.98946   0.00000  Uiso   1.00
C1108  C     0.82254   0.85237   0.93657   0.00000  Uiso   1.00
C1109  C     0.84791   0.84472   0.51539   0.00000  Uiso   1.00
C1110  C     0.89377   0.86325   0.98943   0.00000  Uiso   1.00
C1111  C     0.90094   0.88136   0.94021   0.00000  Uiso   1.00
C1112  C     0.86399   0.87814   0.91514   0.00000  Uiso   1.00
C1113  C     0.83999   0.83129   0.56685   0.00000  Uiso   1.00
C1114  C     0.92055   0.85397   0.56670   0.00000  Uiso   1.00
C1115  C     0.79079   0.83890   0.90751   0.00000  Uiso   1.00
C1116  C     0.87631   0.97840   0.73715   0.00000  Uiso   1.00
C1117  C     0.80710   0.83593   0.85008   0.00000  Uiso   1.00
C1118  C     0.87700   0.68759   0.73582   0.00000  Uiso   1.00
C1119  C     0.83286   0.70959   0.75159   0.00000  Uiso   1.00
C1120  C     0.78805   0.68907   0.77011   0.00000  Uiso   1.00
C1121  C     0.78680   0.97974   0.77347   0.00000  Uiso   1.00
C1122  C     0.83153   0.95740   0.75507   0.00000  Uiso   1.00
C1123  C     0.98447   0.85810   0.71685   0.00000  Uiso   1.00
C1124  C     0.70077   0.85810   0.71686   0.00000  Uiso   1.00
C1125  C     0.68215   0.80874   0.78331   0.00000  Uiso   1.00
C1126  C     0.96587   0.80869   0.78324   0.00000  Uiso   1.00
C1127  C     0.83332   0.75407   0.75012   0.00000  Uiso   1.00
C1128  C     0.85956   0.83340   0.64993   0.00000  Uiso   1.00
C1129  C     0.93026   0.86612   0.51522   0.00000  Uiso   1.00
C1130  C     0.87459   0.83810   0.59327   0.00000  Uiso   1.00
C1131  C     0.74415   0.82338   0.93379   0.00000  Uiso   1.00
C1132  C     0.73026   0.81784   0.98716   0.00000  Uiso   1.00
C1133  C     0.76369   0.82495   0.51463   0.00000  Uiso   1.00
Cu1134 Cu    0.78645   0.83333   0.75000   0.00000  Uiso   1.00
Cu1135 Cu    0.88022   0.83334   0.75000   0.00000  Uiso   1.00
H1136  H     0.94812   0.85900   0.58640   0.00000  Uiso   1.00
H1137  H     0.91196   0.70321   0.72150   0.00000  Uiso   1.00
H1138  H     0.75406   0.70646   0.78396   0.00000  Uiso   1.00
H1139  H     0.97315   0.87793   0.69035   0.00000  Uiso   1.00
H1140  H     0.72691   0.87797   0.69038   0.00000  Uiso   1.00
H1141  H     0.69342   0.78903   0.80996   0.00000  Uiso   1.00
H1142  H     0.93969   0.78893   0.80986   0.00000  Uiso   1.00
H1143  H     0.96589   0.87949   0.99687   0.00000  Uiso   1.00
H1144  H     0.80658   0.81620   0.58823   0.00000  Uiso   1.00
H1145  H     0.71873   0.81426   0.91283   0.00000  Uiso   1.00
H1146  H     0.75035   0.81877   0.55571   0.00000  Uiso   1.00
H1147  H     0.69402   0.80613   0.50710   0.00000  Uiso   1.00
H1148  H     0.91089   0.96192   0.72320   0.00000  Uiso   1.00
N1149  N     0.71598   0.83332   0.74999   0.00000  Uiso   1.00
N1150  N     0.95069   0.83335   0.74999   0.00000  Uiso   1.00
O1151  O     0.79375   0.89345   0.75001   0.00000  Uiso   1.00
O1152  O     0.87294   0.89346   0.75001   0.00000  Uiso   1.00
O1153  O     0.77441   0.83332   0.82549   0.00000  Uiso   1.00
O1154  O     0.85360   0.83333   0.82549   0.00000  Uiso   1.00
O1155  O     0.79373   0.77321   0.75000   0.00000  Uiso   1.00
O1156  O     0.87292   0.77322   0.74999   0.00000  Uiso   1.00
O1157  O     0.81306   0.83334   0.67451   0.00000  Uiso   1.00
O1158  O     0.89225   0.83335   0.67451   0.00000  Uiso   1.00
C1159  C     0.73856   0.96038   0.79849   0.00000  Uiso   1.00
O1160  O     0.73485   0.93362   0.83118   0.00000  Uiso   1.00
O1161  O     0.69695   0.97393   0.78595   0.00000  Uiso   1.00
H1162  H     0.99962   0.95812   0.80495   0.00000  Uiso   1.00
C1163  C     0.94498   0.90705   0.91757   0.00000  Uiso   1.00
O1164  O     0.98500   0.89058   0.89872   0.00000  Uiso   1.00
O1165  O     0.94048   0.94991   0.91830   0.00000  Uiso   1.00
H1166  H     0.97316   0.96412   0.90278   0.00000  Uiso   1.00
C1167  C     0.86404   0.90779   0.87292   0.00000  Uiso   1.00
O1168  O     0.82679   0.92742   0.87568   0.00000  Uiso   1.00
O1169  O     0.90587   0.91447   0.83070   0.00000  Uiso   1.00
H1170  H     0.93242   0.89305   0.82751   0.00000  Uiso   1.00
loop_
_geom_bond_atom_site_label_1
_geom_bond_atom_site_label_2
_geom_bond_distance
_geom_bond_site_symmetry_2
_ccdc_geom_bond_type
C1     C17     1.455   .     S
C1     O47     1.293   .     A
C1     O46     1.288   .     A
C2     C3      1.419   .     A
C2     C589    1.422   .     S
C2     C613    1.420   .     S
C3     C10     1.429   .     A
C3     C7      1.426   .     A
C4     C8      1.407   .     A
C4     C587    1.422   1_554 S
C4     C590    1.422   1_554 S
C5     C6      1.410   .     A
C5     C589    1.422   .     S
C5     C609    1.415   .     S
C6     C7      1.414   .     A
C6     C58     1.482   .     S
C7     C62     1.494   .     S
C8     H39     1.075   .     S
C8     C25     1.395   .     A
C9     C24     1.388   .     A
C9     C25     1.393   .     A
C9     H31     1.083   .     S
C10    C26     1.403   .     A
C10    C12     1.476   .     S
C11    H43     1.084   .     S
C11    C17     1.403   .     A
C11    C208    1.382   .     S
C12    O48     1.297   .     A
C12    O49     1.295   .     A
C13    H32     1.083   .     S
C13    C14     1.396   .     A
C13    C401    1.382   1_545 S
C14    C22     1.446   .     S
C14    C15     1.397   .     A
C15    H33     1.085   .     S
C15    C406    1.389   1_545 S
C16    C54     1.482   .     S
C16    C17     1.419   .     A
C16    C210    1.389   .     S
C18    H34     1.082   .     S
C18    N45     1.366   .     A
C18    C84     1.416   .     S
C19    H35     1.082   .     S
C19    N44     1.367   .     A
C19    C148    1.416   1_455 S
C20    N44     1.366   .     A
C20    H36     1.082   .     S
C20    C151    1.416   1_455 S
C21    N45     1.367   .     A
C21    H37     1.082   .     S
C21    C85     1.416   .     S
C22    O50     1.289   .     A
C22    O51     1.289   .     A
C23    O52     1.293   .     A
C23    O53     1.294   .     A
C23    C25     1.463   .     S
C24    C590    1.415   1_554 S
C24    H623    1.081   1_554 S
C26    C27     1.383   .     A
C26    H40     1.083   .     S
C27    C613    1.388   .     S
C27    H627    1.083   .     S
C28    H41     1.076   .     S
C28    C612    1.388   1_554 S
C28    C587    1.420   1_554 S
Cu29   O46     1.964   .     S
Cu29   Cu30    2.674   .     S
Cu29   O50     1.963   .     S
Cu29   N44     2.010   .     S
Cu29   O48     1.955   .     S
Cu29   O52     1.943   .     S
Cu30   O51     1.964   .     S
Cu30   O49     1.943   .     S
Cu30   O53     1.955   .     S
Cu30   O47     1.963   .     S
Cu30   N45     2.010   .     S
H38    C609    1.081   .     S
H42    C612    1.083   1_554 S
C54    O56     1.398   .     S
C54    O55     1.222   .     D
O56    H187    1.014   1_455 S
H57    O121    1.014   .     S
C58    O60     1.397   .     S
C58    O59     1.223   .     D
O60    H61     1.013   .     S
C62    O63     1.221   .     D
C62    O64     1.398   .     S
O64    H65     1.012   .     S
C66    C82     1.455   .     S
C66    O112    1.293   .     A
C66    O111    1.288   .     A
C67    C68     1.419   .     A
C67    C654    1.422   .     S
C67    C678    1.420   .     S
C68    C75     1.429   .     A
C68    C72     1.426   .     A
C69    C73     1.407   .     A
C69    C652    1.422   1_554 S
C69    C655    1.422   1_554 S
C70    C71     1.410   .     A
C70    C654    1.422   .     S
C70    C674    1.415   .     S
C71    C72     1.414   .     A
C71    C123    1.482   .     S
C72    C127    1.494   .     S
C73    H104    1.075   .     S
C73    C90     1.395   .     A
C74    C89     1.388   .     A
C74    C90     1.393   .     A
C74    H96     1.083   .     S
C75    C91     1.403   .     A
C75    C77     1.476   .     S
C76    H108    1.084   .     S
C76    C82     1.403   .     A
C76    C273    1.382   .     S
C77    O113    1.297   .     A
C77    O114    1.295   .     A
C78    H97     1.083   .     S
C78    C79     1.396   .     A
C78    C466    1.382   1_545 S
C79    C87     1.446   .     S
C79    C80     1.397   .     A
C80    H98     1.085   .     S
C80    C471    1.389   1_545 S
C81    C119    1.482   .     S
C81    C82     1.419   .     A
C81    C275    1.389   .     S
C83    H99     1.082   .     S
C83    N110    1.366   .     A
C83    C149    1.416   .     S
C84    H100    1.082   .     S
C84    N109    1.367   .     A
C85    N109    1.366   .     A
C85    H101    1.082   .     S
C86    N110    1.367   .     A
C86    H102    1.082   .     S
C86    C150    1.416   .     S
C87    O115    1.289   .     A
C87    O116    1.289   .     A
C88    O117    1.293   .     A
C88    O118    1.294   .     A
C88    C90     1.463   .     S
C89    C655    1.415   1_554 S
C89    H688    1.081   1_554 S
C91    C92     1.383   .     A
C91    H105    1.083   .     S
C92    C678    1.388   .     S
C92    H692    1.083   .     S
C93    H106    1.076   .     S
C93    C677    1.388   1_554 S
C93    C652    1.420   1_554 S
Cu94   O111    1.964   .     S
Cu94   Cu95    2.674   .     S
Cu94   O115    1.963   .     S
Cu94   N109    2.010   .     S
Cu94   O113    1.955   .     S
Cu94   O117    1.943   .     S
Cu95   O116    1.964   .     S
Cu95   O114    1.943   .     S
Cu95   O118    1.955   .     S
Cu95   O112    1.963   .     S
Cu95   N110    2.010   .     S
H103   C674    1.081   .     S
H107   C677    1.083   1_554 S
C119   O121    1.398   .     S
C119   O120    1.222   .     D
H122   O186    1.014   .     S
C123   O125    1.397   .     S
C123   O124    1.223   .     D
O125   H126    1.013   .     S
C127   O128    1.221   .     D
C127   O129    1.398   .     S
O129   H130    1.012   .     S
C131   C147    1.455   .     S
C131   O177    1.293   .     A
C131   O176    1.288   .     A
C132   C133    1.419   .     A
C132   C719    1.422   .     S
C132   C743    1.420   .     S
C133   C140    1.429   .     A
C133   C137    1.426   .     A
C134   C138    1.407   .     A
C134   C717    1.422   1_554 S
C134   C720    1.422   1_554 S
C135   C136    1.410   .     A
C135   C719    1.422   .     S
C135   C739    1.415   .     S
C136   C137    1.414   .     A
C136   C188    1.482   .     S
C137   C192    1.494   .     S
C138   H169    1.075   .     S
C138   C155    1.395   .     A
C139   C154    1.388   .     A
C139   C155    1.393   .     A
C139   H161    1.083   .     S
C140   C156    1.403   .     A
C140   C142    1.476   .     S
C141   H173    1.084   .     S
C141   C147    1.403   .     A
C141   C338    1.382   .     S
C142   O178    1.297   .     A
C142   O179    1.295   .     A
C143   H162    1.083   .     S
C143   C144    1.396   .     A
C143   C531    1.382   1_545 S
C144   C152    1.446   .     S
C144   C145    1.397   .     A
C145   H163    1.085   .     S
C145   C536    1.389   1_545 S
C146   C184    1.482   .     S
C146   C147    1.419   .     A
C146   C340    1.389   .     S
C148   H164    1.082   .     S
C148   N175    1.366   .     A
C148   C19     1.416   1_655 S
C149   H165    1.082   .     S
C149   N174    1.367   .     A
C150   N174    1.366   .     A
C150   H166    1.082   .     S
C151   N175    1.367   .     A
C151   H167    1.082   .     S
C151   C20     1.416   1_655 S
C152   O180    1.289   .     A
C152   O181    1.289   .     A
C153   O182    1.293   .     A
C153   O183    1.294   .     A
C153   C155    1.463   .     S
C154   C720    1.415   1_554 S
C154   H753    1.081   1_554 S
C156   C157    1.383   .     A
C156   H170    1.083   .     S
C157   C743    1.388   .     S
C157   H757    1.083   .     S
C158   H171    1.076   .     S
C158   C742    1.388   1_554 S
C158   C717    1.420   1_554 S
Cu159  O176    1.964   .     S
Cu159  Cu160   2.674   .     S
Cu159  O180    1.963   .     S
Cu159  N174    2.010   .     S
Cu159  O178    1.955   .     S
Cu159  O182    1.943   .     S
Cu160  O181    1.964   .     S
Cu160  O179    1.943   .     S
Cu160  O183    1.955   .     S
Cu160  O177    1.963   .     S
Cu160  N175    2.010   .     S
H168   C739    1.081   .     S
H172   C742    1.083   1_554 S
C184   O186    1.398   .     S
C184   O185    1.222   .     D
H187   O56     1.014   1_655 S
C188   O190    1.397   .     S
C188   O189    1.223   .     D
O190   H191    1.013   .     S
C192   O193    1.221   .     D
C192   O194    1.398   .     S
O194   H195    1.012   .     S
C196   C212    1.455   .     S
C196   O242    1.293   .     A
C196   O241    1.288   .     A
C197   C198    1.419   .     A
C197   C784    1.422   .     S
C197   C808    1.420   .     S
C198   C205    1.429   .     A
C198   C202    1.426   .     A
C199   C203    1.407   .     A
C199   C782    1.422   1_554 S
C199   C785    1.422   1_554 S
C200   C201    1.410   .     A
C200   C784    1.422   .     S
C200   C804    1.415   .     S
C201   C202    1.414   .     A
C201   C253    1.482   .     S
C202   C257    1.494   .     S
C203   H234    1.075   .     S
C203   C220    1.395   .     A
C204   C219    1.388   .     A
C204   C220    1.393   .     A
C204   H226    1.083   .     S
C205   C221    1.403   .     A
C205   C207    1.476   .     S
C206   H238    1.084   .     S
C206   C212    1.403   .     A
C206   C403    1.382   .     S
C207   O243    1.297   .     A
C207   O244    1.295   .     A
C208   H227    1.083   .     S
C208   C209    1.396   .     A
C209   C217    1.446   .     S
C209   C210    1.397   .     A
C210   H228    1.085   .     S
C211   C249    1.482   .     S
C211   C212    1.419   .     A
C211   C405    1.389   .     S
C213   H229    1.082   .     S
C213   N240    1.366   .     A
C213   C279    1.416   .     S
C214   H230    1.082   .     S
C214   N239    1.367   .     A
C214   C343    1.416   1_455 S
C215   N239    1.366   .     A
C215   H231    1.082   .     S
C215   C346    1.416   1_455 S
C216   N240    1.367   .     A
C216   H232    1.082   .     S
C216   C280    1.416   .     S
C217   O245    1.289   .     A
C217   O246    1.289   .     A
C218   O247    1.293   .     A
C218   O248    1.294   .     A
C218   C220    1.463   .     S
C219   C785    1.415   1_554 S
C219   H818    1.081   1_554 S
C221   C222    1.383   .     A
C221   H235    1.083   .     S
C222   C808    1.388   .     S
C222   H822    1.083   .     S
C223   H236    1.076   .     S
C223   C807    1.388   1_554 S
C223   C782    1.420   1_554 S
Cu224  O241    1.964   .     S
Cu224  Cu225   2.674   .     S
Cu224  O245    1.963   .     S
Cu224  N239    2.010   .     S
Cu224  O243    1.955   .     S
Cu224  O247    1.943   .     S
Cu225  O246    1.964   .     S
Cu225  O244    1.943   .     S
Cu225  O248    1.955   .     S
Cu225  O242    1.963   .     S
Cu225  N240    2.010   .     S
H233   C804    1.081   .     S
H237   C807    1.083   1_554 S
C249   O251    1.398   .     S
C249   O250    1.222   .     D
O251   H382    1.014   1_455 S
H252   O316    1.014   .     S
C253   O255    1.397   .     S
C253   O254    1.223   .     D
O255   H256    1.013   .     S
C257   O258    1.221   .     D
C257   O259    1.398   .     S
O259   H260    1.012   .     S
C261   C277    1.455   .     S
C261   O307    1.293   .     A
C261   O306    1.288   .     A
C262   C263    1.419   .     A
C262   C849    1.422   .     S
C262   C873    1.420   .     S
C263   C270    1.429   .     A
C263   C267    1.426   .     A
C264   C268    1.407   .     A
C264   C847    1.422   1_554 S
C264   C850    1.422   1_554 S
C265   C266    1.410   .     A
C265   C849    1.422   .     S
C265   C869    1.415   .     S
C266   C267    1.414   .     A
C266   C318    1.482   .     S
C267   C322    1.494   .     S
C268   H299    1.075   .     S
C268   C285    1.395   .     A
C269   C284    1.388   .     A
C269   C285    1.393   .     A
C269   H291    1.083   .     S
C270   C286    1.403   .     A
C270   C272    1.476   .     S
C271   H303    1.084   .     S
C271   C277    1.403   .     A
C271   C468    1.382   .     S
C272   O308    1.297   .     A
C272   O309    1.295   .     A
C273   H292    1.083   .     S
C273   C274    1.396   .     A
C274   C282    1.446   .     S
C274   C275    1.397   .     A
C275   H293    1.085   .     S
C276   C314    1.482   .     S
C276   C277    1.419   .     A
C276   C470    1.389   .     S
C278   H294    1.082   .     S
C278   N305    1.366   .     A
C278   C344    1.416   .     S
C279   H295    1.082   .     S
C279   N304    1.367   .     A
C280   N304    1.366   .     A
C280   H296    1.082   .     S
C281   N305    1.367   .     A
C281   H297    1.082   .     S
C281   C345    1.416   .     S
C282   O310    1.289   .     A
C282   O311    1.289   .     A
C283   O312    1.293   .     A
C283   O313    1.294   .     A
C283   C285    1.463   .     S
C284   C850    1.415   1_554 S
C284   H883    1.081   1_554 S
C286   C287    1.383   .     A
C286   H300    1.083   .     S
C287   C873    1.388   .     S
C287   H887    1.083   .     S
C288   H301    1.076   .     S
C288   C872    1.388   1_554 S
C288   C847    1.420   1_554 S
Cu289  O306    1.964   .     S
Cu289  Cu290   2.674   .     S
Cu289  O310    1.963   .     S
Cu289  N304    2.010   .     S
Cu289  O308    1.955   .     S
Cu289  O312    1.943   .     S
Cu290  O311    1.964   .     S
Cu290  O309    1.943   .     S
Cu290  O313    1.955   .     S
Cu290  O307    1.963   .     S
Cu290  N305    2.010   .     S
H298   C869    1.081   .     S
H302   C872    1.083   1_554 S
C314   O316    1.398   .     S
C314   O315    1.222   .     D
H317   O381    1.014   .     S
C318   O320    1.397   .     S
C318   O319    1.223   .     D
O320   H321    1.013   .     S
C322   O323    1.221   .     D
C322   O324    1.398   .     S
O324   H325    1.012   .     S
C326   C342    1.455   .     S
C326   O372    1.293   .     A
C326   O371    1.288   .     A
C327   C328    1.419   .     A
C327   C914    1.422   .     S
C327   C938    1.420   .     S
C328   C335    1.429   .     A
C328   C332    1.426   .     A
C329   C333    1.407   .     A
C329   C912    1.422   1_554 S
C329   C915    1.422   1_554 S
C330   C331    1.410   .     A
C330   C914    1.422   .     S
C330   C934    1.415   .     S
C331   C332    1.414   .     A
C331   C383    1.482   .     S
C332   C387    1.494   .     S
C333   H364    1.075   .     S
C333   C350    1.395   .     A
C334   C349    1.388   .     A
C334   C350    1.393   .     A
C334   H356    1.083   .     S
C335   C351    1.403   .     A
C335   C337    1.476   .     S
C336   H368    1.084   .     S
C336   C342    1.403   .     A
C336   C533    1.382   .     S
C337   O373    1.297   .     A
C337   O374    1.295   .     A
C338   H357    1.083   .     S
C338   C339    1.396   .     A
C339   C347    1.446   .     S
C339   C340    1.397   .     A
C340   H358    1.085   .     S
C341   C379    1.482   .     S
C341   C342    1.419   .     A
C341   C535    1.389   .     S
C343   H359    1.082   .     S
C343   N370    1.366   .     A
C343   C214    1.416   1_655 S
C344   H360    1.082   .     S
C344   N369    1.367   .     A
C345   N369    1.366   .     A
C345   H361    1.082   .     S
C346   N370    1.367   .     A
C346   H362    1.082   .     S
C346   C215    1.416   1_655 S
C347   O375    1.289   .     A
C347   O376    1.289   .     A
C348   O377    1.293   .     A
C348   O378    1.294   .     A
C348   C350    1.463   .     S
C349   C915    1.415   1_554 S
C349   H948    1.081   1_554 S
C351   C352    1.383   .     A
C351   H365    1.083   .     S
C352   C938    1.388   .     S
C352   H952    1.083   .     S
C353   H366    1.076   .     S
C353   C937    1.388   1_554 S
C353   C912    1.420   1_554 S
Cu354  O371    1.964   .     S
Cu354  Cu355   2.674   .     S
Cu354  O375    1.963   .     S
Cu354  N369    2.010   .     S
Cu354  O373    1.955   .     S
Cu354  O377    1.943   .     S
Cu355  O376    1.964   .     S
Cu355  O374    1.943   .     S
Cu355  O378    1.955   .     S
Cu355  O372    1.963   .     S
Cu355  N370    2.010   .     S
H363   C934    1.081   .     S
H367   C937    1.083   1_554 S
C379   O381    1.398   .     S
C379   O380    1.222   .     D
H382   O251    1.014   1_655 S
C383   O385    1.397   .     S
C383   O384    1.223   .     D
O385   H386    1.013   .     S
C387   O388    1.221   .     D
C387   O389    1.398   .     S
O389   H390    1.012   .     S
C391   C407    1.455   .     S
C391   O437    1.293   .     A
C391   O436    1.288   .     A
C392   C393    1.419   .     A
C392   C979    1.422   .     S
C392   C1003   1.420   .     S
C393   C400    1.429   .     A
C393   C397    1.426   .     A
C394   C398    1.407   .     A
C394   C977    1.422   1_554 S
C394   C980    1.422   1_554 S
C395   C396    1.410   .     A
C395   C979    1.422   .     S
C395   C999    1.415   .     S
C396   C397    1.414   .     A
C396   C448    1.482   .     S
C397   C452    1.494   .     S
C398   H429    1.075   .     S
C398   C415    1.395   .     A
C399   C414    1.388   .     A
C399   C415    1.393   .     A
C399   H421    1.083   .     S
C400   C416    1.403   .     A
C400   C402    1.476   .     S
C401   H433    1.084   .     S
C401   C407    1.403   .     A
C401   C13     1.382   1_565 S
C402   O438    1.297   .     A
C402   O439    1.295   .     A
C403   H422    1.083   .     S
C403   C404    1.396   .     A
C404   C412    1.446   .     S
C404   C405    1.397   .     A
C405   H423    1.085   .     S
C406   C444    1.482   .     S
C406   C407    1.419   .     A
C406   C15     1.389   1_565 S
C408   H424    1.082   .     S
C408   N435    1.366   .     A
C408   C474    1.416   .     S
C409   H425    1.082   .     S
C409   N434    1.367   .     A
C409   C538    1.416   1_455 S
C410   N434    1.366   .     A
C410   H426    1.082   .     S
C410   C541    1.416   1_455 S
C411   N435    1.367   .     A
C411   H427    1.082   .     S
C411   C475    1.416   .     S
C412   O440    1.289   .     A
C412   O441    1.289   .     A
C413   O442    1.293   .     A
C413   O443    1.294   .     A
C413   C415    1.463   .     S
C414   C980    1.415   1_554 S
C414   H1013   1.081   1_554 S
C416   C417    1.383   .     A
C416   H430    1.083   .     S
C417   C1003   1.388   .     S
C417   H1017   1.083   .     S
C418   H431    1.076   .     S
C418   C1002   1.388   1_554 S
C418   C977    1.420   1_554 S
Cu419  O436    1.964   .     S
Cu419  Cu420   2.674   .     S
Cu419  O440    1.963   .     S
Cu419  N434    2.010   .     S
Cu419  O438    1.955   .     S
Cu419  O442    1.943   .     S
Cu420  O441    1.964   .     S
Cu420  O439    1.943   .     S
Cu420  O443    1.955   .     S
Cu420  O437    1.963   .     S
Cu420  N435    2.010   .     S
H428   C999    1.081   .     S
H432   C1002   1.083   1_554 S
C444   O446    1.398   .     S
C444   O445    1.222   .     D
O446   H577    1.014   1_455 S
H447   O511    1.014   .     S
C448   O450    1.397   .     S
C448   O449    1.223   .     D
O450   H451    1.013   .     S
C452   O453    1.221   .     D
C452   O454    1.398   .     S
O454   H455    1.012   .     S
C456   C472    1.455   .     S
C456   O502    1.293   .     A
C456   O501    1.288   .     A
C457   C458    1.419   .     A
C457   C1044   1.422   .     S
C457   C1068   1.420   .     S
C458   C465    1.429   .     A
C458   C462    1.426   .     A
C459   C463    1.407   .     A
C459   C1042   1.422   1_554 S
C459   C1045   1.422   1_554 S
C460   C461    1.410   .     A
C460   C1044   1.422   .     S
C460   C1064   1.415   .     S
C461   C462    1.414   .     A
C461   C513    1.482   .     S
C462   C517    1.494   .     S
C463   H494    1.075   .     S
C463   C480    1.395   .     A
C464   C479    1.388   .     A
C464   C480    1.393   .     A
C464   H486    1.083   .     S
C465   C481    1.403   .     A
C465   C467    1.476   .     S
C466   H498    1.084   .     S
C466   C472    1.403   .     A
C466   C78     1.382   1_565 S
C467   O503    1.297   .     A
C467   O504    1.295   .     A
C468   H487    1.083   .     S
C468   C469    1.396   .     A
C469   C477    1.446   .     S
C469   C470    1.397   .     A
C470   H488    1.085   .     S
C471   C509    1.482   .     S
C471   C472    1.419   .     A
C471   C80     1.389   1_565 S
C473   H489    1.082   .     S
C473   N500    1.366   .     A
C473   C539    1.416   .     S
C474   H490    1.082   .     S
C474   N499    1.367   .     A
C475   N499    1.366   .     A
C475   H491    1.082   .     S
C476   N500    1.367   .     A
C476   H492    1.082   .     S
C476   C540    1.416   .     S
C477   O505    1.289   .     A
C477   O506    1.289   .     A
C478   O507    1.293   .     A
C478   O508    1.294   .     A
C478   C480    1.463   .     S
C479   C1045   1.415   1_554 S
C479   H1078   1.081   1_554 S
C481   C482    1.383   .     A
C481   H495    1.083   .     S
C482   C1068   1.388   .     S
C482   H1082   1.083   .     S
C483   H496    1.076   .     S
C483   C1067   1.388   1_554 S
C483   C1042   1.420   1_554 S
Cu484  O501    1.964   .     S
Cu484  Cu485   2.674   .     S
Cu484  O505    1.963   .     S
Cu484  N499    2.010   .     S
Cu484  O503    1.955   .     S
Cu484  O507    1.943   .     S
Cu485  O506    1.964   .     S
Cu485  O504    1.943   .     S
Cu485  O508    1.955   .     S
Cu485  O502    1.963   .     S
Cu485  N500    2.010   .     S
H493   C1064   1.081   .     S
H497   C1067   1.083   1_554 S
C509   O511    1.398   .     S
C509   O510    1.222   .     D
H512   O576    1.014   .     S
C513   O515    1.397   .     S
C513   O514    1.223   .     D
O515   H516    1.013   .     S
C517   O518    1.221   .     D
C517   O519    1.398   .     S
O519   H520    1.012   .     S
C521   C537    1.455   .     S
C521   O567    1.293   .     A
C521   O566    1.288   .     A
C522   C523    1.419   .     A
C522   C1109   1.422   .     S
C522   C1133   1.420   .     S
C523   C530    1.429   .     A
C523   C527    1.426   .     A
C524   C528    1.407   .     A
C524   C1107   1.422   1_554 S
C524   C1110   1.422   1_554 S
C525   C526    1.410   .     A
C525   C1109   1.422   .     S
C525   C1129   1.415   .     S
C526   C527    1.414   .     A
C526   C578    1.482   .     S
C527   C582    1.494   .     S
C528   H559    1.075   .     S
C528   C545    1.395   .     A
C529   C544    1.388   .     A
C529   C545    1.393   .     A
C529   H551    1.083   .     S
C530   C546    1.403   .     A
C530   C532    1.476   .     S
C531   H563    1.084   .     S
C531   C537    1.403   .     A
C531   C143    1.382   1_565 S
C532   O568    1.297   .     A
C532   O569    1.295   .     A
C533   H552    1.083   .     S
C533   C534    1.396   .     A
C534   C542    1.446   .     S
C534   C535    1.397   .     A
C535   H553    1.085   .     S
C536   C574    1.482   .     S
C536   C537    1.419   .     A
C536   C145    1.389   1_565 S
C538   H554    1.082   .     S
C538   N565    1.366   .     A
C538   C409    1.416   1_655 S
C539   H555    1.082   .     S
C539   N564    1.367   .     A
C540   N564    1.366   .     A
C540   H556    1.082   .     S
C541   N565    1.367   .     A
C541   H557    1.082   .     S
C541   C410    1.416   1_655 S
C542   O570    1.289   .     A
C542   O571    1.289   .     A
C543   O572    1.293   .     A
C543   O573    1.294   .     A
C543   C545    1.463   .     S
C544   C1110   1.415   1_554 S
C544   H1143   1.081   1_554 S
C546   C547    1.383   .     A
C546   H560    1.083   .     S
C547   C1133   1.388   .     S
C547   H1147   1.083   .     S
C548   H561    1.076   .     S
C548   C1132   1.388   1_554 S
C548   C1107   1.420   1_554 S
Cu549  O566    1.964   .     S
Cu549  Cu550   2.674   .     S
Cu549  O570    1.963   .     S
Cu549  N564    2.010   .     S
Cu549  O568    1.955   .     S
Cu549  O572    1.943   .     S
Cu550  O571    1.964   .     S
Cu550  O569    1.943   .     S
Cu550  O573    1.955   .     S
Cu550  O567    1.963   .     S
Cu550  N565    2.010   .     S
H558   C1129   1.081   .     S
H562   C1132   1.083   1_554 S
C574   O576    1.398   .     S
C574   O575    1.222   .     D
H577   O446    1.014   1_655 S
C578   O580    1.397   .     S
C578   O579    1.223   .     D
O580   H581    1.013   .     S
C582   O583    1.221   .     D
C582   O584    1.398   .     S
O584   H585    1.012   .     S
C586   C602    1.455   .     S
C586   O632    1.293   .     A
C586   O631    1.288   .     A
C587   C588    1.419   .     A
C587   C4      1.422   1_556 S
C587   C28     1.420   1_556 S
C588   C595    1.429   .     A
C588   C592    1.426   .     A
C589   C593    1.407   .     A
C590   C591    1.410   .     A
C590   C4      1.422   1_556 S
C590   C24     1.415   1_556 S
C591   C592    1.414   .     A
C591   C643    1.482   .     S
C592   C647    1.494   .     S
C593   H624    1.075   .     S
C593   C610    1.395   .     A
C594   C609    1.388   .     A
C594   C610    1.393   .     A
C594   H616    1.083   .     S
C595   C611    1.403   .     A
C595   C597    1.476   .     S
C596   H628    1.084   .     S
C596   C602    1.403   .     A
C596   C793    1.382   .     S
C597   O633    1.297   .     A
C597   O634    1.295   .     A
C598   H617    1.083   .     S
C598   C599    1.396   .     A
C598   C986    1.382   1_545 S
C599   C607    1.446   .     S
C599   C600    1.397   .     A
C600   H618    1.085   .     S
C600   C991    1.389   1_545 S
C601   C639    1.482   .     S
C601   C602    1.419   .     A
C601   C795    1.389   .     S
C603   H619    1.082   .     S
C603   N630    1.366   .     A
C603   C669    1.416   .     S
C604   H620    1.082   .     S
C604   N629    1.367   .     A
C604   C733    1.416   1_455 S
C605   N629    1.366   .     A
C605   H621    1.082   .     S
C605   C736    1.416   1_455 S
C606   N630    1.367   .     A
C606   H622    1.082   .     S
C606   C670    1.416   .     S
C607   O635    1.289   .     A
C607   O636    1.289   .     A
C608   O637    1.293   .     A
C608   O638    1.294   .     A
C608   C610    1.463   .     S
C611   C612    1.383   .     A
C611   H625    1.083   .     S
C612   C28     1.388   1_556 S
C612   H42     1.083   1_556 S
C613   H626    1.076   .     S
Cu614  O631    1.964   .     S
Cu614  Cu615   2.674   .     S
Cu614  O635    1.963   .     S
Cu614  N629    2.010   .     S
Cu614  O633    1.955   .     S
Cu614  O637    1.943   .     S
Cu615  O636    1.964   .     S
Cu615  O634    1.943   .     S
Cu615  O638    1.955   .     S
Cu615  O632    1.963   .     S
Cu615  N630    2.010   .     S
H623   C24     1.081   1_556 S
C639   O641    1.398   .     S
C639   O640    1.222   .     D
O641   H772    1.014   1_455 S
H642   O706    1.014   .     S
C643   O645    1.397   .     S
C643   O644    1.223   .     D
O645   H646    1.013   .     S
C647   O648    1.221   .     D
C647   O649    1.398   .     S
O649   H650    1.012   .     S
C651   C667    1.455   .     S
C651   O697    1.293   .     A
C651   O696    1.288   .     A
C652   C653    1.419   .     A
C652   C69     1.422   1_556 S
C652   C93     1.420   1_556 S
C653   C660    1.429   .     A
C653   C657    1.426   .     A
C654   C658    1.407   .     A
C655   C656    1.410   .     A
C655   C69     1.422   1_556 S
C655   C89     1.415   1_556 S
C656   C657    1.414   .     A
C656   C708    1.482   .     S
C657   C712    1.494   .     S
C658   H689    1.075   .     S
C658   C675    1.395   .     A
C659   C674    1.388   .     A
C659   C675    1.393   .     A
C659   H681    1.083   .     S
C660   C676    1.403   .     A
C660   C662    1.476   .     S
C661   H693    1.084   .     S
C661   C667    1.403   .     A
C661   C858    1.382   .     S
C662   O698    1.297   .     A
C662   O699    1.295   .     A
C663   H682    1.083   .     S
C663   C664    1.396   .     A
C663   C1051   1.382   1_545 S
C664   C672    1.446   .     S
C664   C665    1.397   .     A
C665   H683    1.085   .     S
C665   C1056   1.389   1_545 S
C666   C704    1.482   .     S
C666   C667    1.419   .     A
C666   C860    1.389   .     S
C668   H684    1.082   .     S
C668   N695    1.366   .     A
C668   C734    1.416   .     S
C669   H685    1.082   .     S
C669   N694    1.367   .     A
C670   N694    1.366   .     A
C670   H686    1.082   .     S
C671   N695    1.367   .     A
C671   H687    1.082   .     S
C671   C735    1.416   .     S
C672   O700    1.289   .     A
C672   O701    1.289   .     A
C673   O702    1.293   .     A
C673   O703    1.294   .     A
C673   C675    1.463   .     S
C676   C677    1.383   .     A
C676   H690    1.083   .     S
C677   C93     1.388   1_556 S
C677   H107    1.083   1_556 S
C678   H691    1.076   .     S
Cu679  O696    1.964   .     S
Cu679  Cu680   2.674   .     S
Cu679  O700    1.963   .     S
Cu679  N694    2.010   .     S
Cu679  O698    1.955   .     S
Cu679  O702    1.943   .     S
Cu680  O701    1.964   .     S
Cu680  O699    1.943   .     S
Cu680  O703    1.955   .     S
Cu680  O697    1.963   .     S
Cu680  N695    2.010   .     S
H688   C89     1.081   1_556 S
C704   O706    1.398   .     S
C704   O705    1.222   .     D
H707   O771    1.014   .     S
C708   O710    1.397   .     S
C708   O709    1.223   .     D
O710   H711    1.013   .     S
C712   O713    1.221   .     D
C712   O714    1.398   .     S
O714   H715    1.012   .     S
C716   C732    1.455   .     S
C716   O762    1.293   .     A
C716   O761    1.288   .     A
C717   C718    1.419   .     A
C717   C134    1.422   1_556 S
C717   C158    1.420   1_556 S
C718   C725    1.429   .     A
C718   C722    1.426   .     A
C719   C723    1.407   .     A
C720   C721    1.410   .     A
C720   C134    1.422   1_556 S
C720   C154    1.415   1_556 S
C721   C722    1.414   .     A
C721   C773    1.482   .     S
C722   C777    1.494   .     S
C723   H754    1.075   .     S
C723   C740    1.395   .     A
C724   C739    1.388   .     A
C724   C740    1.393   .     A
C724   H746    1.083   .     S
C725   C741    1.403   .     A
C725   C727    1.476   .     S
C726   H758    1.084   .     S
C726   C732    1.403   .     A
C726   C923    1.382   .     S
C727   O763    1.297   .     A
C727   O764    1.295   .     A
C728   H747    1.083   .     S
C728   C729    1.396   .     A
C728   C1116   1.382   1_545 S
C729   C737    1.446   .     S
C729   C730    1.397   .     A
C730   H748    1.085   .     S
C730   C1121   1.389   1_545 S
C731   C769    1.482   .     S
C731   C732    1.419   .     A
C731   C925    1.389   .     S
C733   H749    1.082   .     S
C733   N760    1.366   .     A
C733   C604    1.416   1_655 S
C734   H750    1.082   .     S
C734   N759    1.367   .     A
C735   N759    1.366   .     A
C735   H751    1.082   .     S
C736   N760    1.367   .     A
C736   H752    1.082   .     S
C736   C605    1.416   1_655 S
C737   O765    1.289   .     A
C737   O766    1.289   .     A
C738   O767    1.293   .     A
C738   O768    1.294   .     A
C738   C740    1.463   .     S
C741   C742    1.383   .     A
C741   H755    1.083   .     S
C742   C158    1.388   1_556 S
C742   H172    1.083   1_556 S
C743   H756    1.076   .     S
Cu744  O761    1.964   .     S
Cu744  Cu745   2.674   .     S
Cu744  O765    1.963   .     S
Cu744  N759    2.010   .     S
Cu744  O763    1.955   .     S
Cu744  O767    1.943   .     S
Cu745  O766    1.964   .     S
Cu745  O764    1.943   .     S
Cu745  O768    1.955   .     S
Cu745  O762    1.963   .     S
Cu745  N760    2.010   .     S
H753   C154    1.081   1_556 S
C769   O771    1.398   .     S
C769   O770    1.222   .     D
H772   O641    1.014   1_655 S
C773   O775    1.397   .     S
C773   O774    1.223   .     D
O775   H776    1.013   .     S
C777   O778    1.221   .     D
C777   O779    1.398   .     S
O779   H780    1.012   .     S
C781   C797    1.455   .     S
C781   O827    1.293   .     A
C781   O826    1.288   .     A
C782   C783    1.419   .     A
C782   C199    1.422   1_556 S
C782   C223    1.420   1_556 S
C783   C790    1.429   .     A
C783   C787    1.426   .     A
C784   C788    1.407   .     A
C785   C786    1.410   .     A
C785   C199    1.422   1_556 S
C785   C219    1.415   1_556 S
C786   C787    1.414   .     A
C786   C838    1.482   .     S
C787   C842    1.494   .     S
C788   H819    1.075   .     S
C788   C805    1.395   .     A
C789   C804    1.388   .     A
C789   C805    1.393   .     A
C789   H811    1.083   .     S
C790   C806    1.403   .     A
C790   C792    1.476   .     S
C791   H823    1.084   .     S
C791   C797    1.403   .     A
C791   C988    1.382   .     S
C792   O828    1.297   .     A
C792   O829    1.295   .     A
C793   H812    1.083   .     S
C793   C794    1.396   .     A
C794   C802    1.446   .     S
C794   C795    1.397   .     A
C795   H813    1.085   .     S
C796   C834    1.482   .     S
C796   C797    1.419   .     A
C796   C990    1.389   .     S
C798   H814    1.082   .     S
C798   N825    1.366   .     A
C798   C864    1.416   .     S
C799   H815    1.082   .     S
C799   N824    1.367   .     A
C799   C928    1.416   1_455 S
C800   N824    1.366   .     A
C800   H816    1.082   .     S
C800   C931    1.416   1_455 S
C801   N825    1.367   .     A
C801   H817    1.082   .     S
C801   C865    1.416   .     S
C802   O830    1.289   .     A
C802   O831    1.289   .     A
C803   O832    1.293   .     A
C803   O833    1.294   .     A
C803   C805    1.463   .     S
C806   C807    1.383   .     A
C806   H820    1.083   .     S
C807   C223    1.388   1_556 S
C807   H237    1.083   1_556 S
C808   H821    1.076   .     S
Cu809  O826    1.964   .     S
Cu809  Cu810   2.674   .     S
Cu809  O830    1.963   .     S
Cu809  N824    2.010   .     S
Cu809  O828    1.955   .     S
Cu809  O832    1.943   .     S
Cu810  O831    1.964   .     S
Cu810  O829    1.943   .     S
Cu810  O833    1.955   .     S
Cu810  O827    1.963   .     S
Cu810  N825    2.010   .     S
H818   C219    1.081   1_556 S
C834   O836    1.398   .     S
C834   O835    1.222   .     D
O836   H967    1.014   1_455 S
H837   O901    1.014   .     S
C838   O840    1.397   .     S
C838   O839    1.223   .     D
O840   H841    1.013   .     S
C842   O843    1.221   .     D
C842   O844    1.398   .     S
O844   H845    1.012   .     S
C846   C862    1.455   .     S
C846   O892    1.293   .     A
C846   O891    1.288   .     A
C847   C848    1.419   .     A
C847   C264    1.422   1_556 S
C847   C288    1.420   1_556 S
C848   C855    1.429   .     A
C848   C852    1.426   .     A
C849   C853    1.407   .     A
C850   C851    1.410   .     A
C850   C264    1.422   1_556 S
C850   C284    1.415   1_556 S
C851   C852    1.414   .     A
C851   C903    1.482   .     S
C852   C907    1.494   .     S
C853   H884    1.075   .     S
C853   C870    1.395   .     A
C854   C869    1.388   .     A
C854   C870    1.393   .     A
C854   H876    1.083   .     S
C855   C871    1.403   .     A
C855   C857    1.476   .     S
C856   H888    1.084   .     S
C856   C862    1.403   .     A
C856   C1053   1.382   .     S
C857   O893    1.297   .     A
C857   O894    1.295   .     A
C858   H877    1.083   .     S
C858   C859    1.396   .     A
C859   C867    1.446   .     S
C859   C860    1.397   .     A
C860   H878    1.085   .     S
C861   C899    1.482   .     S
C861   C862    1.419   .     A
C861   C1055   1.389   .     S
C863   H879    1.082   .     S
C863   N890    1.366   .     A
C863   C929    1.416   .     S
C864   H880    1.082   .     S
C864   N889    1.367   .     A
C865   N889    1.366   .     A
C865   H881    1.082   .     S
C866   N890    1.367   .     A
C866   H882    1.082   .     S
C866   C930    1.416   .     S
C867   O895    1.289   .     A
C867   O896    1.289   .     A
C868   O897    1.293   .     A
C868   O898    1.294   .     A
C868   C870    1.463   .     S
C871   C872    1.383   .     A
C871   H885    1.083   .     S
C872   C288    1.388   1_556 S
C872   H302    1.083   1_556 S
C873   H886    1.076   .     S
Cu874  O891    1.964   .     S
Cu874  Cu875   2.674   .     S
Cu874  O895    1.963   .     S
Cu874  N889    2.010   .     S
Cu874  O893    1.955   .     S
Cu874  O897    1.943   .     S
Cu875  O896    1.964   .     S
Cu875  O894    1.943   .     S
Cu875  O898    1.955   .     S
Cu875  O892    1.963   .     S
Cu875  N890    2.010   .     S
H883   C284    1.081   1_556 S
C899   O901    1.398   .     S
C899   O900    1.222   .     D
H902   O966    1.014   .     S
C903   O905    1.397   .     S
C903   O904    1.223   .     D
O905   H906    1.013   .     S
C907   O908    1.221   .     D
C907   O909    1.398   .     S
O909   H910    1.012   .     S
C911   C927    1.455   .     S
C911   O957    1.293   .     A
C911   O956    1.288   .     A
C912   C913    1.419   .     A
C912   C329    1.422   1_556 S
C912   C353    1.420   1_556 S
C913   C920    1.429   .     A
C913   C917    1.426   .     A
C914   C918    1.407   .     A
C915   C916    1.410   .     A
C915   C329    1.422   1_556 S
C915   C349    1.415   1_556 S
C916   C917    1.414   .     A
C916   C968    1.482   .     S
C917   C972    1.494   .     S
C918   H949    1.075   .     S
C918   C935    1.395   .     A
C919   C934    1.388   .     A
C919   C935    1.393   .     A
C919   H941    1.083   .     S
C920   C936    1.403   .     A
C920   C922    1.476   .     S
C921   H953    1.084   .     S
C921   C927    1.403   .     A
C921   C1118   1.382   .     S
C922   O958    1.297   .     A
C922   O959    1.295   .     A
C923   H942    1.083   .     S
C923   C924    1.396   .     A
C924   C932    1.446   .     S
C924   C925    1.397   .     A
C925   H943    1.085   .     S
C926   C964    1.482   .     S
C926   C927    1.419   .     A
C926   C1120   1.389   .     S
C928   H944    1.082   .     S
C928   N955    1.366   .     A
C928   C799    1.416   1_655 S
C929   H945    1.082   .     S
C929   N954    1.367   .     A
C930   N954    1.366   .     A
C930   H946    1.082   .     S
C931   N955    1.367   .     A
C931   H947    1.082   .     S
C931   C800    1.416   1_655 S
C932   O960    1.289   .     A
C932   O961    1.289   .     A
C933   O962    1.293   .     A
C933   O963    1.294   .     A
C933   C935    1.463   .     S
C936   C937    1.383   .     A
C936   H950    1.083   .     S
C937   C353    1.388   1_556 S
C937   H367    1.083   1_556 S
C938   H951    1.076   .     S
Cu939  O956    1.964   .     S
Cu939  Cu940   2.674   .     S
Cu939  O960    1.963   .     S
Cu939  N954    2.010   .     S
Cu939  O958    1.955   .     S
Cu939  O962    1.943   .     S
Cu940  O961    1.964   .     S
Cu940  O959    1.943   .     S
Cu940  O963    1.955   .     S
Cu940  O957    1.963   .     S
Cu940  N955    2.010   .     S
H948   C349    1.081   1_556 S
C964   O966    1.398   .     S
C964   O965    1.222   .     D
H967   O836    1.014   1_655 S
C968   O970    1.397   .     S
C968   O969    1.223   .     D
O970   H971    1.013   .     S
C972   O973    1.221   .     D
C972   O974    1.398   .     S
O974   H975    1.012   .     S
C976   C992    1.455   .     S
C976   O1022   1.293   .     A
C976   O1021   1.288   .     A
C977   C978    1.419   .     A
C977   C394    1.422   1_556 S
C977   C418    1.420   1_556 S
C978   C985    1.429   .     A
C978   C982    1.426   .     A
C979   C983    1.407   .     A
C980   C981    1.410   .     A
C980   C394    1.422   1_556 S
C980   C414    1.415   1_556 S
C981   C982    1.414   .     A
C981   C1033   1.482   .     S
C982   C1037   1.494   .     S
C983   H1014   1.075   .     S
C983   C1000   1.395   .     A
C984   C999    1.388   .     A
C984   C1000   1.393   .     A
C984   H1006   1.083   .     S
C985   C1001   1.403   .     A
C985   C987    1.476   .     S
C986   H1018   1.084   .     S
C986   C992    1.403   .     A
C986   C598    1.382   1_565 S
C987   O1023   1.297   .     A
C987   O1024   1.295   .     A
C988   H1007   1.083   .     S
C988   C989    1.396   .     A
C989   C997    1.446   .     S
C989   C990    1.397   .     A
C990   H1008   1.085   .     S
C991   C1029   1.482   .     S
C991   C992    1.419   .     A
C991   C600    1.389   1_565 S
C993   H1009   1.082   .     S
C993   N1020   1.366   .     A
C993   C1059   1.416   .     S
C994   H1010   1.082   .     S
C994   N1019   1.367   .     A
C994   C1123   1.416   1_455 S
C995   N1019   1.366   .     A
C995   H1011   1.082   .     S
C995   C1126   1.416   1_455 S
C996   N1020   1.367   .     A
C996   H1012   1.082   .     S
C996   C1060   1.416   .     S
C997   O1025   1.289   .     A
C997   O1026   1.289   .     A
C998   O1027   1.293   .     A
C998   O1028   1.294   .     A
C998   C1000   1.463   .     S
C1001  C1002   1.383   .     A
C1001  H1015   1.083   .     S
C1002  C418    1.388   1_556 S
C1002  H432    1.083   1_556 S
C1003  H1016   1.076   .     S
Cu1004 O1021   1.964   .     S
Cu1004 Cu1005  2.674   .     S
Cu1004 O1025   1.963   .     S
Cu1004 N1019   2.010   .     S
Cu1004 O1023   1.955   .     S
Cu1004 O1027   1.943   .     S
Cu1005 O1026   1.964   .     S
Cu1005 O1024   1.943   .     S
Cu1005 O1028   1.955   .     S
Cu1005 O1022   1.963   .     S
Cu1005 N1020   2.010   .     S
H1013  C414    1.081   1_556 S
C1029  O1031   1.398   .     S
C1029  O1030   1.222   .     D
O1031  H1162   1.014   1_455 S
H1032  O1096   1.014   .     S
C1033  O1035   1.397   .     S
C1033  O1034   1.223   .     D
O1035  H1036   1.013   .     S
C1037  O1038   1.221   .     D
C1037  O1039   1.398   .     S
O1039  H1040   1.012   .     S
C1041  C1057   1.455   .     S
C1041  O1087   1.293   .     A
C1041  O1086   1.288   .     A
C1042  C1043   1.419   .     A
C1042  C459    1.422   1_556 S
C1042  C483    1.420   1_556 S
C1043  C1050   1.429   .     A
C1043  C1047   1.426   .     A
C1044  C1048   1.407   .     A
C1045  C1046   1.410   .     A
C1045  C459    1.422   1_556 S
C1045  C479    1.415   1_556 S
C1046  C1047   1.414   .     A
C1046  C1098   1.482   .     S
C1047  C1102   1.494   .     S
C1048  H1079   1.075   .     S
C1048  C1065   1.395   .     A
C1049  C1064   1.388   .     A
C1049  C1065   1.393   .     A
C1049  H1071   1.083   .     S
C1050  C1066   1.403   .     A
C1050  C1052   1.476   .     S
C1051  H1083   1.084   .     S
C1051  C1057   1.403   .     A
C1051  C663    1.382   1_565 S
C1052  O1088   1.297   .     A
C1052  O1089   1.295   .     A
C1053  H1072   1.083   .     S
C1053  C1054   1.396   .     A
C1054  C1062   1.446   .     S
C1054  C1055   1.397   .     A
C1055  H1073   1.085   .     S
C1056  C1094   1.482   .     S
C1056  C1057   1.419   .     A
C1056  C665    1.389   1_565 S
C1058  H1074   1.082   .     S
C1058  N1085   1.366   .     A
C1058  C1124   1.416   .     S
C1059  H1075   1.082   .     S
C1059  N1084   1.367   .     A
C1060  N1084   1.366   .     A
C1060  H1076   1.082   .     S
C1061  N1085   1.367   .     A
C1061  H1077   1.082   .     S
C1061  C1125   1.416   .     S
C1062  O1090   1.289   .     A
C1062  O1091   1.289   .     A
C1063  O1092   1.293   .     A
C1063  O1093   1.294   .     A
C1063  C1065   1.463   .     S
C1066  C1067   1.383   .     A
C1066  H1080   1.083   .     S
C1067  C483    1.388   1_556 S
C1067  H497    1.083   1_556 S
C1068  H1081   1.076   .     S
Cu1069 O1086   1.964   .     S
Cu1069 Cu1070  2.674   .     S
Cu1069 O1090   1.963   .     S
Cu1069 N1084   2.010   .     S
Cu1069 O1088   1.955   .     S
Cu1069 O1092   1.943   .     S
Cu1070 O1091   1.964   .     S
Cu1070 O1089   1.943   .     S
Cu1070 O1093   1.955   .     S
Cu1070 O1087   1.963   .     S
Cu1070 N1085   2.010   .     S
H1078  C479    1.081   1_556 S
C1094  O1096   1.398   .     S
C1094  O1095   1.222   .     D
H1097  O1161   1.014   .     S
C1098  O1100   1.397   .     S
C1098  O1099   1.223   .     D
O1100  H1101   1.013   .     S
C1102  O1103   1.221   .     D
C1102  O1104   1.398   .     S
O1104  H1105   1.012   .     S
C1106  C1122   1.455   .     S
C1106  O1152   1.293   .     A
C1106  O1151   1.288   .     A
C1107  C1108   1.419   .     A
C1107  C524    1.422   1_556 S
C1107  C548    1.420   1_556 S
C1108  C1115   1.429   .     A
C1108  C1112   1.426   .     A
C1109  C1113   1.407   .     A
C1110  C1111   1.410   .     A
C1110  C524    1.422   1_556 S
C1110  C544    1.415   1_556 S
C1111  C1112   1.414   .     A
C1111  C1163   1.482   .     S
C1112  C1167   1.494   .     S
C1113  H1144   1.075   .     S
C1113  C1130   1.395   .     A
C1114  C1129   1.388   .     A
C1114  C1130   1.393   .     A
C1114  H1136   1.083   .     S
C1115  C1131   1.403   .     A
C1115  C1117   1.476   .     S
C1116  H1148   1.084   .     S
C1116  C1122   1.403   .     A
C1116  C728    1.382   1_565 S
C1117  O1153   1.297   .     A
C1117  O1154   1.295   .     A
C1118  H1137   1.083   .     S
C1118  C1119   1.396   .     A
C1119  C1127   1.446   .     S
C1119  C1120   1.397   .     A
C1120  H1138   1.085   .     S
C1121  C1159   1.482   .     S
C1121  C1122   1.419   .     A
C1121  C730    1.389   1_565 S
C1123  H1139   1.082   .     S
C1123  N1150   1.366   .     A
C1123  C994    1.416   1_655 S
C1124  H1140   1.082   .     S
C1124  N1149   1.367   .     A
C1125  N1149   1.366   .     A
C1125  H1141   1.082   .     S
C1126  N1150   1.367   .     A
C1126  H1142   1.082   .     S
C1126  C995    1.416   1_655 S
C1127  O1155   1.289   .     A
C1127  O1156   1.289   .     A
C1128  O1157   1.293   .     A
C1128  O1158   1.294   .     A
C1128  C1130   1.463   .     S
C1131  C1132   1.383   .     A
C1131  H1145   1.083   .     S
C1132  C548    1.388   1_556 S
C1132  H562    1.083   1_556 S
C1133  H1146   1.076   .     S
Cu1134 O1151   1.964   .     S
Cu1134 Cu1135  2.674   .     S
Cu1134 O1155   1.963   .     S
Cu1134 N1149   2.010   .     S
Cu1134 O1153   1.955   .     S
Cu1134 O1157   1.943   .     S
Cu1135 O1156   1.964   .     S
Cu1135 O1154   1.943   .     S
Cu1135 O1158   1.955   .     S
Cu1135 O1152   1.963   .     S
Cu1135 N1150   2.010   .     S
H1143  C544    1.081   1_556 S
C1159  O1161   1.398   .     S
C1159  O1160   1.222   .     D
H1162  O1031   1.014   1_655 S
C1163  O1165   1.397   .     S
C1163  O1164   1.223   .     D
O1165  H1166   1.013   .     S
C1167  O1168   1.221   .     D
C1167  O1169   1.398   .     S
O1169  H1170   1.012   .     S
