data_str_m3_o1_o5_pcu_sym.72
_audit_creation_date              2020-01-03
_audit_creation_method            'Materials Studio'
_symmetry_space_group_name_H-M    'P1'
_symmetry_Int_Tables_number       1
_symmetry_cell_setting            triclinic
loop_
_symmetry_equiv_pos_as_xyz
  x,y,z
_cell_length_a                    32.6069
_cell_length_b                    29.8715
_cell_length_c                    26.6901
_cell_angle_alpha                 90.0032
_cell_angle_beta                  92.8528
_cell_angle_gamma                 90.0121
loop_
_atom_site_label
_atom_site_type_symbol
_atom_site_fract_x
_atom_site_fract_y
_atom_site_fract_z
_atom_site_U_iso_or_equiv
_atom_site_adp_type
_atom_site_occupancy
C1     C     0.08665   0.16685   0.16624   0.00000  Uiso   1.00
C2     C     0.02089   0.20840   0.17328   0.00000  Uiso   1.00
C3     C     0.29098   0.16779   0.16725   0.00000  Uiso   1.00
C4     C     0.04235   0.16778   0.16597   0.00000  Uiso   1.00
C5     C     0.18337   0.02345   0.20669   0.00000  Uiso   1.00
C6     C     0.14898   0.30946   0.12724   0.00000  Uiso   1.00
C7     C     0.14999   0.02343   0.12664   0.00000  Uiso   1.00
C8     C     0.18435   0.30947   0.20610   0.00000  Uiso   1.00
C9     C     0.24668   0.16686   0.16706   0.00000  Uiso   1.00
C10    C     0.16652   0.16667   0.07300   0.00000  Uiso   1.00
C11    C     0.16682   0.16667   0.26033   0.00000  Uiso   1.00
C12    C     0.16661   0.16667   0.02183   0.00000  Uiso   1.00
C13    C     0.16672   0.16668   0.31151   0.00000  Uiso   1.00
C14    C     0.01977   0.12792   0.15892   0.00000  Uiso   1.00
C15    C     0.31248   0.20845   0.16028   0.00000  Uiso   1.00
C16    C     0.31354   0.12787   0.17389   0.00000  Uiso   1.00
H17    H     0.05436   0.08153   0.04387   0.00000  Uiso   1.00
H18    H     0.24230   0.26656   0.07131   0.00000  Uiso   1.00
H19    H     0.29661   0.12486   0.27864   0.00000  Uiso   1.00
H20    H     0.09109   0.26591   0.26280   0.00000  Uiso   1.00
H21    H     0.21215   0.07265   0.23576   0.00000  Uiso   1.00
H22    H     0.11657   0.26050   0.10117   0.00000  Uiso   1.00
H23    H     0.12123   0.07262   0.09752   0.00000  Uiso   1.00
H24    H     0.21672   0.26051   0.23220   0.00000  Uiso   1.00
N25    N     0.16667   0.28573   0.16667   0.00000  Uiso   1.00
N26    N     0.16667   0.04760   0.16667   0.00000  Uiso   1.00
O27    O     0.10559   0.20487   0.16666   0.00000  Uiso   1.00
O28    O     0.32949   0.05823   0.10102   0.00000  Uiso   1.00
O29    O     0.05704   0.10484   0.07023   0.00000  Uiso   1.00
O30    O     0.27040   0.28585   0.16344   0.00000  Uiso   1.00
O31    O     0.32496   0.28184   0.10396   0.00000  Uiso   1.00
O32    O     0.25748   0.23913   0.08179   0.00000  Uiso   1.00
O33    O     0.27134   0.05173   0.18359   0.00000  Uiso   1.00
O34    O     0.00356   0.05739   0.23131   0.00000  Uiso   1.00
O35    O     0.27637   0.10388   0.26271   0.00000  Uiso   1.00
O36    O     0.06308   0.28580   0.17074   0.00000  Uiso   1.00
O37    O     0.00852   0.28143   0.23021   0.00000  Uiso   1.00
O38    O     0.22774   0.12846   0.16667   0.00000  Uiso   1.00
O39    O     0.07594   0.23854   0.25200   0.00000  Uiso   1.00
O40    O     0.20153   0.04416   0.24781   0.00000  Uiso   1.00
O41    O     0.12821   0.28830   0.08792   0.00000  Uiso   1.00
O42    O     0.13189   0.04414   0.08549   0.00000  Uiso   1.00
O43    O     0.20510   0.28832   0.24543   0.00000  Uiso   1.00
O44    O     0.22774   0.20487   0.16667   0.00000  Uiso   1.00
O45    O     0.10559   0.12846   0.16666   0.00000  Uiso   1.00
O46    O     0.16667   0.20488   0.09511   0.00000  Uiso   1.00
O47    O     0.16666   0.12845   0.23822   0.00000  Uiso   1.00
O48    O     0.16666   0.20488   0.23822   0.00000  Uiso   1.00
O49    O     0.16667   0.12845   0.09511   0.00000  Uiso   1.00
O50    O     0.06179   0.05163   0.14874   0.00000  Uiso   1.00
S51    S     0.03387   0.08333   0.11976   0.00000  Uiso   1.00
S52    S     0.29144   0.25590   0.12753   0.00000  Uiso   1.00
S53    S     0.29947   0.08306   0.21281   0.00000  Uiso   1.00
S54    S     0.04200   0.25563   0.20641   0.00000  Uiso   1.00
Zn55   Zn    0.16667   0.21771   0.16667   0.00000  Uiso   1.00
Zn56   Zn    0.16667   0.11563   0.16667   0.00000  Uiso   1.00
C57    C     0.41999   0.16685   0.16624   0.00000  Uiso   1.00
C58    C     0.35423   0.20840   0.17328   0.00000  Uiso   1.00
C59    C     0.62432   0.16779   0.16725   0.00000  Uiso   1.00
C60    C     0.37569   0.16778   0.16597   0.00000  Uiso   1.00
C61    C     0.51670   0.02345   0.20669   0.00000  Uiso   1.00
C62    C     0.48232   0.30946   0.12724   0.00000  Uiso   1.00
C63    C     0.48332   0.02343   0.12664   0.00000  Uiso   1.00
C64    C     0.51768   0.30947   0.20610   0.00000  Uiso   1.00
C65    C     0.58002   0.16686   0.16706   0.00000  Uiso   1.00
C66    C     0.49985   0.16667   0.07300   0.00000  Uiso   1.00
C67    C     0.50015   0.16667   0.26033   0.00000  Uiso   1.00
C68    C     0.49994   0.16667   0.02183   0.00000  Uiso   1.00
C69    C     0.50006   0.16668   0.31151   0.00000  Uiso   1.00
C70    C     0.35310   0.12792   0.15892   0.00000  Uiso   1.00
C71    C     0.64582   0.20845   0.16028   0.00000  Uiso   1.00
C72    C     0.64687   0.12787   0.17389   0.00000  Uiso   1.00
H73    H     0.38770   0.08153   0.04387   0.00000  Uiso   1.00
H74    H     0.57563   0.26656   0.07131   0.00000  Uiso   1.00
H75    H     0.62995   0.12486   0.27864   0.00000  Uiso   1.00
H76    H     0.42442   0.26591   0.26280   0.00000  Uiso   1.00
H77    H     0.54548   0.07265   0.23576   0.00000  Uiso   1.00
H78    H     0.44991   0.26050   0.10117   0.00000  Uiso   1.00
H79    H     0.45456   0.07262   0.09752   0.00000  Uiso   1.00
H80    H     0.55005   0.26051   0.23220   0.00000  Uiso   1.00
N81    N     0.50000   0.28573   0.16667   0.00000  Uiso   1.00
N82    N     0.50000   0.04760   0.16667   0.00000  Uiso   1.00
O83    O     0.43892   0.20487   0.16666   0.00000  Uiso   1.00
O84    O     0.66283   0.05823   0.10102   0.00000  Uiso   1.00
O85    O     0.39038   0.10484   0.07023   0.00000  Uiso   1.00
O86    O     0.60373   0.28585   0.16344   0.00000  Uiso   1.00
O87    O     0.65829   0.28184   0.10396   0.00000  Uiso   1.00
O88    O     0.59082   0.23913   0.08179   0.00000  Uiso   1.00
O89    O     0.60468   0.05173   0.18359   0.00000  Uiso   1.00
O90    O     0.33689   0.05739   0.23131   0.00000  Uiso   1.00
O91    O     0.60970   0.10388   0.26271   0.00000  Uiso   1.00
O92    O     0.39641   0.28580   0.17074   0.00000  Uiso   1.00
O93    O     0.34185   0.28143   0.23021   0.00000  Uiso   1.00
O94    O     0.56108   0.12846   0.16667   0.00000  Uiso   1.00
O95    O     0.40927   0.23854   0.25200   0.00000  Uiso   1.00
O96    O     0.53486   0.04416   0.24781   0.00000  Uiso   1.00
O97    O     0.46155   0.28830   0.08792   0.00000  Uiso   1.00
O98    O     0.46523   0.04414   0.08549   0.00000  Uiso   1.00
O99    O     0.53843   0.28832   0.24543   0.00000  Uiso   1.00
O100   O     0.56108   0.20487   0.16667   0.00000  Uiso   1.00
O101   O     0.43892   0.12846   0.16666   0.00000  Uiso   1.00
O102   O     0.50000   0.20488   0.09511   0.00000  Uiso   1.00
O103   O     0.50000   0.12845   0.23822   0.00000  Uiso   1.00
O104   O     0.50000   0.20488   0.23822   0.00000  Uiso   1.00
O105   O     0.50000   0.12845   0.09511   0.00000  Uiso   1.00
O106   O     0.39513   0.05163   0.14874   0.00000  Uiso   1.00
S107   S     0.36720   0.08333   0.11976   0.00000  Uiso   1.00
S108   S     0.62477   0.25590   0.12753   0.00000  Uiso   1.00
S109   S     0.63281   0.08306   0.21281   0.00000  Uiso   1.00
S110   S     0.37533   0.25563   0.20641   0.00000  Uiso   1.00
Zn111  Zn    0.50000   0.21771   0.16667   0.00000  Uiso   1.00
Zn112  Zn    0.50000   0.11563   0.16667   0.00000  Uiso   1.00
C113   C     0.75332   0.16685   0.16624   0.00000  Uiso   1.00
C114   C     0.68756   0.20840   0.17328   0.00000  Uiso   1.00
C115   C     0.95765   0.16779   0.16725   0.00000  Uiso   1.00
C116   C     0.70902   0.16778   0.16597   0.00000  Uiso   1.00
C117   C     0.85003   0.02345   0.20669   0.00000  Uiso   1.00
C118   C     0.81565   0.30946   0.12724   0.00000  Uiso   1.00
C119   C     0.81665   0.02343   0.12664   0.00000  Uiso   1.00
C120   C     0.85102   0.30947   0.20610   0.00000  Uiso   1.00
C121   C     0.91335   0.16686   0.16706   0.00000  Uiso   1.00
C122   C     0.83318   0.16667   0.07300   0.00000  Uiso   1.00
C123   C     0.83348   0.16667   0.26033   0.00000  Uiso   1.00
C124   C     0.83328   0.16667   0.02183   0.00000  Uiso   1.00
C125   C     0.83339   0.16668   0.31151   0.00000  Uiso   1.00
C126   C     0.68644   0.12792   0.15892   0.00000  Uiso   1.00
C127   C     0.97915   0.20845   0.16028   0.00000  Uiso   1.00
C128   C     0.98020   0.12787   0.17389   0.00000  Uiso   1.00
H129   H     0.72103   0.08153   0.04387   0.00000  Uiso   1.00
H130   H     0.90897   0.26656   0.07131   0.00000  Uiso   1.00
H131   H     0.96328   0.12486   0.27864   0.00000  Uiso   1.00
H132   H     0.75775   0.26591   0.26280   0.00000  Uiso   1.00
H133   H     0.87882   0.07265   0.23576   0.00000  Uiso   1.00
H134   H     0.78324   0.26050   0.10117   0.00000  Uiso   1.00
H135   H     0.78790   0.07262   0.09752   0.00000  Uiso   1.00
H136   H     0.88339   0.26051   0.23220   0.00000  Uiso   1.00
N137   N     0.83333   0.28573   0.16667   0.00000  Uiso   1.00
N138   N     0.83333   0.04760   0.16667   0.00000  Uiso   1.00
O139   O     0.77226   0.20487   0.16666   0.00000  Uiso   1.00
O140   O     0.99616   0.05823   0.10102   0.00000  Uiso   1.00
O141   O     0.72371   0.10484   0.07023   0.00000  Uiso   1.00
O142   O     0.93707   0.28585   0.16344   0.00000  Uiso   1.00
O143   O     0.99162   0.28184   0.10396   0.00000  Uiso   1.00
O144   O     0.92415   0.23913   0.08179   0.00000  Uiso   1.00
O145   O     0.93801   0.05173   0.18359   0.00000  Uiso   1.00
O146   O     0.67023   0.05739   0.23131   0.00000  Uiso   1.00
O147   O     0.94303   0.10388   0.26271   0.00000  Uiso   1.00
O148   O     0.72975   0.28580   0.17074   0.00000  Uiso   1.00
O149   O     0.67519   0.28143   0.23021   0.00000  Uiso   1.00
O150   O     0.89441   0.12846   0.16667   0.00000  Uiso   1.00
O151   O     0.74261   0.23854   0.25200   0.00000  Uiso   1.00
O152   O     0.86820   0.04416   0.24781   0.00000  Uiso   1.00
O153   O     0.79488   0.28830   0.08792   0.00000  Uiso   1.00
O154   O     0.79856   0.04414   0.08549   0.00000  Uiso   1.00
O155   O     0.87176   0.28832   0.24543   0.00000  Uiso   1.00
O156   O     0.89441   0.20487   0.16667   0.00000  Uiso   1.00
O157   O     0.77226   0.12846   0.16666   0.00000  Uiso   1.00
O158   O     0.83334   0.20488   0.09511   0.00000  Uiso   1.00
O159   O     0.83333   0.12845   0.23822   0.00000  Uiso   1.00
O160   O     0.83333   0.20488   0.23822   0.00000  Uiso   1.00
O161   O     0.83334   0.12845   0.09511   0.00000  Uiso   1.00
O162   O     0.72846   0.05163   0.14874   0.00000  Uiso   1.00
S163   S     0.70054   0.08333   0.11976   0.00000  Uiso   1.00
S164   S     0.95811   0.25590   0.12753   0.00000  Uiso   1.00
S165   S     0.96614   0.08306   0.21281   0.00000  Uiso   1.00
S166   S     0.70867   0.25563   0.20641   0.00000  Uiso   1.00
Zn167  Zn    0.83333   0.21771   0.16667   0.00000  Uiso   1.00
Zn168  Zn    0.83333   0.11563   0.16667   0.00000  Uiso   1.00
C169   C     0.08665   0.50018   0.16624   0.00000  Uiso   1.00
C170   C     0.02089   0.54173   0.17328   0.00000  Uiso   1.00
C171   C     0.29098   0.50112   0.16725   0.00000  Uiso   1.00
C172   C     0.04235   0.50111   0.16597   0.00000  Uiso   1.00
C173   C     0.18337   0.35678   0.20669   0.00000  Uiso   1.00
C174   C     0.14898   0.64279   0.12724   0.00000  Uiso   1.00
C175   C     0.14999   0.35677   0.12664   0.00000  Uiso   1.00
C176   C     0.18435   0.64281   0.20610   0.00000  Uiso   1.00
C177   C     0.24668   0.50019   0.16706   0.00000  Uiso   1.00
C178   C     0.16652   0.50000   0.07300   0.00000  Uiso   1.00
C179   C     0.16682   0.50000   0.26033   0.00000  Uiso   1.00
C180   C     0.16661   0.50001   0.02183   0.00000  Uiso   1.00
C181   C     0.16672   0.50001   0.31151   0.00000  Uiso   1.00
C182   C     0.01977   0.46125   0.15892   0.00000  Uiso   1.00
C183   C     0.31248   0.54178   0.16028   0.00000  Uiso   1.00
C184   C     0.31354   0.46121   0.17389   0.00000  Uiso   1.00
H185   H     0.05436   0.41486   0.04387   0.00000  Uiso   1.00
H186   H     0.24230   0.59989   0.07131   0.00000  Uiso   1.00
H187   H     0.29661   0.45820   0.27864   0.00000  Uiso   1.00
H188   H     0.09109   0.59924   0.26280   0.00000  Uiso   1.00
H189   H     0.21215   0.40599   0.23576   0.00000  Uiso   1.00
H190   H     0.11657   0.59383   0.10117   0.00000  Uiso   1.00
H191   H     0.12123   0.40595   0.09752   0.00000  Uiso   1.00
H192   H     0.21672   0.59384   0.23220   0.00000  Uiso   1.00
N193   N     0.16667   0.61907   0.16667   0.00000  Uiso   1.00
N194   N     0.16667   0.38093   0.16667   0.00000  Uiso   1.00
O195   O     0.10559   0.53821   0.16666   0.00000  Uiso   1.00
O196   O     0.32949   0.39156   0.10102   0.00000  Uiso   1.00
O197   O     0.05704   0.43818   0.07023   0.00000  Uiso   1.00
O198   O     0.27040   0.61918   0.16344   0.00000  Uiso   1.00
O199   O     0.32496   0.61517   0.10396   0.00000  Uiso   1.00
O200   O     0.25748   0.57246   0.08179   0.00000  Uiso   1.00
O201   O     0.27134   0.38506   0.18359   0.00000  Uiso   1.00
O202   O     0.00356   0.39073   0.23131   0.00000  Uiso   1.00
O203   O     0.27637   0.43721   0.26271   0.00000  Uiso   1.00
O204   O     0.06308   0.61913   0.17074   0.00000  Uiso   1.00
O205   O     0.00852   0.61476   0.23021   0.00000  Uiso   1.00
O206   O     0.22774   0.46179   0.16667   0.00000  Uiso   1.00
O207   O     0.07594   0.57187   0.25200   0.00000  Uiso   1.00
O208   O     0.20153   0.37749   0.24781   0.00000  Uiso   1.00
O209   O     0.12821   0.62163   0.08792   0.00000  Uiso   1.00
O210   O     0.13189   0.37748   0.08549   0.00000  Uiso   1.00
O211   O     0.20510   0.62165   0.24543   0.00000  Uiso   1.00
O212   O     0.22774   0.53821   0.16667   0.00000  Uiso   1.00
O213   O     0.10559   0.46179   0.16666   0.00000  Uiso   1.00
O214   O     0.16667   0.53821   0.09511   0.00000  Uiso   1.00
O215   O     0.16666   0.46179   0.23822   0.00000  Uiso   1.00
O216   O     0.16666   0.53821   0.23822   0.00000  Uiso   1.00
O217   O     0.16667   0.46179   0.09511   0.00000  Uiso   1.00
O218   O     0.06179   0.38497   0.14874   0.00000  Uiso   1.00
S219   S     0.03387   0.41666   0.11976   0.00000  Uiso   1.00
S220   S     0.29144   0.58923   0.12753   0.00000  Uiso   1.00
S221   S     0.29947   0.41640   0.21281   0.00000  Uiso   1.00
S222   S     0.04200   0.58896   0.20641   0.00000  Uiso   1.00
Zn223  Zn    0.16667   0.55104   0.16667   0.00000  Uiso   1.00
Zn224  Zn    0.16667   0.44896   0.16667   0.00000  Uiso   1.00
C225   C     0.41999   0.50018   0.16624   0.00000  Uiso   1.00
C226   C     0.35423   0.54173   0.17328   0.00000  Uiso   1.00
C227   C     0.62432   0.50112   0.16725   0.00000  Uiso   1.00
C228   C     0.37569   0.50111   0.16597   0.00000  Uiso   1.00
C229   C     0.51670   0.35678   0.20669   0.00000  Uiso   1.00
C230   C     0.48232   0.64279   0.12724   0.00000  Uiso   1.00
C231   C     0.48332   0.35677   0.12664   0.00000  Uiso   1.00
C232   C     0.51768   0.64281   0.20610   0.00000  Uiso   1.00
C233   C     0.58002   0.50019   0.16706   0.00000  Uiso   1.00
C234   C     0.49985   0.50000   0.07300   0.00000  Uiso   1.00
C235   C     0.50015   0.50000   0.26033   0.00000  Uiso   1.00
C236   C     0.49994   0.50001   0.02183   0.00000  Uiso   1.00
C237   C     0.50006   0.50001   0.31151   0.00000  Uiso   1.00
C238   C     0.35310   0.46125   0.15892   0.00000  Uiso   1.00
C239   C     0.64582   0.54178   0.16028   0.00000  Uiso   1.00
C240   C     0.64687   0.46121   0.17389   0.00000  Uiso   1.00
H241   H     0.38770   0.41486   0.04387   0.00000  Uiso   1.00
H242   H     0.57563   0.59989   0.07131   0.00000  Uiso   1.00
H243   H     0.62995   0.45820   0.27864   0.00000  Uiso   1.00
H244   H     0.42442   0.59924   0.26280   0.00000  Uiso   1.00
H245   H     0.54548   0.40599   0.23576   0.00000  Uiso   1.00
H246   H     0.44991   0.59383   0.10117   0.00000  Uiso   1.00
H247   H     0.45456   0.40595   0.09752   0.00000  Uiso   1.00
H248   H     0.55005   0.59384   0.23220   0.00000  Uiso   1.00
N249   N     0.50000   0.61907   0.16667   0.00000  Uiso   1.00
N250   N     0.50000   0.38093   0.16667   0.00000  Uiso   1.00
O251   O     0.43892   0.53821   0.16666   0.00000  Uiso   1.00
O252   O     0.66283   0.39156   0.10102   0.00000  Uiso   1.00
O253   O     0.39038   0.43818   0.07023   0.00000  Uiso   1.00
O254   O     0.60373   0.61918   0.16344   0.00000  Uiso   1.00
O255   O     0.65829   0.61517   0.10396   0.00000  Uiso   1.00
O256   O     0.59082   0.57246   0.08179   0.00000  Uiso   1.00
O257   O     0.60468   0.38506   0.18359   0.00000  Uiso   1.00
O258   O     0.33689   0.39073   0.23131   0.00000  Uiso   1.00
O259   O     0.60970   0.43721   0.26271   0.00000  Uiso   1.00
O260   O     0.39641   0.61913   0.17074   0.00000  Uiso   1.00
O261   O     0.34185   0.61476   0.23021   0.00000  Uiso   1.00
O262   O     0.56108   0.46179   0.16667   0.00000  Uiso   1.00
O263   O     0.40927   0.57187   0.25200   0.00000  Uiso   1.00
O264   O     0.53486   0.37749   0.24781   0.00000  Uiso   1.00
O265   O     0.46155   0.62163   0.08792   0.00000  Uiso   1.00
O266   O     0.46523   0.37748   0.08549   0.00000  Uiso   1.00
O267   O     0.53843   0.62165   0.24543   0.00000  Uiso   1.00
O268   O     0.56108   0.53821   0.16667   0.00000  Uiso   1.00
O269   O     0.43892   0.46179   0.16666   0.00000  Uiso   1.00
O270   O     0.50000   0.53821   0.09511   0.00000  Uiso   1.00
O271   O     0.50000   0.46179   0.23822   0.00000  Uiso   1.00
O272   O     0.50000   0.53821   0.23822   0.00000  Uiso   1.00
O273   O     0.50000   0.46179   0.09511   0.00000  Uiso   1.00
O274   O     0.39513   0.38497   0.14874   0.00000  Uiso   1.00
S275   S     0.36720   0.41666   0.11976   0.00000  Uiso   1.00
S276   S     0.62477   0.58923   0.12753   0.00000  Uiso   1.00
S277   S     0.63281   0.41640   0.21281   0.00000  Uiso   1.00
S278   S     0.37533   0.58896   0.20641   0.00000  Uiso   1.00
Zn279  Zn    0.50000   0.55104   0.16667   0.00000  Uiso   1.00
Zn280  Zn    0.50000   0.44896   0.16667   0.00000  Uiso   1.00
C281   C     0.75332   0.50018   0.16624   0.00000  Uiso   1.00
C282   C     0.68756   0.54173   0.17328   0.00000  Uiso   1.00
C283   C     0.95765   0.50112   0.16725   0.00000  Uiso   1.00
C284   C     0.70902   0.50111   0.16597   0.00000  Uiso   1.00
C285   C     0.85003   0.35678   0.20669   0.00000  Uiso   1.00
C286   C     0.81565   0.64279   0.12724   0.00000  Uiso   1.00
C287   C     0.81665   0.35677   0.12664   0.00000  Uiso   1.00
C288   C     0.85102   0.64281   0.20610   0.00000  Uiso   1.00
C289   C     0.91335   0.50019   0.16706   0.00000  Uiso   1.00
C290   C     0.83318   0.50000   0.07300   0.00000  Uiso   1.00
C291   C     0.83348   0.50000   0.26033   0.00000  Uiso   1.00
C292   C     0.83328   0.50001   0.02183   0.00000  Uiso   1.00
C293   C     0.83339   0.50001   0.31151   0.00000  Uiso   1.00
C294   C     0.68644   0.46125   0.15892   0.00000  Uiso   1.00
C295   C     0.97915   0.54178   0.16028   0.00000  Uiso   1.00
C296   C     0.98020   0.46121   0.17389   0.00000  Uiso   1.00
H297   H     0.72103   0.41486   0.04387   0.00000  Uiso   1.00
H298   H     0.90897   0.59989   0.07131   0.00000  Uiso   1.00
H299   H     0.96328   0.45820   0.27864   0.00000  Uiso   1.00
H300   H     0.75775   0.59924   0.26280   0.00000  Uiso   1.00
H301   H     0.87882   0.40599   0.23576   0.00000  Uiso   1.00
H302   H     0.78324   0.59383   0.10117   0.00000  Uiso   1.00
H303   H     0.78790   0.40595   0.09752   0.00000  Uiso   1.00
H304   H     0.88339   0.59384   0.23220   0.00000  Uiso   1.00
N305   N     0.83333   0.61907   0.16667   0.00000  Uiso   1.00
N306   N     0.83333   0.38093   0.16667   0.00000  Uiso   1.00
O307   O     0.77226   0.53821   0.16666   0.00000  Uiso   1.00
O308   O     0.99616   0.39156   0.10102   0.00000  Uiso   1.00
O309   O     0.72371   0.43818   0.07023   0.00000  Uiso   1.00
O310   O     0.93707   0.61918   0.16344   0.00000  Uiso   1.00
O311   O     0.99162   0.61517   0.10396   0.00000  Uiso   1.00
O312   O     0.92415   0.57246   0.08179   0.00000  Uiso   1.00
O313   O     0.93801   0.38506   0.18359   0.00000  Uiso   1.00
O314   O     0.67023   0.39073   0.23131   0.00000  Uiso   1.00
O315   O     0.94303   0.43721   0.26271   0.00000  Uiso   1.00
O316   O     0.72975   0.61913   0.17074   0.00000  Uiso   1.00
O317   O     0.67519   0.61476   0.23021   0.00000  Uiso   1.00
O318   O     0.89441   0.46179   0.16667   0.00000  Uiso   1.00
O319   O     0.74261   0.57187   0.25200   0.00000  Uiso   1.00
O320   O     0.86820   0.37749   0.24781   0.00000  Uiso   1.00
O321   O     0.79488   0.62163   0.08792   0.00000  Uiso   1.00
O322   O     0.79856   0.37748   0.08549   0.00000  Uiso   1.00
O323   O     0.87176   0.62165   0.24543   0.00000  Uiso   1.00
O324   O     0.89441   0.53821   0.16667   0.00000  Uiso   1.00
O325   O     0.77226   0.46179   0.16666   0.00000  Uiso   1.00
O326   O     0.83334   0.53821   0.09511   0.00000  Uiso   1.00
O327   O     0.83333   0.46179   0.23822   0.00000  Uiso   1.00
O328   O     0.83333   0.53821   0.23822   0.00000  Uiso   1.00
O329   O     0.83334   0.46179   0.09511   0.00000  Uiso   1.00
O330   O     0.72846   0.38497   0.14874   0.00000  Uiso   1.00
S331   S     0.70054   0.41666   0.11976   0.00000  Uiso   1.00
S332   S     0.95811   0.58923   0.12753   0.00000  Uiso   1.00
S333   S     0.96614   0.41640   0.21281   0.00000  Uiso   1.00
S334   S     0.70867   0.58896   0.20641   0.00000  Uiso   1.00
Zn335  Zn    0.83333   0.55104   0.16667   0.00000  Uiso   1.00
Zn336  Zn    0.83333   0.44896   0.16667   0.00000  Uiso   1.00
C337   C     0.08665   0.83352   0.16624   0.00000  Uiso   1.00
C338   C     0.02089   0.87506   0.17328   0.00000  Uiso   1.00
C339   C     0.29098   0.83446   0.16725   0.00000  Uiso   1.00
C340   C     0.04235   0.83445   0.16597   0.00000  Uiso   1.00
C341   C     0.18337   0.69011   0.20669   0.00000  Uiso   1.00
C342   C     0.14898   0.97613   0.12724   0.00000  Uiso   1.00
C343   C     0.14999   0.69010   0.12664   0.00000  Uiso   1.00
C344   C     0.18435   0.97614   0.20610   0.00000  Uiso   1.00
C345   C     0.24668   0.83353   0.16706   0.00000  Uiso   1.00
C346   C     0.16652   0.83333   0.07300   0.00000  Uiso   1.00
C347   C     0.16682   0.83334   0.26033   0.00000  Uiso   1.00
C348   C     0.16661   0.83334   0.02183   0.00000  Uiso   1.00
C349   C     0.16672   0.83334   0.31151   0.00000  Uiso   1.00
C350   C     0.01977   0.79459   0.15892   0.00000  Uiso   1.00
C351   C     0.31248   0.87511   0.16028   0.00000  Uiso   1.00
C352   C     0.31354   0.79454   0.17389   0.00000  Uiso   1.00
H353   H     0.05436   0.74819   0.04387   0.00000  Uiso   1.00
H354   H     0.24230   0.93323   0.07131   0.00000  Uiso   1.00
H355   H     0.29661   0.79153   0.27864   0.00000  Uiso   1.00
H356   H     0.09109   0.93258   0.26280   0.00000  Uiso   1.00
H357   H     0.21215   0.73932   0.23576   0.00000  Uiso   1.00
H358   H     0.11657   0.92717   0.10117   0.00000  Uiso   1.00
H359   H     0.12123   0.73929   0.09752   0.00000  Uiso   1.00
H360   H     0.21672   0.92718   0.23220   0.00000  Uiso   1.00
N361   N     0.16667   0.95240   0.16667   0.00000  Uiso   1.00
N362   N     0.16667   0.71427   0.16667   0.00000  Uiso   1.00
O363   O     0.10559   0.87154   0.16666   0.00000  Uiso   1.00
O364   O     0.32949   0.72489   0.10102   0.00000  Uiso   1.00
O365   O     0.05704   0.77151   0.07023   0.00000  Uiso   1.00
O366   O     0.27040   0.95251   0.16344   0.00000  Uiso   1.00
O367   O     0.32496   0.94850   0.10396   0.00000  Uiso   1.00
O368   O     0.25748   0.90579   0.08179   0.00000  Uiso   1.00
O369   O     0.27134   0.71840   0.18359   0.00000  Uiso   1.00
O370   O     0.00356   0.72406   0.23131   0.00000  Uiso   1.00
O371   O     0.27637   0.77055   0.26271   0.00000  Uiso   1.00
O372   O     0.06308   0.95246   0.17074   0.00000  Uiso   1.00
O373   O     0.00852   0.94810   0.23021   0.00000  Uiso   1.00
O374   O     0.22774   0.79513   0.16667   0.00000  Uiso   1.00
O375   O     0.07594   0.90520   0.25200   0.00000  Uiso   1.00
O376   O     0.20153   0.71083   0.24781   0.00000  Uiso   1.00
O377   O     0.12821   0.95497   0.08792   0.00000  Uiso   1.00
O378   O     0.13189   0.71081   0.08549   0.00000  Uiso   1.00
O379   O     0.20510   0.95499   0.24543   0.00000  Uiso   1.00
O380   O     0.22774   0.87154   0.16667   0.00000  Uiso   1.00
O381   O     0.10559   0.79513   0.16666   0.00000  Uiso   1.00
O382   O     0.16667   0.87155   0.09511   0.00000  Uiso   1.00
O383   O     0.16666   0.79512   0.23822   0.00000  Uiso   1.00
O384   O     0.16666   0.87155   0.23822   0.00000  Uiso   1.00
O385   O     0.16667   0.79512   0.09511   0.00000  Uiso   1.00
O386   O     0.06179   0.71830   0.14874   0.00000  Uiso   1.00
S387   S     0.03387   0.75000   0.11976   0.00000  Uiso   1.00
S388   S     0.29144   0.92257   0.12753   0.00000  Uiso   1.00
S389   S     0.29947   0.74973   0.21281   0.00000  Uiso   1.00
S390   S     0.04200   0.92230   0.20641   0.00000  Uiso   1.00
Zn391  Zn    0.16667   0.88437   0.16667   0.00000  Uiso   1.00
Zn392  Zn    0.16667   0.78229   0.16667   0.00000  Uiso   1.00
C393   C     0.41999   0.83352   0.16624   0.00000  Uiso   1.00
C394   C     0.35423   0.87506   0.17328   0.00000  Uiso   1.00
C395   C     0.62432   0.83446   0.16725   0.00000  Uiso   1.00
C396   C     0.37569   0.83445   0.16597   0.00000  Uiso   1.00
C397   C     0.51670   0.69011   0.20669   0.00000  Uiso   1.00
C398   C     0.48232   0.97613   0.12724   0.00000  Uiso   1.00
C399   C     0.48332   0.69010   0.12664   0.00000  Uiso   1.00
C400   C     0.51768   0.97614   0.20610   0.00000  Uiso   1.00
C401   C     0.58002   0.83353   0.16706   0.00000  Uiso   1.00
C402   C     0.49985   0.83333   0.07300   0.00000  Uiso   1.00
C403   C     0.50015   0.83334   0.26033   0.00000  Uiso   1.00
C404   C     0.49994   0.83334   0.02183   0.00000  Uiso   1.00
C405   C     0.50006   0.83334   0.31151   0.00000  Uiso   1.00
C406   C     0.35310   0.79459   0.15892   0.00000  Uiso   1.00
C407   C     0.64582   0.87511   0.16028   0.00000  Uiso   1.00
C408   C     0.64687   0.79454   0.17389   0.00000  Uiso   1.00
H409   H     0.38770   0.74819   0.04387   0.00000  Uiso   1.00
H410   H     0.57563   0.93323   0.07131   0.00000  Uiso   1.00
H411   H     0.62995   0.79153   0.27864   0.00000  Uiso   1.00
H412   H     0.42442   0.93258   0.26280   0.00000  Uiso   1.00
H413   H     0.54548   0.73932   0.23576   0.00000  Uiso   1.00
H414   H     0.44991   0.92717   0.10117   0.00000  Uiso   1.00
H415   H     0.45456   0.73929   0.09752   0.00000  Uiso   1.00
H416   H     0.55005   0.92718   0.23220   0.00000  Uiso   1.00
N417   N     0.50000   0.95240   0.16667   0.00000  Uiso   1.00
N418   N     0.50000   0.71427   0.16667   0.00000  Uiso   1.00
O419   O     0.43892   0.87154   0.16666   0.00000  Uiso   1.00
O420   O     0.66283   0.72489   0.10102   0.00000  Uiso   1.00
O421   O     0.39038   0.77151   0.07023   0.00000  Uiso   1.00
O422   O     0.60373   0.95251   0.16344   0.00000  Uiso   1.00
O423   O     0.65829   0.94850   0.10396   0.00000  Uiso   1.00
O424   O     0.59082   0.90579   0.08179   0.00000  Uiso   1.00
O425   O     0.60468   0.71840   0.18359   0.00000  Uiso   1.00
O426   O     0.33689   0.72406   0.23131   0.00000  Uiso   1.00
O427   O     0.60970   0.77055   0.26271   0.00000  Uiso   1.00
O428   O     0.39641   0.95246   0.17074   0.00000  Uiso   1.00
O429   O     0.34185   0.94810   0.23021   0.00000  Uiso   1.00
O430   O     0.56108   0.79513   0.16667   0.00000  Uiso   1.00
O431   O     0.40927   0.90520   0.25200   0.00000  Uiso   1.00
O432   O     0.53486   0.71083   0.24781   0.00000  Uiso   1.00
O433   O     0.46155   0.95497   0.08792   0.00000  Uiso   1.00
O434   O     0.46523   0.71081   0.08549   0.00000  Uiso   1.00
O435   O     0.53843   0.95499   0.24543   0.00000  Uiso   1.00
O436   O     0.56108   0.87154   0.16667   0.00000  Uiso   1.00
O437   O     0.43892   0.79513   0.16666   0.00000  Uiso   1.00
O438   O     0.50000   0.87155   0.09511   0.00000  Uiso   1.00
O439   O     0.50000   0.79512   0.23822   0.00000  Uiso   1.00
O440   O     0.50000   0.87155   0.23822   0.00000  Uiso   1.00
O441   O     0.50000   0.79512   0.09511   0.00000  Uiso   1.00
O442   O     0.39513   0.71830   0.14874   0.00000  Uiso   1.00
S443   S     0.36720   0.75000   0.11976   0.00000  Uiso   1.00
S444   S     0.62477   0.92257   0.12753   0.00000  Uiso   1.00
S445   S     0.63281   0.74973   0.21281   0.00000  Uiso   1.00
S446   S     0.37533   0.92230   0.20641   0.00000  Uiso   1.00
Zn447  Zn    0.50000   0.88437   0.16667   0.00000  Uiso   1.00
Zn448  Zn    0.50000   0.78229   0.16667   0.00000  Uiso   1.00
C449   C     0.75332   0.83352   0.16624   0.00000  Uiso   1.00
C450   C     0.68756   0.87506   0.17328   0.00000  Uiso   1.00
C451   C     0.95765   0.83446   0.16725   0.00000  Uiso   1.00
C452   C     0.70902   0.83445   0.16597   0.00000  Uiso   1.00
C453   C     0.85003   0.69011   0.20669   0.00000  Uiso   1.00
C454   C     0.81565   0.97613   0.12724   0.00000  Uiso   1.00
C455   C     0.81665   0.69010   0.12664   0.00000  Uiso   1.00
C456   C     0.85102   0.97614   0.20610   0.00000  Uiso   1.00
C457   C     0.91335   0.83353   0.16706   0.00000  Uiso   1.00
C458   C     0.83318   0.83333   0.07300   0.00000  Uiso   1.00
C459   C     0.83348   0.83334   0.26033   0.00000  Uiso   1.00
C460   C     0.83328   0.83334   0.02183   0.00000  Uiso   1.00
C461   C     0.83339   0.83334   0.31151   0.00000  Uiso   1.00
C462   C     0.68644   0.79459   0.15892   0.00000  Uiso   1.00
C463   C     0.97915   0.87511   0.16028   0.00000  Uiso   1.00
C464   C     0.98020   0.79454   0.17389   0.00000  Uiso   1.00
H465   H     0.72103   0.74819   0.04387   0.00000  Uiso   1.00
H466   H     0.90897   0.93323   0.07131   0.00000  Uiso   1.00
H467   H     0.96328   0.79153   0.27864   0.00000  Uiso   1.00
H468   H     0.75775   0.93258   0.26280   0.00000  Uiso   1.00
H469   H     0.87882   0.73932   0.23576   0.00000  Uiso   1.00
H470   H     0.78324   0.92717   0.10117   0.00000  Uiso   1.00
H471   H     0.78790   0.73929   0.09752   0.00000  Uiso   1.00
H472   H     0.88339   0.92718   0.23220   0.00000  Uiso   1.00
N473   N     0.83333   0.95240   0.16667   0.00000  Uiso   1.00
N474   N     0.83333   0.71427   0.16667   0.00000  Uiso   1.00
O475   O     0.77226   0.87154   0.16666   0.00000  Uiso   1.00
O476   O     0.99616   0.72489   0.10102   0.00000  Uiso   1.00
O477   O     0.72371   0.77151   0.07023   0.00000  Uiso   1.00
O478   O     0.93707   0.95251   0.16344   0.00000  Uiso   1.00
O479   O     0.99162   0.94850   0.10396   0.00000  Uiso   1.00
O480   O     0.92415   0.90579   0.08179   0.00000  Uiso   1.00
O481   O     0.93801   0.71840   0.18359   0.00000  Uiso   1.00
O482   O     0.67023   0.72406   0.23131   0.00000  Uiso   1.00
O483   O     0.94303   0.77055   0.26271   0.00000  Uiso   1.00
O484   O     0.72975   0.95246   0.17074   0.00000  Uiso   1.00
O485   O     0.67519   0.94810   0.23021   0.00000  Uiso   1.00
O486   O     0.89441   0.79513   0.16667   0.00000  Uiso   1.00
O487   O     0.74261   0.90520   0.25200   0.00000  Uiso   1.00
O488   O     0.86820   0.71083   0.24781   0.00000  Uiso   1.00
O489   O     0.79488   0.95497   0.08792   0.00000  Uiso   1.00
O490   O     0.79856   0.71081   0.08549   0.00000  Uiso   1.00
O491   O     0.87176   0.95499   0.24543   0.00000  Uiso   1.00
O492   O     0.89441   0.87154   0.16667   0.00000  Uiso   1.00
O493   O     0.77226   0.79513   0.16666   0.00000  Uiso   1.00
O494   O     0.83334   0.87155   0.09511   0.00000  Uiso   1.00
O495   O     0.83333   0.79512   0.23822   0.00000  Uiso   1.00
O496   O     0.83333   0.87155   0.23822   0.00000  Uiso   1.00
O497   O     0.83334   0.79512   0.09511   0.00000  Uiso   1.00
O498   O     0.72846   0.71830   0.14874   0.00000  Uiso   1.00
S499   S     0.70054   0.75000   0.11976   0.00000  Uiso   1.00
S500   S     0.95811   0.92257   0.12753   0.00000  Uiso   1.00
S501   S     0.96614   0.74973   0.21281   0.00000  Uiso   1.00
S502   S     0.70867   0.92230   0.20641   0.00000  Uiso   1.00
Zn503  Zn    0.83333   0.88437   0.16667   0.00000  Uiso   1.00
Zn504  Zn    0.83333   0.78229   0.16667   0.00000  Uiso   1.00
C505   C     0.08665   0.16685   0.49958   0.00000  Uiso   1.00
C506   C     0.02089   0.20840   0.50661   0.00000  Uiso   1.00
C507   C     0.29098   0.16779   0.50059   0.00000  Uiso   1.00
C508   C     0.04235   0.16778   0.49930   0.00000  Uiso   1.00
C509   C     0.18337   0.02345   0.54002   0.00000  Uiso   1.00
C510   C     0.14898   0.30946   0.46057   0.00000  Uiso   1.00
C511   C     0.14999   0.02343   0.45997   0.00000  Uiso   1.00
C512   C     0.18435   0.30947   0.53943   0.00000  Uiso   1.00
C513   C     0.24668   0.16686   0.50040   0.00000  Uiso   1.00
C514   C     0.16652   0.16667   0.40633   0.00000  Uiso   1.00
C515   C     0.16682   0.16667   0.59367   0.00000  Uiso   1.00
C516   C     0.16661   0.16667   0.35516   0.00000  Uiso   1.00
C517   C     0.16672   0.16668   0.64484   0.00000  Uiso   1.00
C518   C     0.01977   0.12792   0.49225   0.00000  Uiso   1.00
C519   C     0.31248   0.20845   0.49361   0.00000  Uiso   1.00
C520   C     0.31354   0.12787   0.50722   0.00000  Uiso   1.00
H521   H     0.05436   0.08153   0.37721   0.00000  Uiso   1.00
H522   H     0.24230   0.26656   0.40464   0.00000  Uiso   1.00
H523   H     0.29661   0.12486   0.61197   0.00000  Uiso   1.00
H524   H     0.09109   0.26591   0.59613   0.00000  Uiso   1.00
H525   H     0.21215   0.07265   0.56910   0.00000  Uiso   1.00
H526   H     0.11657   0.26050   0.43450   0.00000  Uiso   1.00
H527   H     0.12123   0.07262   0.43086   0.00000  Uiso   1.00
H528   H     0.21672   0.26051   0.56553   0.00000  Uiso   1.00
N529   N     0.16667   0.28573   0.50000   0.00000  Uiso   1.00
N530   N     0.16667   0.04760   0.50000   0.00000  Uiso   1.00
O531   O     0.10559   0.20487   0.50000   0.00000  Uiso   1.00
O532   O     0.32949   0.05823   0.43436   0.00000  Uiso   1.00
O533   O     0.05704   0.10484   0.40357   0.00000  Uiso   1.00
O534   O     0.27040   0.28585   0.49678   0.00000  Uiso   1.00
O535   O     0.32496   0.28184   0.43729   0.00000  Uiso   1.00
O536   O     0.25748   0.23913   0.41512   0.00000  Uiso   1.00
O537   O     0.27134   0.05173   0.51693   0.00000  Uiso   1.00
O538   O     0.00356   0.05739   0.56464   0.00000  Uiso   1.00
O539   O     0.27637   0.10388   0.59604   0.00000  Uiso   1.00
O540   O     0.06308   0.28580   0.50408   0.00000  Uiso   1.00
O541   O     0.00852   0.28143   0.56354   0.00000  Uiso   1.00
O542   O     0.22774   0.12846   0.50000   0.00000  Uiso   1.00
O543   O     0.07594   0.23854   0.58533   0.00000  Uiso   1.00
O544   O     0.20153   0.04416   0.58114   0.00000  Uiso   1.00
O545   O     0.12821   0.28830   0.42126   0.00000  Uiso   1.00
O546   O     0.13189   0.04414   0.41882   0.00000  Uiso   1.00
O547   O     0.20510   0.28832   0.57876   0.00000  Uiso   1.00
O548   O     0.22774   0.20487   0.50000   0.00000  Uiso   1.00
O549   O     0.10559   0.12846   0.50000   0.00000  Uiso   1.00
O550   O     0.16667   0.20488   0.42845   0.00000  Uiso   1.00
O551   O     0.16666   0.12845   0.57155   0.00000  Uiso   1.00
O552   O     0.16666   0.20488   0.57155   0.00000  Uiso   1.00
O553   O     0.16667   0.12845   0.42845   0.00000  Uiso   1.00
O554   O     0.06179   0.05163   0.48207   0.00000  Uiso   1.00
S555   S     0.03387   0.08333   0.45309   0.00000  Uiso   1.00
S556   S     0.29144   0.25590   0.46087   0.00000  Uiso   1.00
S557   S     0.29947   0.08306   0.54615   0.00000  Uiso   1.00
S558   S     0.04200   0.25563   0.53974   0.00000  Uiso   1.00
Zn559  Zn    0.16667   0.21771   0.50000   0.00000  Uiso   1.00
Zn560  Zn    0.16667   0.11563   0.50000   0.00000  Uiso   1.00
C561   C     0.41999   0.16685   0.49958   0.00000  Uiso   1.00
C562   C     0.35423   0.20840   0.50661   0.00000  Uiso   1.00
C563   C     0.62432   0.16779   0.50059   0.00000  Uiso   1.00
C564   C     0.37569   0.16778   0.49930   0.00000  Uiso   1.00
C565   C     0.51670   0.02345   0.54002   0.00000  Uiso   1.00
C566   C     0.48232   0.30946   0.46057   0.00000  Uiso   1.00
C567   C     0.48332   0.02343   0.45997   0.00000  Uiso   1.00
C568   C     0.51768   0.30947   0.53943   0.00000  Uiso   1.00
C569   C     0.58002   0.16686   0.50040   0.00000  Uiso   1.00
C570   C     0.49985   0.16667   0.40633   0.00000  Uiso   1.00
C571   C     0.50015   0.16667   0.59367   0.00000  Uiso   1.00
C572   C     0.49994   0.16667   0.35516   0.00000  Uiso   1.00
C573   C     0.50006   0.16668   0.64484   0.00000  Uiso   1.00
C574   C     0.35310   0.12792   0.49225   0.00000  Uiso   1.00
C575   C     0.64582   0.20845   0.49361   0.00000  Uiso   1.00
C576   C     0.64687   0.12787   0.50722   0.00000  Uiso   1.00
H577   H     0.38770   0.08153   0.37721   0.00000  Uiso   1.00
H578   H     0.57563   0.26656   0.40464   0.00000  Uiso   1.00
H579   H     0.62995   0.12486   0.61197   0.00000  Uiso   1.00
H580   H     0.42442   0.26591   0.59613   0.00000  Uiso   1.00
H581   H     0.54548   0.07265   0.56910   0.00000  Uiso   1.00
H582   H     0.44991   0.26050   0.43450   0.00000  Uiso   1.00
H583   H     0.45456   0.07262   0.43086   0.00000  Uiso   1.00
H584   H     0.55005   0.26051   0.56553   0.00000  Uiso   1.00
N585   N     0.50000   0.28573   0.50000   0.00000  Uiso   1.00
N586   N     0.50000   0.04760   0.50000   0.00000  Uiso   1.00
O587   O     0.43892   0.20487   0.50000   0.00000  Uiso   1.00
O588   O     0.66283   0.05823   0.43436   0.00000  Uiso   1.00
O589   O     0.39038   0.10484   0.40357   0.00000  Uiso   1.00
O590   O     0.60373   0.28585   0.49678   0.00000  Uiso   1.00
O591   O     0.65829   0.28184   0.43729   0.00000  Uiso   1.00
O592   O     0.59082   0.23913   0.41512   0.00000  Uiso   1.00
O593   O     0.60468   0.05173   0.51693   0.00000  Uiso   1.00
O594   O     0.33689   0.05739   0.56464   0.00000  Uiso   1.00
O595   O     0.60970   0.10388   0.59604   0.00000  Uiso   1.00
O596   O     0.39641   0.28580   0.50408   0.00000  Uiso   1.00
O597   O     0.34185   0.28143   0.56354   0.00000  Uiso   1.00
O598   O     0.56108   0.12846   0.50000   0.00000  Uiso   1.00
O599   O     0.40927   0.23854   0.58533   0.00000  Uiso   1.00
O600   O     0.53486   0.04416   0.58114   0.00000  Uiso   1.00
O601   O     0.46155   0.28830   0.42126   0.00000  Uiso   1.00
O602   O     0.46523   0.04414   0.41882   0.00000  Uiso   1.00
O603   O     0.53843   0.28832   0.57876   0.00000  Uiso   1.00
O604   O     0.56108   0.20487   0.50000   0.00000  Uiso   1.00
O605   O     0.43892   0.12846   0.50000   0.00000  Uiso   1.00
O606   O     0.50000   0.20488   0.42845   0.00000  Uiso   1.00
O607   O     0.50000   0.12845   0.57155   0.00000  Uiso   1.00
O608   O     0.50000   0.20488   0.57155   0.00000  Uiso   1.00
O609   O     0.50000   0.12845   0.42845   0.00000  Uiso   1.00
O610   O     0.39513   0.05163   0.48207   0.00000  Uiso   1.00
S611   S     0.36720   0.08333   0.45309   0.00000  Uiso   1.00
S612   S     0.62477   0.25590   0.46087   0.00000  Uiso   1.00
S613   S     0.63281   0.08306   0.54615   0.00000  Uiso   1.00
S614   S     0.37533   0.25563   0.53974   0.00000  Uiso   1.00
Zn615  Zn    0.50000   0.21771   0.50000   0.00000  Uiso   1.00
Zn616  Zn    0.50000   0.11563   0.50000   0.00000  Uiso   1.00
C617   C     0.75332   0.16685   0.49958   0.00000  Uiso   1.00
C618   C     0.68756   0.20840   0.50661   0.00000  Uiso   1.00
C619   C     0.95765   0.16779   0.50059   0.00000  Uiso   1.00
C620   C     0.70902   0.16778   0.49930   0.00000  Uiso   1.00
C621   C     0.85003   0.02345   0.54002   0.00000  Uiso   1.00
C622   C     0.81565   0.30946   0.46057   0.00000  Uiso   1.00
C623   C     0.81665   0.02343   0.45997   0.00000  Uiso   1.00
C624   C     0.85102   0.30947   0.53943   0.00000  Uiso   1.00
C625   C     0.91335   0.16686   0.50040   0.00000  Uiso   1.00
C626   C     0.83318   0.16667   0.40633   0.00000  Uiso   1.00
C627   C     0.83348   0.16667   0.59367   0.00000  Uiso   1.00
C628   C     0.83328   0.16667   0.35516   0.00000  Uiso   1.00
C629   C     0.83339   0.16668   0.64484   0.00000  Uiso   1.00
C630   C     0.68644   0.12792   0.49225   0.00000  Uiso   1.00
C631   C     0.97915   0.20845   0.49361   0.00000  Uiso   1.00
C632   C     0.98020   0.12787   0.50722   0.00000  Uiso   1.00
H633   H     0.72103   0.08153   0.37721   0.00000  Uiso   1.00
H634   H     0.90897   0.26656   0.40464   0.00000  Uiso   1.00
H635   H     0.96328   0.12486   0.61197   0.00000  Uiso   1.00
H636   H     0.75775   0.26591   0.59613   0.00000  Uiso   1.00
H637   H     0.87882   0.07265   0.56910   0.00000  Uiso   1.00
H638   H     0.78324   0.26050   0.43450   0.00000  Uiso   1.00
H639   H     0.78790   0.07262   0.43086   0.00000  Uiso   1.00
H640   H     0.88339   0.26051   0.56553   0.00000  Uiso   1.00
N641   N     0.83333   0.28573   0.50000   0.00000  Uiso   1.00
N642   N     0.83333   0.04760   0.50000   0.00000  Uiso   1.00
O643   O     0.77226   0.20487   0.50000   0.00000  Uiso   1.00
O644   O     0.99616   0.05823   0.43436   0.00000  Uiso   1.00
O645   O     0.72371   0.10484   0.40357   0.00000  Uiso   1.00
O646   O     0.93707   0.28585   0.49678   0.00000  Uiso   1.00
O647   O     0.99162   0.28184   0.43729   0.00000  Uiso   1.00
O648   O     0.92415   0.23913   0.41512   0.00000  Uiso   1.00
O649   O     0.93801   0.05173   0.51693   0.00000  Uiso   1.00
O650   O     0.67023   0.05739   0.56464   0.00000  Uiso   1.00
O651   O     0.94303   0.10388   0.59604   0.00000  Uiso   1.00
O652   O     0.72975   0.28580   0.50408   0.00000  Uiso   1.00
O653   O     0.67519   0.28143   0.56354   0.00000  Uiso   1.00
O654   O     0.89441   0.12846   0.50000   0.00000  Uiso   1.00
O655   O     0.74261   0.23854   0.58533   0.00000  Uiso   1.00
O656   O     0.86820   0.04416   0.58114   0.00000  Uiso   1.00
O657   O     0.79488   0.28830   0.42126   0.00000  Uiso   1.00
O658   O     0.79856   0.04414   0.41882   0.00000  Uiso   1.00
O659   O     0.87176   0.28832   0.57876   0.00000  Uiso   1.00
O660   O     0.89441   0.20487   0.50000   0.00000  Uiso   1.00
O661   O     0.77226   0.12846   0.50000   0.00000  Uiso   1.00
O662   O     0.83334   0.20488   0.42845   0.00000  Uiso   1.00
O663   O     0.83333   0.12845   0.57155   0.00000  Uiso   1.00
O664   O     0.83333   0.20488   0.57155   0.00000  Uiso   1.00
O665   O     0.83334   0.12845   0.42845   0.00000  Uiso   1.00
O666   O     0.72846   0.05163   0.48207   0.00000  Uiso   1.00
S667   S     0.70054   0.08333   0.45309   0.00000  Uiso   1.00
S668   S     0.95811   0.25590   0.46087   0.00000  Uiso   1.00
S669   S     0.96614   0.08306   0.54615   0.00000  Uiso   1.00
S670   S     0.70867   0.25563   0.53974   0.00000  Uiso   1.00
Zn671  Zn    0.83333   0.21771   0.50000   0.00000  Uiso   1.00
Zn672  Zn    0.83333   0.11563   0.50000   0.00000  Uiso   1.00
C673   C     0.08665   0.50018   0.49958   0.00000  Uiso   1.00
C674   C     0.02089   0.54173   0.50661   0.00000  Uiso   1.00
C675   C     0.29098   0.50112   0.50059   0.00000  Uiso   1.00
C676   C     0.04235   0.50111   0.49930   0.00000  Uiso   1.00
C677   C     0.18337   0.35678   0.54002   0.00000  Uiso   1.00
C678   C     0.14898   0.64279   0.46057   0.00000  Uiso   1.00
C679   C     0.14999   0.35677   0.45997   0.00000  Uiso   1.00
C680   C     0.18435   0.64281   0.53943   0.00000  Uiso   1.00
C681   C     0.24668   0.50019   0.50040   0.00000  Uiso   1.00
C682   C     0.16652   0.50000   0.40633   0.00000  Uiso   1.00
C683   C     0.16682   0.50000   0.59367   0.00000  Uiso   1.00
C684   C     0.16661   0.50001   0.35516   0.00000  Uiso   1.00
C685   C     0.16672   0.50001   0.64484   0.00000  Uiso   1.00
C686   C     0.01977   0.46125   0.49225   0.00000  Uiso   1.00
C687   C     0.31248   0.54178   0.49361   0.00000  Uiso   1.00
C688   C     0.31354   0.46121   0.50722   0.00000  Uiso   1.00
H689   H     0.05436   0.41486   0.37721   0.00000  Uiso   1.00
H690   H     0.24230   0.59989   0.40464   0.00000  Uiso   1.00
H691   H     0.29661   0.45820   0.61197   0.00000  Uiso   1.00
H692   H     0.09109   0.59924   0.59613   0.00000  Uiso   1.00
H693   H     0.21215   0.40599   0.56910   0.00000  Uiso   1.00
H694   H     0.11657   0.59383   0.43450   0.00000  Uiso   1.00
H695   H     0.12123   0.40595   0.43086   0.00000  Uiso   1.00
H696   H     0.21672   0.59384   0.56553   0.00000  Uiso   1.00
N697   N     0.16667   0.61907   0.50000   0.00000  Uiso   1.00
N698   N     0.16667   0.38093   0.50000   0.00000  Uiso   1.00
O699   O     0.10559   0.53821   0.50000   0.00000  Uiso   1.00
O700   O     0.32949   0.39156   0.43436   0.00000  Uiso   1.00
O701   O     0.05704   0.43818   0.40357   0.00000  Uiso   1.00
O702   O     0.27040   0.61918   0.49678   0.00000  Uiso   1.00
O703   O     0.32496   0.61517   0.43729   0.00000  Uiso   1.00
O704   O     0.25748   0.57246   0.41512   0.00000  Uiso   1.00
O705   O     0.27134   0.38506   0.51693   0.00000  Uiso   1.00
O706   O     0.00356   0.39073   0.56464   0.00000  Uiso   1.00
O707   O     0.27637   0.43721   0.59604   0.00000  Uiso   1.00
O708   O     0.06308   0.61913   0.50408   0.00000  Uiso   1.00
O709   O     0.00852   0.61476   0.56354   0.00000  Uiso   1.00
O710   O     0.22774   0.46179   0.50000   0.00000  Uiso   1.00
O711   O     0.07594   0.57187   0.58533   0.00000  Uiso   1.00
O712   O     0.20153   0.37749   0.58114   0.00000  Uiso   1.00
O713   O     0.12821   0.62163   0.42126   0.00000  Uiso   1.00
O714   O     0.13189   0.37748   0.41882   0.00000  Uiso   1.00
O715   O     0.20510   0.62165   0.57876   0.00000  Uiso   1.00
O716   O     0.22774   0.53821   0.50000   0.00000  Uiso   1.00
O717   O     0.10559   0.46179   0.50000   0.00000  Uiso   1.00
O718   O     0.16667   0.53821   0.42845   0.00000  Uiso   1.00
O719   O     0.16666   0.46179   0.57155   0.00000  Uiso   1.00
O720   O     0.16666   0.53821   0.57155   0.00000  Uiso   1.00
O721   O     0.16667   0.46179   0.42845   0.00000  Uiso   1.00
O722   O     0.06179   0.38497   0.48207   0.00000  Uiso   1.00
S723   S     0.03387   0.41666   0.45309   0.00000  Uiso   1.00
S724   S     0.29144   0.58923   0.46087   0.00000  Uiso   1.00
S725   S     0.29947   0.41640   0.54615   0.00000  Uiso   1.00
S726   S     0.04200   0.58896   0.53974   0.00000  Uiso   1.00
Zn727  Zn    0.16667   0.55104   0.50000   0.00000  Uiso   1.00
Zn728  Zn    0.16667   0.44896   0.50000   0.00000  Uiso   1.00
C729   C     0.41999   0.50018   0.49958   0.00000  Uiso   1.00
C730   C     0.35423   0.54173   0.50661   0.00000  Uiso   1.00
C731   C     0.62432   0.50112   0.50059   0.00000  Uiso   1.00
C732   C     0.37569   0.50111   0.49930   0.00000  Uiso   1.00
C733   C     0.51670   0.35678   0.54002   0.00000  Uiso   1.00
C734   C     0.48232   0.64279   0.46057   0.00000  Uiso   1.00
C735   C     0.48332   0.35677   0.45997   0.00000  Uiso   1.00
C736   C     0.51768   0.64281   0.53943   0.00000  Uiso   1.00
C737   C     0.58002   0.50019   0.50040   0.00000  Uiso   1.00
C738   C     0.49985   0.50000   0.40633   0.00000  Uiso   1.00
C739   C     0.50015   0.50000   0.59367   0.00000  Uiso   1.00
C740   C     0.49994   0.50001   0.35516   0.00000  Uiso   1.00
C741   C     0.50006   0.50001   0.64484   0.00000  Uiso   1.00
C742   C     0.35310   0.46125   0.49225   0.00000  Uiso   1.00
C743   C     0.64582   0.54178   0.49361   0.00000  Uiso   1.00
C744   C     0.64687   0.46121   0.50722   0.00000  Uiso   1.00
H745   H     0.38770   0.41486   0.37721   0.00000  Uiso   1.00
H746   H     0.57563   0.59989   0.40464   0.00000  Uiso   1.00
H747   H     0.62995   0.45820   0.61197   0.00000  Uiso   1.00
H748   H     0.42442   0.59924   0.59613   0.00000  Uiso   1.00
H749   H     0.54548   0.40599   0.56910   0.00000  Uiso   1.00
H750   H     0.44991   0.59383   0.43450   0.00000  Uiso   1.00
H751   H     0.45456   0.40595   0.43086   0.00000  Uiso   1.00
H752   H     0.55005   0.59384   0.56553   0.00000  Uiso   1.00
N753   N     0.50000   0.61907   0.50000   0.00000  Uiso   1.00
N754   N     0.50000   0.38093   0.50000   0.00000  Uiso   1.00
O755   O     0.43892   0.53821   0.50000   0.00000  Uiso   1.00
O756   O     0.66283   0.39156   0.43436   0.00000  Uiso   1.00
O757   O     0.39038   0.43818   0.40357   0.00000  Uiso   1.00
O758   O     0.60373   0.61918   0.49678   0.00000  Uiso   1.00
O759   O     0.65829   0.61517   0.43729   0.00000  Uiso   1.00
O760   O     0.59082   0.57246   0.41512   0.00000  Uiso   1.00
O761   O     0.60468   0.38506   0.51693   0.00000  Uiso   1.00
O762   O     0.33689   0.39073   0.56464   0.00000  Uiso   1.00
O763   O     0.60970   0.43721   0.59604   0.00000  Uiso   1.00
O764   O     0.39641   0.61913   0.50408   0.00000  Uiso   1.00
O765   O     0.34185   0.61476   0.56354   0.00000  Uiso   1.00
O766   O     0.56108   0.46179   0.50000   0.00000  Uiso   1.00
O767   O     0.40927   0.57187   0.58533   0.00000  Uiso   1.00
O768   O     0.53486   0.37749   0.58114   0.00000  Uiso   1.00
O769   O     0.46155   0.62163   0.42126   0.00000  Uiso   1.00
O770   O     0.46523   0.37748   0.41882   0.00000  Uiso   1.00
O771   O     0.53843   0.62165   0.57876   0.00000  Uiso   1.00
O772   O     0.56108   0.53821   0.50000   0.00000  Uiso   1.00
O773   O     0.43892   0.46179   0.50000   0.00000  Uiso   1.00
O774   O     0.50000   0.53821   0.42845   0.00000  Uiso   1.00
O775   O     0.50000   0.46179   0.57155   0.00000  Uiso   1.00
O776   O     0.50000   0.53821   0.57155   0.00000  Uiso   1.00
O777   O     0.50000   0.46179   0.42845   0.00000  Uiso   1.00
O778   O     0.39513   0.38497   0.48207   0.00000  Uiso   1.00
S779   S     0.36720   0.41666   0.45309   0.00000  Uiso   1.00
S780   S     0.62477   0.58923   0.46087   0.00000  Uiso   1.00
S781   S     0.63281   0.41640   0.54615   0.00000  Uiso   1.00
S782   S     0.37533   0.58896   0.53974   0.00000  Uiso   1.00
Zn783  Zn    0.50000   0.55104   0.50000   0.00000  Uiso   1.00
Zn784  Zn    0.50000   0.44896   0.50000   0.00000  Uiso   1.00
C785   C     0.75332   0.50018   0.49958   0.00000  Uiso   1.00
C786   C     0.68756   0.54173   0.50661   0.00000  Uiso   1.00
C787   C     0.95765   0.50112   0.50059   0.00000  Uiso   1.00
C788   C     0.70902   0.50111   0.49930   0.00000  Uiso   1.00
C789   C     0.85003   0.35678   0.54002   0.00000  Uiso   1.00
C790   C     0.81565   0.64279   0.46057   0.00000  Uiso   1.00
C791   C     0.81665   0.35677   0.45997   0.00000  Uiso   1.00
C792   C     0.85102   0.64281   0.53943   0.00000  Uiso   1.00
C793   C     0.91335   0.50019   0.50040   0.00000  Uiso   1.00
C794   C     0.83318   0.50000   0.40633   0.00000  Uiso   1.00
C795   C     0.83348   0.50000   0.59367   0.00000  Uiso   1.00
C796   C     0.83328   0.50001   0.35516   0.00000  Uiso   1.00
C797   C     0.83339   0.50001   0.64484   0.00000  Uiso   1.00
C798   C     0.68644   0.46125   0.49225   0.00000  Uiso   1.00
C799   C     0.97915   0.54178   0.49361   0.00000  Uiso   1.00
C800   C     0.98020   0.46121   0.50722   0.00000  Uiso   1.00
H801   H     0.72103   0.41486   0.37721   0.00000  Uiso   1.00
H802   H     0.90897   0.59989   0.40464   0.00000  Uiso   1.00
H803   H     0.96328   0.45820   0.61197   0.00000  Uiso   1.00
H804   H     0.75775   0.59924   0.59613   0.00000  Uiso   1.00
H805   H     0.87882   0.40599   0.56910   0.00000  Uiso   1.00
H806   H     0.78324   0.59383   0.43450   0.00000  Uiso   1.00
H807   H     0.78790   0.40595   0.43086   0.00000  Uiso   1.00
H808   H     0.88339   0.59384   0.56553   0.00000  Uiso   1.00
N809   N     0.83333   0.61907   0.50000   0.00000  Uiso   1.00
N810   N     0.83333   0.38093   0.50000   0.00000  Uiso   1.00
O811   O     0.77226   0.53821   0.50000   0.00000  Uiso   1.00
O812   O     0.99616   0.39156   0.43436   0.00000  Uiso   1.00
O813   O     0.72371   0.43818   0.40357   0.00000  Uiso   1.00
O814   O     0.93707   0.61918   0.49678   0.00000  Uiso   1.00
O815   O     0.99162   0.61517   0.43729   0.00000  Uiso   1.00
O816   O     0.92415   0.57246   0.41512   0.00000  Uiso   1.00
O817   O     0.93801   0.38506   0.51693   0.00000  Uiso   1.00
O818   O     0.67023   0.39073   0.56464   0.00000  Uiso   1.00
O819   O     0.94303   0.43721   0.59604   0.00000  Uiso   1.00
O820   O     0.72975   0.61913   0.50408   0.00000  Uiso   1.00
O821   O     0.67519   0.61476   0.56354   0.00000  Uiso   1.00
O822   O     0.89441   0.46179   0.50000   0.00000  Uiso   1.00
O823   O     0.74261   0.57187   0.58533   0.00000  Uiso   1.00
O824   O     0.86820   0.37749   0.58114   0.00000  Uiso   1.00
O825   O     0.79488   0.62163   0.42126   0.00000  Uiso   1.00
O826   O     0.79856   0.37748   0.41882   0.00000  Uiso   1.00
O827   O     0.87176   0.62165   0.57876   0.00000  Uiso   1.00
O828   O     0.89441   0.53821   0.50000   0.00000  Uiso   1.00
O829   O     0.77226   0.46179   0.50000   0.00000  Uiso   1.00
O830   O     0.83334   0.53821   0.42845   0.00000  Uiso   1.00
O831   O     0.83333   0.46179   0.57155   0.00000  Uiso   1.00
O832   O     0.83333   0.53821   0.57155   0.00000  Uiso   1.00
O833   O     0.83334   0.46179   0.42845   0.00000  Uiso   1.00
O834   O     0.72846   0.38497   0.48207   0.00000  Uiso   1.00
S835   S     0.70054   0.41666   0.45309   0.00000  Uiso   1.00
S836   S     0.95811   0.58923   0.46087   0.00000  Uiso   1.00
S837   S     0.96614   0.41640   0.54615   0.00000  Uiso   1.00
S838   S     0.70867   0.58896   0.53974   0.00000  Uiso   1.00
Zn839  Zn    0.83333   0.55104   0.50000   0.00000  Uiso   1.00
Zn840  Zn    0.83333   0.44896   0.50000   0.00000  Uiso   1.00
C841   C     0.08665   0.83352   0.49958   0.00000  Uiso   1.00
C842   C     0.02089   0.87506   0.50661   0.00000  Uiso   1.00
C843   C     0.29098   0.83446   0.50059   0.00000  Uiso   1.00
C844   C     0.04235   0.83445   0.49930   0.00000  Uiso   1.00
C845   C     0.18337   0.69011   0.54002   0.00000  Uiso   1.00
C846   C     0.14898   0.97613   0.46057   0.00000  Uiso   1.00
C847   C     0.14999   0.69010   0.45997   0.00000  Uiso   1.00
C848   C     0.18435   0.97614   0.53943   0.00000  Uiso   1.00
C849   C     0.24668   0.83353   0.50040   0.00000  Uiso   1.00
C850   C     0.16652   0.83333   0.40633   0.00000  Uiso   1.00
C851   C     0.16682   0.83334   0.59367   0.00000  Uiso   1.00
C852   C     0.16661   0.83334   0.35516   0.00000  Uiso   1.00
C853   C     0.16672   0.83334   0.64484   0.00000  Uiso   1.00
C854   C     0.01977   0.79459   0.49225   0.00000  Uiso   1.00
C855   C     0.31248   0.87511   0.49361   0.00000  Uiso   1.00
C856   C     0.31354   0.79454   0.50722   0.00000  Uiso   1.00
H857   H     0.05436   0.74819   0.37721   0.00000  Uiso   1.00
H858   H     0.24230   0.93323   0.40464   0.00000  Uiso   1.00
H859   H     0.29661   0.79153   0.61197   0.00000  Uiso   1.00
H860   H     0.09109   0.93258   0.59613   0.00000  Uiso   1.00
H861   H     0.21215   0.73932   0.56910   0.00000  Uiso   1.00
H862   H     0.11657   0.92717   0.43450   0.00000  Uiso   1.00
H863   H     0.12123   0.73929   0.43086   0.00000  Uiso   1.00
H864   H     0.21672   0.92718   0.56553   0.00000  Uiso   1.00
N865   N     0.16667   0.95240   0.50000   0.00000  Uiso   1.00
N866   N     0.16667   0.71427   0.50000   0.00000  Uiso   1.00
O867   O     0.10559   0.87154   0.50000   0.00000  Uiso   1.00
O868   O     0.32949   0.72489   0.43436   0.00000  Uiso   1.00
O869   O     0.05704   0.77151   0.40357   0.00000  Uiso   1.00
O870   O     0.27040   0.95251   0.49678   0.00000  Uiso   1.00
O871   O     0.32496   0.94850   0.43729   0.00000  Uiso   1.00
O872   O     0.25748   0.90579   0.41512   0.00000  Uiso   1.00
O873   O     0.27134   0.71840   0.51693   0.00000  Uiso   1.00
O874   O     0.00356   0.72406   0.56464   0.00000  Uiso   1.00
O875   O     0.27637   0.77055   0.59604   0.00000  Uiso   1.00
O876   O     0.06308   0.95246   0.50408   0.00000  Uiso   1.00
O877   O     0.00852   0.94810   0.56354   0.00000  Uiso   1.00
O878   O     0.22774   0.79513   0.50000   0.00000  Uiso   1.00
O879   O     0.07594   0.90520   0.58533   0.00000  Uiso   1.00
O880   O     0.20153   0.71083   0.58114   0.00000  Uiso   1.00
O881   O     0.12821   0.95497   0.42126   0.00000  Uiso   1.00
O882   O     0.13189   0.71081   0.41882   0.00000  Uiso   1.00
O883   O     0.20510   0.95499   0.57876   0.00000  Uiso   1.00
O884   O     0.22774   0.87154   0.50000   0.00000  Uiso   1.00
O885   O     0.10559   0.79513   0.50000   0.00000  Uiso   1.00
O886   O     0.16667   0.87155   0.42845   0.00000  Uiso   1.00
O887   O     0.16666   0.79512   0.57155   0.00000  Uiso   1.00
O888   O     0.16666   0.87155   0.57155   0.00000  Uiso   1.00
O889   O     0.16667   0.79512   0.42845   0.00000  Uiso   1.00
O890   O     0.06179   0.71830   0.48207   0.00000  Uiso   1.00
S891   S     0.03387   0.75000   0.45309   0.00000  Uiso   1.00
S892   S     0.29144   0.92257   0.46087   0.00000  Uiso   1.00
S893   S     0.29947   0.74973   0.54615   0.00000  Uiso   1.00
S894   S     0.04200   0.92230   0.53974   0.00000  Uiso   1.00
Zn895  Zn    0.16667   0.88437   0.50000   0.00000  Uiso   1.00
Zn896  Zn    0.16667   0.78229   0.50000   0.00000  Uiso   1.00
C897   C     0.41999   0.83352   0.49958   0.00000  Uiso   1.00
C898   C     0.35423   0.87506   0.50661   0.00000  Uiso   1.00
C899   C     0.62432   0.83446   0.50059   0.00000  Uiso   1.00
C900   C     0.37569   0.83445   0.49930   0.00000  Uiso   1.00
C901   C     0.51670   0.69011   0.54002   0.00000  Uiso   1.00
C902   C     0.48232   0.97613   0.46057   0.00000  Uiso   1.00
C903   C     0.48332   0.69010   0.45997   0.00000  Uiso   1.00
C904   C     0.51768   0.97614   0.53943   0.00000  Uiso   1.00
C905   C     0.58002   0.83353   0.50040   0.00000  Uiso   1.00
C906   C     0.49985   0.83333   0.40633   0.00000  Uiso   1.00
C907   C     0.50015   0.83334   0.59367   0.00000  Uiso   1.00
C908   C     0.49994   0.83334   0.35516   0.00000  Uiso   1.00
C909   C     0.50006   0.83334   0.64484   0.00000  Uiso   1.00
C910   C     0.35310   0.79459   0.49225   0.00000  Uiso   1.00
C911   C     0.64582   0.87511   0.49361   0.00000  Uiso   1.00
C912   C     0.64687   0.79454   0.50722   0.00000  Uiso   1.00
H913   H     0.38770   0.74819   0.37721   0.00000  Uiso   1.00
H914   H     0.57563   0.93323   0.40464   0.00000  Uiso   1.00
H915   H     0.62995   0.79153   0.61197   0.00000  Uiso   1.00
H916   H     0.42442   0.93258   0.59613   0.00000  Uiso   1.00
H917   H     0.54548   0.73932   0.56910   0.00000  Uiso   1.00
H918   H     0.44991   0.92717   0.43450   0.00000  Uiso   1.00
H919   H     0.45456   0.73929   0.43086   0.00000  Uiso   1.00
H920   H     0.55005   0.92718   0.56553   0.00000  Uiso   1.00
N921   N     0.50000   0.95240   0.50000   0.00000  Uiso   1.00
N922   N     0.50000   0.71427   0.50000   0.00000  Uiso   1.00
O923   O     0.43892   0.87154   0.50000   0.00000  Uiso   1.00
O924   O     0.66283   0.72489   0.43436   0.00000  Uiso   1.00
O925   O     0.39038   0.77151   0.40357   0.00000  Uiso   1.00
O926   O     0.60373   0.95251   0.49678   0.00000  Uiso   1.00
O927   O     0.65829   0.94850   0.43729   0.00000  Uiso   1.00
O928   O     0.59082   0.90579   0.41512   0.00000  Uiso   1.00
O929   O     0.60468   0.71840   0.51693   0.00000  Uiso   1.00
O930   O     0.33689   0.72406   0.56464   0.00000  Uiso   1.00
O931   O     0.60970   0.77055   0.59604   0.00000  Uiso   1.00
O932   O     0.39641   0.95246   0.50408   0.00000  Uiso   1.00
O933   O     0.34185   0.94810   0.56354   0.00000  Uiso   1.00
O934   O     0.56108   0.79513   0.50000   0.00000  Uiso   1.00
O935   O     0.40927   0.90520   0.58533   0.00000  Uiso   1.00
O936   O     0.53486   0.71083   0.58114   0.00000  Uiso   1.00
O937   O     0.46155   0.95497   0.42126   0.00000  Uiso   1.00
O938   O     0.46523   0.71081   0.41882   0.00000  Uiso   1.00
O939   O     0.53843   0.95499   0.57876   0.00000  Uiso   1.00
O940   O     0.56108   0.87154   0.50000   0.00000  Uiso   1.00
O941   O     0.43892   0.79513   0.50000   0.00000  Uiso   1.00
O942   O     0.50000   0.87155   0.42845   0.00000  Uiso   1.00
O943   O     0.50000   0.79512   0.57155   0.00000  Uiso   1.00
O944   O     0.50000   0.87155   0.57155   0.00000  Uiso   1.00
O945   O     0.50000   0.79512   0.42845   0.00000  Uiso   1.00
O946   O     0.39513   0.71830   0.48207   0.00000  Uiso   1.00
S947   S     0.36720   0.75000   0.45309   0.00000  Uiso   1.00
S948   S     0.62477   0.92257   0.46087   0.00000  Uiso   1.00
S949   S     0.63281   0.74973   0.54615   0.00000  Uiso   1.00
S950   S     0.37533   0.92230   0.53974   0.00000  Uiso   1.00
Zn951  Zn    0.50000   0.88437   0.50000   0.00000  Uiso   1.00
Zn952  Zn    0.50000   0.78229   0.50000   0.00000  Uiso   1.00
C953   C     0.75332   0.83352   0.49958   0.00000  Uiso   1.00
C954   C     0.68756   0.87506   0.50661   0.00000  Uiso   1.00
C955   C     0.95765   0.83446   0.50059   0.00000  Uiso   1.00
C956   C     0.70902   0.83445   0.49930   0.00000  Uiso   1.00
C957   C     0.85003   0.69011   0.54002   0.00000  Uiso   1.00
C958   C     0.81565   0.97613   0.46057   0.00000  Uiso   1.00
C959   C     0.81665   0.69010   0.45997   0.00000  Uiso   1.00
C960   C     0.85102   0.97614   0.53943   0.00000  Uiso   1.00
C961   C     0.91335   0.83353   0.50040   0.00000  Uiso   1.00
C962   C     0.83318   0.83333   0.40633   0.00000  Uiso   1.00
C963   C     0.83348   0.83334   0.59367   0.00000  Uiso   1.00
C964   C     0.83328   0.83334   0.35516   0.00000  Uiso   1.00
C965   C     0.83339   0.83334   0.64484   0.00000  Uiso   1.00
C966   C     0.68644   0.79459   0.49225   0.00000  Uiso   1.00
C967   C     0.97915   0.87511   0.49361   0.00000  Uiso   1.00
C968   C     0.98020   0.79454   0.50722   0.00000  Uiso   1.00
H969   H     0.72103   0.74819   0.37721   0.00000  Uiso   1.00
H970   H     0.90897   0.93323   0.40464   0.00000  Uiso   1.00
H971   H     0.96328   0.79153   0.61197   0.00000  Uiso   1.00
H972   H     0.75775   0.93258   0.59613   0.00000  Uiso   1.00
H973   H     0.87882   0.73932   0.56910   0.00000  Uiso   1.00
H974   H     0.78324   0.92717   0.43450   0.00000  Uiso   1.00
H975   H     0.78790   0.73929   0.43086   0.00000  Uiso   1.00
H976   H     0.88339   0.92718   0.56553   0.00000  Uiso   1.00
N977   N     0.83333   0.95240   0.50000   0.00000  Uiso   1.00
N978   N     0.83333   0.71427   0.50000   0.00000  Uiso   1.00
O979   O     0.77226   0.87154   0.50000   0.00000  Uiso   1.00
O980   O     0.99616   0.72489   0.43436   0.00000  Uiso   1.00
O981   O     0.72371   0.77151   0.40357   0.00000  Uiso   1.00
O982   O     0.93707   0.95251   0.49678   0.00000  Uiso   1.00
O983   O     0.99162   0.94850   0.43729   0.00000  Uiso   1.00
O984   O     0.92415   0.90579   0.41512   0.00000  Uiso   1.00
O985   O     0.93801   0.71840   0.51693   0.00000  Uiso   1.00
O986   O     0.67023   0.72406   0.56464   0.00000  Uiso   1.00
O987   O     0.94303   0.77055   0.59604   0.00000  Uiso   1.00
O988   O     0.72975   0.95246   0.50408   0.00000  Uiso   1.00
O989   O     0.67519   0.94810   0.56354   0.00000  Uiso   1.00
O990   O     0.89441   0.79513   0.50000   0.00000  Uiso   1.00
O991   O     0.74261   0.90520   0.58533   0.00000  Uiso   1.00
O992   O     0.86820   0.71083   0.58114   0.00000  Uiso   1.00
O993   O     0.79488   0.95497   0.42126   0.00000  Uiso   1.00
O994   O     0.79856   0.71081   0.41882   0.00000  Uiso   1.00
O995   O     0.87176   0.95499   0.57876   0.00000  Uiso   1.00
O996   O     0.89441   0.87154   0.50000   0.00000  Uiso   1.00
O997   O     0.77226   0.79513   0.50000   0.00000  Uiso   1.00
O998   O     0.83334   0.87155   0.42845   0.00000  Uiso   1.00
O999   O     0.83333   0.79512   0.57155   0.00000  Uiso   1.00
O1000  O     0.83333   0.87155   0.57155   0.00000  Uiso   1.00
O1001  O     0.83334   0.79512   0.42845   0.00000  Uiso   1.00
O1002  O     0.72846   0.71830   0.48207   0.00000  Uiso   1.00
S1003  S     0.70054   0.75000   0.45309   0.00000  Uiso   1.00
S1004  S     0.95811   0.92257   0.46087   0.00000  Uiso   1.00
S1005  S     0.96614   0.74973   0.54615   0.00000  Uiso   1.00
S1006  S     0.70867   0.92230   0.53974   0.00000  Uiso   1.00
Zn1007 Zn    0.83333   0.88437   0.50000   0.00000  Uiso   1.00
Zn1008 Zn    0.83333   0.78229   0.50000   0.00000  Uiso   1.00
C1009  C     0.08665   0.16685   0.83291   0.00000  Uiso   1.00
C1010  C     0.02089   0.20840   0.83995   0.00000  Uiso   1.00
C1011  C     0.29098   0.16779   0.83392   0.00000  Uiso   1.00
C1012  C     0.04235   0.16778   0.83264   0.00000  Uiso   1.00
C1013  C     0.18337   0.02345   0.87335   0.00000  Uiso   1.00
C1014  C     0.14898   0.30946   0.79391   0.00000  Uiso   1.00
C1015  C     0.14999   0.02343   0.79331   0.00000  Uiso   1.00
C1016  C     0.18435   0.30947   0.87276   0.00000  Uiso   1.00
C1017  C     0.24668   0.16686   0.83373   0.00000  Uiso   1.00
C1018  C     0.16652   0.16667   0.73967   0.00000  Uiso   1.00
C1019  C     0.16682   0.16667   0.92700   0.00000  Uiso   1.00
C1020  C     0.16661   0.16667   0.68849   0.00000  Uiso   1.00
C1021  C     0.16672   0.16668   0.97817   0.00000  Uiso   1.00
C1022  C     0.01977   0.12792   0.82559   0.00000  Uiso   1.00
C1023  C     0.31248   0.20845   0.82695   0.00000  Uiso   1.00
C1024  C     0.31354   0.12787   0.84056   0.00000  Uiso   1.00
H1025  H     0.05436   0.08153   0.71054   0.00000  Uiso   1.00
H1026  H     0.24230   0.26656   0.73797   0.00000  Uiso   1.00
H1027  H     0.29661   0.12486   0.94530   0.00000  Uiso   1.00
H1028  H     0.09109   0.26591   0.92946   0.00000  Uiso   1.00
H1029  H     0.21215   0.07265   0.90243   0.00000  Uiso   1.00
H1030  H     0.11657   0.26050   0.76784   0.00000  Uiso   1.00
H1031  H     0.12123   0.07262   0.76419   0.00000  Uiso   1.00
H1032  H     0.21672   0.26051   0.89886   0.00000  Uiso   1.00
N1033  N     0.16667   0.28573   0.83333   0.00000  Uiso   1.00
N1034  N     0.16667   0.04760   0.83333   0.00000  Uiso   1.00
O1035  O     0.10559   0.20487   0.83333   0.00000  Uiso   1.00
O1036  O     0.32949   0.05823   0.76769   0.00000  Uiso   1.00
O1037  O     0.05704   0.10484   0.73690   0.00000  Uiso   1.00
O1038  O     0.27040   0.28585   0.83011   0.00000  Uiso   1.00
O1039  O     0.32496   0.28184   0.77062   0.00000  Uiso   1.00
O1040  O     0.25748   0.23913   0.74846   0.00000  Uiso   1.00
O1041  O     0.27134   0.05173   0.85026   0.00000  Uiso   1.00
O1042  O     0.00356   0.05739   0.89797   0.00000  Uiso   1.00
O1043  O     0.27637   0.10388   0.92937   0.00000  Uiso   1.00
O1044  O     0.06308   0.28580   0.83741   0.00000  Uiso   1.00
O1045  O     0.00852   0.28143   0.89687   0.00000  Uiso   1.00
O1046  O     0.22774   0.12846   0.83334   0.00000  Uiso   1.00
O1047  O     0.07594   0.23854   0.91866   0.00000  Uiso   1.00
O1048  O     0.20153   0.04416   0.91447   0.00000  Uiso   1.00
O1049  O     0.12821   0.28830   0.75459   0.00000  Uiso   1.00
O1050  O     0.13189   0.04414   0.75215   0.00000  Uiso   1.00
O1051  O     0.20510   0.28832   0.91210   0.00000  Uiso   1.00
O1052  O     0.22774   0.20487   0.83334   0.00000  Uiso   1.00
O1053  O     0.10559   0.12846   0.83333   0.00000  Uiso   1.00
O1054  O     0.16667   0.20488   0.76178   0.00000  Uiso   1.00
O1055  O     0.16666   0.12845   0.90489   0.00000  Uiso   1.00
O1056  O     0.16666   0.20488   0.90489   0.00000  Uiso   1.00
O1057  O     0.16667   0.12845   0.76178   0.00000  Uiso   1.00
O1058  O     0.06179   0.05163   0.81540   0.00000  Uiso   1.00
S1059  S     0.03387   0.08333   0.78642   0.00000  Uiso   1.00
S1060  S     0.29144   0.25590   0.79420   0.00000  Uiso   1.00
S1061  S     0.29947   0.08306   0.87948   0.00000  Uiso   1.00
S1062  S     0.04200   0.25563   0.87307   0.00000  Uiso   1.00
Zn1063 Zn    0.16667   0.21771   0.83333   0.00000  Uiso   1.00
Zn1064 Zn    0.16667   0.11563   0.83333   0.00000  Uiso   1.00
C1065  C     0.41999   0.16685   0.83291   0.00000  Uiso   1.00
C1066  C     0.35423   0.20840   0.83995   0.00000  Uiso   1.00
C1067  C     0.62432   0.16779   0.83392   0.00000  Uiso   1.00
C1068  C     0.37569   0.16778   0.83264   0.00000  Uiso   1.00
C1069  C     0.51670   0.02345   0.87335   0.00000  Uiso   1.00
C1070  C     0.48232   0.30946   0.79391   0.00000  Uiso   1.00
C1071  C     0.48332   0.02343   0.79331   0.00000  Uiso   1.00
C1072  C     0.51768   0.30947   0.87276   0.00000  Uiso   1.00
C1073  C     0.58002   0.16686   0.83373   0.00000  Uiso   1.00
C1074  C     0.49985   0.16667   0.73967   0.00000  Uiso   1.00
C1075  C     0.50015   0.16667   0.92700   0.00000  Uiso   1.00
C1076  C     0.49994   0.16667   0.68849   0.00000  Uiso   1.00
C1077  C     0.50006   0.16668   0.97817   0.00000  Uiso   1.00
C1078  C     0.35310   0.12792   0.82559   0.00000  Uiso   1.00
C1079  C     0.64582   0.20845   0.82695   0.00000  Uiso   1.00
C1080  C     0.64687   0.12787   0.84056   0.00000  Uiso   1.00
H1081  H     0.38770   0.08153   0.71054   0.00000  Uiso   1.00
H1082  H     0.57563   0.26656   0.73797   0.00000  Uiso   1.00
H1083  H     0.62995   0.12486   0.94530   0.00000  Uiso   1.00
H1084  H     0.42442   0.26591   0.92946   0.00000  Uiso   1.00
H1085  H     0.54548   0.07265   0.90243   0.00000  Uiso   1.00
H1086  H     0.44991   0.26050   0.76784   0.00000  Uiso   1.00
H1087  H     0.45456   0.07262   0.76419   0.00000  Uiso   1.00
H1088  H     0.55005   0.26051   0.89886   0.00000  Uiso   1.00
N1089  N     0.50000   0.28573   0.83333   0.00000  Uiso   1.00
N1090  N     0.50000   0.04760   0.83333   0.00000  Uiso   1.00
O1091  O     0.43892   0.20487   0.83333   0.00000  Uiso   1.00
O1092  O     0.66283   0.05823   0.76769   0.00000  Uiso   1.00
O1093  O     0.39038   0.10484   0.73690   0.00000  Uiso   1.00
O1094  O     0.60373   0.28585   0.83011   0.00000  Uiso   1.00
O1095  O     0.65829   0.28184   0.77062   0.00000  Uiso   1.00
O1096  O     0.59082   0.23913   0.74846   0.00000  Uiso   1.00
O1097  O     0.60468   0.05173   0.85026   0.00000  Uiso   1.00
O1098  O     0.33689   0.05739   0.89797   0.00000  Uiso   1.00
O1099  O     0.60970   0.10388   0.92937   0.00000  Uiso   1.00
O1100  O     0.39641   0.28580   0.83741   0.00000  Uiso   1.00
O1101  O     0.34185   0.28143   0.89687   0.00000  Uiso   1.00
O1102  O     0.56108   0.12846   0.83334   0.00000  Uiso   1.00
O1103  O     0.40927   0.23854   0.91866   0.00000  Uiso   1.00
O1104  O     0.53486   0.04416   0.91447   0.00000  Uiso   1.00
O1105  O     0.46155   0.28830   0.75459   0.00000  Uiso   1.00
O1106  O     0.46523   0.04414   0.75215   0.00000  Uiso   1.00
O1107  O     0.53843   0.28832   0.91210   0.00000  Uiso   1.00
O1108  O     0.56108   0.20487   0.83334   0.00000  Uiso   1.00
O1109  O     0.43892   0.12846   0.83333   0.00000  Uiso   1.00
O1110  O     0.50000   0.20488   0.76178   0.00000  Uiso   1.00
O1111  O     0.50000   0.12845   0.90489   0.00000  Uiso   1.00
O1112  O     0.50000   0.20488   0.90489   0.00000  Uiso   1.00
O1113  O     0.50000   0.12845   0.76178   0.00000  Uiso   1.00
O1114  O     0.39513   0.05163   0.81540   0.00000  Uiso   1.00
S1115  S     0.36720   0.08333   0.78642   0.00000  Uiso   1.00
S1116  S     0.62477   0.25590   0.79420   0.00000  Uiso   1.00
S1117  S     0.63281   0.08306   0.87948   0.00000  Uiso   1.00
S1118  S     0.37533   0.25563   0.87307   0.00000  Uiso   1.00
Zn1119 Zn    0.50000   0.21771   0.83333   0.00000  Uiso   1.00
Zn1120 Zn    0.50000   0.11563   0.83333   0.00000  Uiso   1.00
C1121  C     0.75332   0.16685   0.83291   0.00000  Uiso   1.00
C1122  C     0.68756   0.20840   0.83995   0.00000  Uiso   1.00
C1123  C     0.95765   0.16779   0.83392   0.00000  Uiso   1.00
C1124  C     0.70902   0.16778   0.83264   0.00000  Uiso   1.00
C1125  C     0.85003   0.02345   0.87335   0.00000  Uiso   1.00
C1126  C     0.81565   0.30946   0.79391   0.00000  Uiso   1.00
C1127  C     0.81665   0.02343   0.79331   0.00000  Uiso   1.00
C1128  C     0.85102   0.30947   0.87276   0.00000  Uiso   1.00
C1129  C     0.91335   0.16686   0.83373   0.00000  Uiso   1.00
C1130  C     0.83318   0.16667   0.73967   0.00000  Uiso   1.00
C1131  C     0.83348   0.16667   0.92700   0.00000  Uiso   1.00
C1132  C     0.83328   0.16667   0.68849   0.00000  Uiso   1.00
C1133  C     0.83339   0.16668   0.97817   0.00000  Uiso   1.00
C1134  C     0.68644   0.12792   0.82559   0.00000  Uiso   1.00
C1135  C     0.97915   0.20845   0.82695   0.00000  Uiso   1.00
C1136  C     0.98020   0.12787   0.84056   0.00000  Uiso   1.00
H1137  H     0.72103   0.08153   0.71054   0.00000  Uiso   1.00
H1138  H     0.90897   0.26656   0.73797   0.00000  Uiso   1.00
H1139  H     0.96328   0.12486   0.94530   0.00000  Uiso   1.00
H1140  H     0.75775   0.26591   0.92946   0.00000  Uiso   1.00
H1141  H     0.87882   0.07265   0.90243   0.00000  Uiso   1.00
H1142  H     0.78324   0.26050   0.76784   0.00000  Uiso   1.00
H1143  H     0.78790   0.07262   0.76419   0.00000  Uiso   1.00
H1144  H     0.88339   0.26051   0.89886   0.00000  Uiso   1.00
N1145  N     0.83333   0.28573   0.83333   0.00000  Uiso   1.00
N1146  N     0.83333   0.04760   0.83333   0.00000  Uiso   1.00
O1147  O     0.77226   0.20487   0.83333   0.00000  Uiso   1.00
O1148  O     0.99616   0.05823   0.76769   0.00000  Uiso   1.00
O1149  O     0.72371   0.10484   0.73690   0.00000  Uiso   1.00
O1150  O     0.93707   0.28585   0.83011   0.00000  Uiso   1.00
O1151  O     0.99162   0.28184   0.77062   0.00000  Uiso   1.00
O1152  O     0.92415   0.23913   0.74846   0.00000  Uiso   1.00
O1153  O     0.93801   0.05173   0.85026   0.00000  Uiso   1.00
O1154  O     0.67023   0.05739   0.89797   0.00000  Uiso   1.00
O1155  O     0.94303   0.10388   0.92937   0.00000  Uiso   1.00
O1156  O     0.72975   0.28580   0.83741   0.00000  Uiso   1.00
O1157  O     0.67519   0.28143   0.89687   0.00000  Uiso   1.00
O1158  O     0.89441   0.12846   0.83334   0.00000  Uiso   1.00
O1159  O     0.74261   0.23854   0.91866   0.00000  Uiso   1.00
O1160  O     0.86820   0.04416   0.91447   0.00000  Uiso   1.00
O1161  O     0.79488   0.28830   0.75459   0.00000  Uiso   1.00
O1162  O     0.79856   0.04414   0.75215   0.00000  Uiso   1.00
O1163  O     0.87176   0.28832   0.91210   0.00000  Uiso   1.00
O1164  O     0.89441   0.20487   0.83334   0.00000  Uiso   1.00
O1165  O     0.77226   0.12846   0.83333   0.00000  Uiso   1.00
O1166  O     0.83334   0.20488   0.76178   0.00000  Uiso   1.00
O1167  O     0.83333   0.12845   0.90489   0.00000  Uiso   1.00
O1168  O     0.83333   0.20488   0.90489   0.00000  Uiso   1.00
O1169  O     0.83334   0.12845   0.76178   0.00000  Uiso   1.00
O1170  O     0.72846   0.05163   0.81540   0.00000  Uiso   1.00
S1171  S     0.70054   0.08333   0.78642   0.00000  Uiso   1.00
S1172  S     0.95811   0.25590   0.79420   0.00000  Uiso   1.00
S1173  S     0.96614   0.08306   0.87948   0.00000  Uiso   1.00
S1174  S     0.70867   0.25563   0.87307   0.00000  Uiso   1.00
Zn1175 Zn    0.83333   0.21771   0.83333   0.00000  Uiso   1.00
Zn1176 Zn    0.83333   0.11563   0.83333   0.00000  Uiso   1.00
C1177  C     0.08665   0.50018   0.83291   0.00000  Uiso   1.00
C1178  C     0.02089   0.54173   0.83995   0.00000  Uiso   1.00
C1179  C     0.29098   0.50112   0.83392   0.00000  Uiso   1.00
C1180  C     0.04235   0.50111   0.83264   0.00000  Uiso   1.00
C1181  C     0.18337   0.35678   0.87335   0.00000  Uiso   1.00
C1182  C     0.14898   0.64279   0.79391   0.00000  Uiso   1.00
C1183  C     0.14999   0.35677   0.79331   0.00000  Uiso   1.00
C1184  C     0.18435   0.64281   0.87276   0.00000  Uiso   1.00
C1185  C     0.24668   0.50019   0.83373   0.00000  Uiso   1.00
C1186  C     0.16652   0.50000   0.73967   0.00000  Uiso   1.00
C1187  C     0.16682   0.50000   0.92700   0.00000  Uiso   1.00
C1188  C     0.16661   0.50001   0.68849   0.00000  Uiso   1.00
C1189  C     0.16672   0.50001   0.97817   0.00000  Uiso   1.00
C1190  C     0.01977   0.46125   0.82559   0.00000  Uiso   1.00
C1191  C     0.31248   0.54178   0.82695   0.00000  Uiso   1.00
C1192  C     0.31354   0.46121   0.84056   0.00000  Uiso   1.00
H1193  H     0.05436   0.41486   0.71054   0.00000  Uiso   1.00
H1194  H     0.24230   0.59989   0.73797   0.00000  Uiso   1.00
H1195  H     0.29661   0.45820   0.94530   0.00000  Uiso   1.00
H1196  H     0.09109   0.59924   0.92946   0.00000  Uiso   1.00
H1197  H     0.21215   0.40599   0.90243   0.00000  Uiso   1.00
H1198  H     0.11657   0.59383   0.76784   0.00000  Uiso   1.00
H1199  H     0.12123   0.40595   0.76419   0.00000  Uiso   1.00
H1200  H     0.21672   0.59384   0.89886   0.00000  Uiso   1.00
N1201  N     0.16667   0.61907   0.83333   0.00000  Uiso   1.00
N1202  N     0.16667   0.38093   0.83333   0.00000  Uiso   1.00
O1203  O     0.10559   0.53821   0.83333   0.00000  Uiso   1.00
O1204  O     0.32949   0.39156   0.76769   0.00000  Uiso   1.00
O1205  O     0.05704   0.43818   0.73690   0.00000  Uiso   1.00
O1206  O     0.27040   0.61918   0.83011   0.00000  Uiso   1.00
O1207  O     0.32496   0.61517   0.77062   0.00000  Uiso   1.00
O1208  O     0.25748   0.57246   0.74846   0.00000  Uiso   1.00
O1209  O     0.27134   0.38506   0.85026   0.00000  Uiso   1.00
O1210  O     0.00356   0.39073   0.89797   0.00000  Uiso   1.00
O1211  O     0.27637   0.43721   0.92937   0.00000  Uiso   1.00
O1212  O     0.06308   0.61913   0.83741   0.00000  Uiso   1.00
O1213  O     0.00852   0.61476   0.89687   0.00000  Uiso   1.00
O1214  O     0.22774   0.46179   0.83334   0.00000  Uiso   1.00
O1215  O     0.07594   0.57187   0.91866   0.00000  Uiso   1.00
O1216  O     0.20153   0.37749   0.91447   0.00000  Uiso   1.00
O1217  O     0.12821   0.62163   0.75459   0.00000  Uiso   1.00
O1218  O     0.13189   0.37748   0.75215   0.00000  Uiso   1.00
O1219  O     0.20510   0.62165   0.91210   0.00000  Uiso   1.00
O1220  O     0.22774   0.53821   0.83334   0.00000  Uiso   1.00
O1221  O     0.10559   0.46179   0.83333   0.00000  Uiso   1.00
O1222  O     0.16667   0.53821   0.76178   0.00000  Uiso   1.00
O1223  O     0.16666   0.46179   0.90489   0.00000  Uiso   1.00
O1224  O     0.16666   0.53821   0.90489   0.00000  Uiso   1.00
O1225  O     0.16667   0.46179   0.76178   0.00000  Uiso   1.00
O1226  O     0.06179   0.38497   0.81540   0.00000  Uiso   1.00
S1227  S     0.03387   0.41666   0.78642   0.00000  Uiso   1.00
S1228  S     0.29144   0.58923   0.79420   0.00000  Uiso   1.00
S1229  S     0.29947   0.41640   0.87948   0.00000  Uiso   1.00
S1230  S     0.04200   0.58896   0.87307   0.00000  Uiso   1.00
Zn1231 Zn    0.16667   0.55104   0.83333   0.00000  Uiso   1.00
Zn1232 Zn    0.16667   0.44896   0.83333   0.00000  Uiso   1.00
C1233  C     0.41999   0.50018   0.83291   0.00000  Uiso   1.00
C1234  C     0.35423   0.54173   0.83995   0.00000  Uiso   1.00
C1235  C     0.62432   0.50112   0.83392   0.00000  Uiso   1.00
C1236  C     0.37569   0.50111   0.83264   0.00000  Uiso   1.00
C1237  C     0.51670   0.35678   0.87335   0.00000  Uiso   1.00
C1238  C     0.48232   0.64279   0.79391   0.00000  Uiso   1.00
C1239  C     0.48332   0.35677   0.79331   0.00000  Uiso   1.00
C1240  C     0.51768   0.64281   0.87276   0.00000  Uiso   1.00
C1241  C     0.58002   0.50019   0.83373   0.00000  Uiso   1.00
C1242  C     0.49985   0.50000   0.73967   0.00000  Uiso   1.00
C1243  C     0.50015   0.50000   0.92700   0.00000  Uiso   1.00
C1244  C     0.49994   0.50001   0.68849   0.00000  Uiso   1.00
C1245  C     0.50006   0.50001   0.97817   0.00000  Uiso   1.00
C1246  C     0.35310   0.46125   0.82559   0.00000  Uiso   1.00
C1247  C     0.64582   0.54178   0.82695   0.00000  Uiso   1.00
C1248  C     0.64687   0.46121   0.84056   0.00000  Uiso   1.00
H1249  H     0.38770   0.41486   0.71054   0.00000  Uiso   1.00
H1250  H     0.57563   0.59989   0.73797   0.00000  Uiso   1.00
H1251  H     0.62995   0.45820   0.94530   0.00000  Uiso   1.00
H1252  H     0.42442   0.59924   0.92946   0.00000  Uiso   1.00
H1253  H     0.54548   0.40599   0.90243   0.00000  Uiso   1.00
H1254  H     0.44991   0.59383   0.76784   0.00000  Uiso   1.00
H1255  H     0.45456   0.40595   0.76419   0.00000  Uiso   1.00
H1256  H     0.55005   0.59384   0.89886   0.00000  Uiso   1.00
N1257  N     0.50000   0.61907   0.83333   0.00000  Uiso   1.00
N1258  N     0.50000   0.38093   0.83333   0.00000  Uiso   1.00
O1259  O     0.43892   0.53821   0.83333   0.00000  Uiso   1.00
O1260  O     0.66283   0.39156   0.76769   0.00000  Uiso   1.00
O1261  O     0.39038   0.43818   0.73690   0.00000  Uiso   1.00
O1262  O     0.60373   0.61918   0.83011   0.00000  Uiso   1.00
O1263  O     0.65829   0.61517   0.77062   0.00000  Uiso   1.00
O1264  O     0.59082   0.57246   0.74846   0.00000  Uiso   1.00
O1265  O     0.60468   0.38506   0.85026   0.00000  Uiso   1.00
O1266  O     0.33689   0.39073   0.89797   0.00000  Uiso   1.00
O1267  O     0.60970   0.43721   0.92937   0.00000  Uiso   1.00
O1268  O     0.39641   0.61913   0.83741   0.00000  Uiso   1.00
O1269  O     0.34185   0.61476   0.89687   0.00000  Uiso   1.00
O1270  O     0.56108   0.46179   0.83334   0.00000  Uiso   1.00
O1271  O     0.40927   0.57187   0.91866   0.00000  Uiso   1.00
O1272  O     0.53486   0.37749   0.91447   0.00000  Uiso   1.00
O1273  O     0.46155   0.62163   0.75459   0.00000  Uiso   1.00
O1274  O     0.46523   0.37748   0.75215   0.00000  Uiso   1.00
O1275  O     0.53843   0.62165   0.91210   0.00000  Uiso   1.00
O1276  O     0.56108   0.53821   0.83334   0.00000  Uiso   1.00
O1277  O     0.43892   0.46179   0.83333   0.00000  Uiso   1.00
O1278  O     0.50000   0.53821   0.76178   0.00000  Uiso   1.00
O1279  O     0.50000   0.46179   0.90489   0.00000  Uiso   1.00
O1280  O     0.50000   0.53821   0.90489   0.00000  Uiso   1.00
O1281  O     0.50000   0.46179   0.76178   0.00000  Uiso   1.00
O1282  O     0.39513   0.38497   0.81540   0.00000  Uiso   1.00
S1283  S     0.36720   0.41666   0.78642   0.00000  Uiso   1.00
S1284  S     0.62477   0.58923   0.79420   0.00000  Uiso   1.00
S1285  S     0.63281   0.41640   0.87948   0.00000  Uiso   1.00
S1286  S     0.37533   0.58896   0.87307   0.00000  Uiso   1.00
Zn1287 Zn    0.50000   0.55104   0.83333   0.00000  Uiso   1.00
Zn1288 Zn    0.50000   0.44896   0.83333   0.00000  Uiso   1.00
C1289  C     0.75332   0.50018   0.83291   0.00000  Uiso   1.00
C1290  C     0.68756   0.54173   0.83995   0.00000  Uiso   1.00
C1291  C     0.95765   0.50112   0.83392   0.00000  Uiso   1.00
C1292  C     0.70902   0.50111   0.83264   0.00000  Uiso   1.00
C1293  C     0.85003   0.35678   0.87335   0.00000  Uiso   1.00
C1294  C     0.81565   0.64279   0.79391   0.00000  Uiso   1.00
C1295  C     0.81665   0.35677   0.79331   0.00000  Uiso   1.00
C1296  C     0.85102   0.64281   0.87276   0.00000  Uiso   1.00
C1297  C     0.91335   0.50019   0.83373   0.00000  Uiso   1.00
C1298  C     0.83318   0.50000   0.73967   0.00000  Uiso   1.00
C1299  C     0.83348   0.50000   0.92700   0.00000  Uiso   1.00
C1300  C     0.83328   0.50001   0.68849   0.00000  Uiso   1.00
C1301  C     0.83339   0.50001   0.97817   0.00000  Uiso   1.00
C1302  C     0.68644   0.46125   0.82559   0.00000  Uiso   1.00
C1303  C     0.97915   0.54178   0.82695   0.00000  Uiso   1.00
C1304  C     0.98020   0.46121   0.84056   0.00000  Uiso   1.00
H1305  H     0.72103   0.41486   0.71054   0.00000  Uiso   1.00
H1306  H     0.90897   0.59989   0.73797   0.00000  Uiso   1.00
H1307  H     0.96328   0.45820   0.94530   0.00000  Uiso   1.00
H1308  H     0.75775   0.59924   0.92946   0.00000  Uiso   1.00
H1309  H     0.87882   0.40599   0.90243   0.00000  Uiso   1.00
H1310  H     0.78324   0.59383   0.76784   0.00000  Uiso   1.00
H1311  H     0.78790   0.40595   0.76419   0.00000  Uiso   1.00
H1312  H     0.88339   0.59384   0.89886   0.00000  Uiso   1.00
N1313  N     0.83333   0.61907   0.83333   0.00000  Uiso   1.00
N1314  N     0.83333   0.38093   0.83333   0.00000  Uiso   1.00
O1315  O     0.77226   0.53821   0.83333   0.00000  Uiso   1.00
O1316  O     0.99616   0.39156   0.76769   0.00000  Uiso   1.00
O1317  O     0.72371   0.43818   0.73690   0.00000  Uiso   1.00
O1318  O     0.93707   0.61918   0.83011   0.00000  Uiso   1.00
O1319  O     0.99162   0.61517   0.77062   0.00000  Uiso   1.00
O1320  O     0.92415   0.57246   0.74846   0.00000  Uiso   1.00
O1321  O     0.93801   0.38506   0.85026   0.00000  Uiso   1.00
O1322  O     0.67023   0.39073   0.89797   0.00000  Uiso   1.00
O1323  O     0.94303   0.43721   0.92937   0.00000  Uiso   1.00
O1324  O     0.72975   0.61913   0.83741   0.00000  Uiso   1.00
O1325  O     0.67519   0.61476   0.89687   0.00000  Uiso   1.00
O1326  O     0.89441   0.46179   0.83334   0.00000  Uiso   1.00
O1327  O     0.74261   0.57187   0.91866   0.00000  Uiso   1.00
O1328  O     0.86820   0.37749   0.91447   0.00000  Uiso   1.00
O1329  O     0.79488   0.62163   0.75459   0.00000  Uiso   1.00
O1330  O     0.79856   0.37748   0.75215   0.00000  Uiso   1.00
O1331  O     0.87176   0.62165   0.91210   0.00000  Uiso   1.00
O1332  O     0.89441   0.53821   0.83334   0.00000  Uiso   1.00
O1333  O     0.77226   0.46179   0.83333   0.00000  Uiso   1.00
O1334  O     0.83334   0.53821   0.76178   0.00000  Uiso   1.00
O1335  O     0.83333   0.46179   0.90489   0.00000  Uiso   1.00
O1336  O     0.83333   0.53821   0.90489   0.00000  Uiso   1.00
O1337  O     0.83334   0.46179   0.76178   0.00000  Uiso   1.00
O1338  O     0.72846   0.38497   0.81540   0.00000  Uiso   1.00
S1339  S     0.70054   0.41666   0.78642   0.00000  Uiso   1.00
S1340  S     0.95811   0.58923   0.79420   0.00000  Uiso   1.00
S1341  S     0.96614   0.41640   0.87948   0.00000  Uiso   1.00
S1342  S     0.70867   0.58896   0.87307   0.00000  Uiso   1.00
Zn1343 Zn    0.83333   0.55104   0.83333   0.00000  Uiso   1.00
Zn1344 Zn    0.83333   0.44896   0.83333   0.00000  Uiso   1.00
C1345  C     0.08665   0.83352   0.83291   0.00000  Uiso   1.00
C1346  C     0.02089   0.87506   0.83995   0.00000  Uiso   1.00
C1347  C     0.29098   0.83446   0.83392   0.00000  Uiso   1.00
C1348  C     0.04235   0.83445   0.83264   0.00000  Uiso   1.00
C1349  C     0.18337   0.69011   0.87335   0.00000  Uiso   1.00
C1350  C     0.14898   0.97613   0.79391   0.00000  Uiso   1.00
C1351  C     0.14999   0.69010   0.79331   0.00000  Uiso   1.00
C1352  C     0.18435   0.97614   0.87276   0.00000  Uiso   1.00
C1353  C     0.24668   0.83353   0.83373   0.00000  Uiso   1.00
C1354  C     0.16652   0.83333   0.73967   0.00000  Uiso   1.00
C1355  C     0.16682   0.83334   0.92700   0.00000  Uiso   1.00
C1356  C     0.16661   0.83334   0.68849   0.00000  Uiso   1.00
C1357  C     0.16672   0.83334   0.97817   0.00000  Uiso   1.00
C1358  C     0.01977   0.79459   0.82559   0.00000  Uiso   1.00
C1359  C     0.31248   0.87511   0.82695   0.00000  Uiso   1.00
C1360  C     0.31354   0.79454   0.84056   0.00000  Uiso   1.00
H1361  H     0.05436   0.74819   0.71054   0.00000  Uiso   1.00
H1362  H     0.24230   0.93323   0.73797   0.00000  Uiso   1.00
H1363  H     0.29661   0.79153   0.94530   0.00000  Uiso   1.00
H1364  H     0.09109   0.93258   0.92946   0.00000  Uiso   1.00
H1365  H     0.21215   0.73932   0.90243   0.00000  Uiso   1.00
H1366  H     0.11657   0.92717   0.76784   0.00000  Uiso   1.00
H1367  H     0.12123   0.73929   0.76419   0.00000  Uiso   1.00
H1368  H     0.21672   0.92718   0.89886   0.00000  Uiso   1.00
N1369  N     0.16667   0.95240   0.83333   0.00000  Uiso   1.00
N1370  N     0.16667   0.71427   0.83333   0.00000  Uiso   1.00
O1371  O     0.10559   0.87154   0.83333   0.00000  Uiso   1.00
O1372  O     0.32949   0.72489   0.76769   0.00000  Uiso   1.00
O1373  O     0.05704   0.77151   0.73690   0.00000  Uiso   1.00
O1374  O     0.27040   0.95251   0.83011   0.00000  Uiso   1.00
O1375  O     0.32496   0.94850   0.77062   0.00000  Uiso   1.00
O1376  O     0.25748   0.90579   0.74846   0.00000  Uiso   1.00
O1377  O     0.27134   0.71840   0.85026   0.00000  Uiso   1.00
O1378  O     0.00356   0.72406   0.89797   0.00000  Uiso   1.00
O1379  O     0.27637   0.77055   0.92937   0.00000  Uiso   1.00
O1380  O     0.06308   0.95246   0.83741   0.00000  Uiso   1.00
O1381  O     0.00852   0.94810   0.89687   0.00000  Uiso   1.00
O1382  O     0.22774   0.79513   0.83334   0.00000  Uiso   1.00
O1383  O     0.07594   0.90520   0.91866   0.00000  Uiso   1.00
O1384  O     0.20153   0.71083   0.91447   0.00000  Uiso   1.00
O1385  O     0.12821   0.95497   0.75459   0.00000  Uiso   1.00
O1386  O     0.13189   0.71081   0.75215   0.00000  Uiso   1.00
O1387  O     0.20510   0.95499   0.91210   0.00000  Uiso   1.00
O1388  O     0.22774   0.87154   0.83334   0.00000  Uiso   1.00
O1389  O     0.10559   0.79513   0.83333   0.00000  Uiso   1.00
O1390  O     0.16667   0.87155   0.76178   0.00000  Uiso   1.00
O1391  O     0.16666   0.79512   0.90489   0.00000  Uiso   1.00
O1392  O     0.16666   0.87155   0.90489   0.00000  Uiso   1.00
O1393  O     0.16667   0.79512   0.76178   0.00000  Uiso   1.00
O1394  O     0.06179   0.71830   0.81540   0.00000  Uiso   1.00
S1395  S     0.03387   0.75000   0.78642   0.00000  Uiso   1.00
S1396  S     0.29144   0.92257   0.79420   0.00000  Uiso   1.00
S1397  S     0.29947   0.74973   0.87948   0.00000  Uiso   1.00
S1398  S     0.04200   0.92230   0.87307   0.00000  Uiso   1.00
Zn1399 Zn    0.16667   0.88437   0.83333   0.00000  Uiso   1.00
Zn1400 Zn    0.16667   0.78229   0.83333   0.00000  Uiso   1.00
C1401  C     0.41999   0.83352   0.83291   0.00000  Uiso   1.00
C1402  C     0.35423   0.87506   0.83995   0.00000  Uiso   1.00
C1403  C     0.62432   0.83446   0.83392   0.00000  Uiso   1.00
C1404  C     0.37569   0.83445   0.83264   0.00000  Uiso   1.00
C1405  C     0.51670   0.69011   0.87335   0.00000  Uiso   1.00
C1406  C     0.48232   0.97613   0.79391   0.00000  Uiso   1.00
C1407  C     0.48332   0.69010   0.79331   0.00000  Uiso   1.00
C1408  C     0.51768   0.97614   0.87276   0.00000  Uiso   1.00
C1409  C     0.58002   0.83353   0.83373   0.00000  Uiso   1.00
C1410  C     0.49985   0.83333   0.73967   0.00000  Uiso   1.00
C1411  C     0.50015   0.83334   0.92700   0.00000  Uiso   1.00
C1412  C     0.49994   0.83334   0.68849   0.00000  Uiso   1.00
C1413  C     0.50006   0.83334   0.97817   0.00000  Uiso   1.00
C1414  C     0.35310   0.79459   0.82559   0.00000  Uiso   1.00
C1415  C     0.64582   0.87511   0.82695   0.00000  Uiso   1.00
C1416  C     0.64687   0.79454   0.84056   0.00000  Uiso   1.00
H1417  H     0.38770   0.74819   0.71054   0.00000  Uiso   1.00
H1418  H     0.57563   0.93323   0.73797   0.00000  Uiso   1.00
H1419  H     0.62995   0.79153   0.94530   0.00000  Uiso   1.00
H1420  H     0.42442   0.93258   0.92946   0.00000  Uiso   1.00
H1421  H     0.54548   0.73932   0.90243   0.00000  Uiso   1.00
H1422  H     0.44991   0.92717   0.76784   0.00000  Uiso   1.00
H1423  H     0.45456   0.73929   0.76419   0.00000  Uiso   1.00
H1424  H     0.55005   0.92718   0.89886   0.00000  Uiso   1.00
N1425  N     0.50000   0.95240   0.83333   0.00000  Uiso   1.00
N1426  N     0.50000   0.71427   0.83333   0.00000  Uiso   1.00
O1427  O     0.43892   0.87154   0.83333   0.00000  Uiso   1.00
O1428  O     0.66283   0.72489   0.76769   0.00000  Uiso   1.00
O1429  O     0.39038   0.77151   0.73690   0.00000  Uiso   1.00
O1430  O     0.60373   0.95251   0.83011   0.00000  Uiso   1.00
O1431  O     0.65829   0.94850   0.77062   0.00000  Uiso   1.00
O1432  O     0.59082   0.90579   0.74846   0.00000  Uiso   1.00
O1433  O     0.60468   0.71840   0.85026   0.00000  Uiso   1.00
O1434  O     0.33689   0.72406   0.89797   0.00000  Uiso   1.00
O1435  O     0.60970   0.77055   0.92937   0.00000  Uiso   1.00
O1436  O     0.39641   0.95246   0.83741   0.00000  Uiso   1.00
O1437  O     0.34185   0.94810   0.89687   0.00000  Uiso   1.00
O1438  O     0.56108   0.79513   0.83334   0.00000  Uiso   1.00
O1439  O     0.40927   0.90520   0.91866   0.00000  Uiso   1.00
O1440  O     0.53486   0.71083   0.91447   0.00000  Uiso   1.00
O1441  O     0.46155   0.95497   0.75459   0.00000  Uiso   1.00
O1442  O     0.46523   0.71081   0.75215   0.00000  Uiso   1.00
O1443  O     0.53843   0.95499   0.91210   0.00000  Uiso   1.00
O1444  O     0.56108   0.87154   0.83334   0.00000  Uiso   1.00
O1445  O     0.43892   0.79513   0.83333   0.00000  Uiso   1.00
O1446  O     0.50000   0.87155   0.76178   0.00000  Uiso   1.00
O1447  O     0.50000   0.79512   0.90489   0.00000  Uiso   1.00
O1448  O     0.50000   0.87155   0.90489   0.00000  Uiso   1.00
O1449  O     0.50000   0.79512   0.76178   0.00000  Uiso   1.00
O1450  O     0.39513   0.71830   0.81540   0.00000  Uiso   1.00
S1451  S     0.36720   0.75000   0.78642   0.00000  Uiso   1.00
S1452  S     0.62477   0.92257   0.79420   0.00000  Uiso   1.00
S1453  S     0.63281   0.74973   0.87948   0.00000  Uiso   1.00
S1454  S     0.37533   0.92230   0.87307   0.00000  Uiso   1.00
Zn1455 Zn    0.50000   0.88437   0.83333   0.00000  Uiso   1.00
Zn1456 Zn    0.50000   0.78229   0.83333   0.00000  Uiso   1.00
C1457  C     0.75332   0.83352   0.83291   0.00000  Uiso   1.00
C1458  C     0.68756   0.87506   0.83995   0.00000  Uiso   1.00
C1459  C     0.95765   0.83446   0.83392   0.00000  Uiso   1.00
C1460  C     0.70902   0.83445   0.83264   0.00000  Uiso   1.00
C1461  C     0.85003   0.69011   0.87335   0.00000  Uiso   1.00
C1462  C     0.81565   0.97613   0.79391   0.00000  Uiso   1.00
C1463  C     0.81665   0.69010   0.79331   0.00000  Uiso   1.00
C1464  C     0.85102   0.97614   0.87276   0.00000  Uiso   1.00
C1465  C     0.91335   0.83353   0.83373   0.00000  Uiso   1.00
C1466  C     0.83318   0.83333   0.73967   0.00000  Uiso   1.00
C1467  C     0.83348   0.83334   0.92700   0.00000  Uiso   1.00
C1468  C     0.83328   0.83334   0.68849   0.00000  Uiso   1.00
C1469  C     0.83339   0.83334   0.97817   0.00000  Uiso   1.00
C1470  C     0.68644   0.79459   0.82559   0.00000  Uiso   1.00
C1471  C     0.97915   0.87511   0.82695   0.00000  Uiso   1.00
C1472  C     0.98020   0.79454   0.84056   0.00000  Uiso   1.00
H1473  H     0.72103   0.74819   0.71054   0.00000  Uiso   1.00
H1474  H     0.90897   0.93323   0.73797   0.00000  Uiso   1.00
H1475  H     0.96328   0.79153   0.94530   0.00000  Uiso   1.00
H1476  H     0.75775   0.93258   0.92946   0.00000  Uiso   1.00
H1477  H     0.87882   0.73932   0.90243   0.00000  Uiso   1.00
H1478  H     0.78324   0.92717   0.76784   0.00000  Uiso   1.00
H1479  H     0.78790   0.73929   0.76419   0.00000  Uiso   1.00
H1480  H     0.88339   0.92718   0.89886   0.00000  Uiso   1.00
N1481  N     0.83333   0.95240   0.83333   0.00000  Uiso   1.00
N1482  N     0.83333   0.71427   0.83333   0.00000  Uiso   1.00
O1483  O     0.77226   0.87154   0.83333   0.00000  Uiso   1.00
O1484  O     0.99616   0.72489   0.76769   0.00000  Uiso   1.00
O1485  O     0.72371   0.77151   0.73690   0.00000  Uiso   1.00
O1486  O     0.93707   0.95251   0.83011   0.00000  Uiso   1.00
O1487  O     0.99162   0.94850   0.77062   0.00000  Uiso   1.00
O1488  O     0.92415   0.90579   0.74846   0.00000  Uiso   1.00
O1489  O     0.93801   0.71840   0.85026   0.00000  Uiso   1.00
O1490  O     0.67023   0.72406   0.89797   0.00000  Uiso   1.00
O1491  O     0.94303   0.77055   0.92937   0.00000  Uiso   1.00
O1492  O     0.72975   0.95246   0.83741   0.00000  Uiso   1.00
O1493  O     0.67519   0.94810   0.89687   0.00000  Uiso   1.00
O1494  O     0.89441   0.79513   0.83334   0.00000  Uiso   1.00
O1495  O     0.74261   0.90520   0.91866   0.00000  Uiso   1.00
O1496  O     0.86820   0.71083   0.91447   0.00000  Uiso   1.00
O1497  O     0.79488   0.95497   0.75459   0.00000  Uiso   1.00
O1498  O     0.79856   0.71081   0.75215   0.00000  Uiso   1.00
O1499  O     0.87176   0.95499   0.91210   0.00000  Uiso   1.00
O1500  O     0.89441   0.87154   0.83334   0.00000  Uiso   1.00
O1501  O     0.77226   0.79513   0.83333   0.00000  Uiso   1.00
O1502  O     0.83334   0.87155   0.76178   0.00000  Uiso   1.00
O1503  O     0.83333   0.79512   0.90489   0.00000  Uiso   1.00
O1504  O     0.83333   0.87155   0.90489   0.00000  Uiso   1.00
O1505  O     0.83334   0.79512   0.76178   0.00000  Uiso   1.00
O1506  O     0.72846   0.71830   0.81540   0.00000  Uiso   1.00
S1507  S     0.70054   0.75000   0.78642   0.00000  Uiso   1.00
S1508  S     0.95811   0.92257   0.79420   0.00000  Uiso   1.00
S1509  S     0.96614   0.74973   0.87948   0.00000  Uiso   1.00
S1510  S     0.70867   0.92230   0.87307   0.00000  Uiso   1.00
Zn1511 Zn    0.83333   0.88437   0.83333   0.00000  Uiso   1.00
Zn1512 Zn    0.83333   0.78229   0.83333   0.00000  Uiso   1.00
loop_
_geom_bond_atom_site_label_1
_geom_bond_atom_site_label_2
_geom_bond_distance
_geom_bond_site_symmetry_2
_ccdc_geom_bond_type
C1     C4      1.444   .     S
C1     O45     1.302   .     A
C1     O27     1.292   .     A
C2     C4      1.419   .     A
C2     S54     1.785   .     S
C2     C127    1.388   1_455 S
C3     C9      1.445   .     S
C3     C15     1.419   .     A
C3     C16     1.408   .     A
C4     C14     1.408   .     A
C5     N26     1.379   .     A
C5     O40     1.369   .     S
C5     C344    1.414   1_545 S
C6     N25     1.372   .     A
C6     O41     1.374   .     S
C6     C175    1.414   .     S
C7     O42     1.368   .     S
C7     N26     1.378   .     A
C7     C342    1.414   1_545 S
C8     O43     1.374   .     S
C8     N25     1.372   .     A
C8     C173    1.414   .     S
C9     O38     1.302   .     A
C9     O44     1.292   .     A
C10    O46     1.285   .     A
C10    C12     1.366   .     S
C10    O49     1.285   .     A
C11    O47     1.285   .     A
C11    O48     1.285   .     A
C11    C13     1.366   .     S
C12    C1021   1.165   1_554 S
C13    C516    1.165   .     S
C14    S51     1.768   .     S
C14    C128    1.369   1_455 S
C15    S52     1.785   .     S
C15    C58     1.388   .     S
C16    S53     1.769   .     S
C16    C70     1.369   .     S
H17    O29     0.991   .     S
H18    O32     0.991   .     S
H19    O35     0.991   .     S
H20    O39     0.991   .     S
H21    O40     0.979   .     S
H22    O41     0.986   .     S
H23    O42     0.979   .     S
H24    O43     0.986   .     S
N25    Zn55    2.032   .     S
N26    Zn56    2.032   .     S
O27    Zn55    2.028   .     S
O28    S107    1.504   .     S
O29    S51     1.682   .     S
O30    S52     1.502   .     D
O31    S52     1.503   .     D
O32    S52     1.683   .     S
O33    S53     1.501   .     D
O34    S165    1.504   1_455 S
O35    S53     1.682   .     S
O36    S54     1.502   .     D
O37    S54     1.503   .     D
O38    Zn56    2.028   .     S
O39    S54     1.683   .     S
O44    Zn55    2.028   .     S
O45    Zn56    2.028   .     S
O46    Zn55    1.948   .     S
O47    Zn56    1.948   .     S
O48    Zn55    1.948   .     S
O49    Zn56    1.948   .     S
O50    S51     1.501   .     D
S51    O140    1.504   1_455 S
S53    O90     1.504   .     S
C57    C60     1.444   .     S
C57    O101    1.302   .     A
C57    O83     1.292   .     A
C58    C60     1.419   .     A
C58    S110    1.785   .     S
C59    C65     1.445   .     S
C59    C71     1.419   .     A
C59    C72     1.408   .     A
C60    C70     1.408   .     A
C61    N82     1.379   .     A
C61    O96     1.369   .     S
C61    C400    1.414   1_545 S
C62    N81     1.372   .     A
C62    O97     1.374   .     S
C62    C231    1.414   .     S
C63    O98     1.368   .     S
C63    N82     1.378   .     A
C63    C398    1.414   1_545 S
C64    O99     1.374   .     S
C64    N81     1.372   .     A
C64    C229    1.414   .     S
C65    O94     1.302   .     A
C65    O100    1.292   .     A
C66    O102    1.285   .     A
C66    C68     1.366   .     S
C66    O105    1.285   .     A
C67    O103    1.285   .     A
C67    O104    1.285   .     A
C67    C69     1.366   .     S
C68    C1077   1.165   1_554 S
C69    C572    1.165   .     S
C70    S107    1.768   .     S
C71    S108    1.785   .     S
C71    C114    1.388   .     S
C72    S109    1.769   .     S
C72    C126    1.369   .     S
H73    O85     0.991   .     S
H74    O88     0.991   .     S
H75    O91     0.991   .     S
H76    O95     0.991   .     S
H77    O96     0.979   .     S
H78    O97     0.986   .     S
H79    O98     0.979   .     S
H80    O99     0.986   .     S
N81    Zn111   2.032   .     S
N82    Zn112   2.032   .     S
O83    Zn111   2.028   .     S
O84    S163    1.504   .     S
O85    S107    1.682   .     S
O86    S108    1.502   .     D
O87    S108    1.503   .     D
O88    S108    1.683   .     S
O89    S109    1.501   .     D
O91    S109    1.682   .     S
O92    S110    1.502   .     D
O93    S110    1.503   .     D
O94    Zn112   2.028   .     S
O95    S110    1.683   .     S
O100   Zn111   2.028   .     S
O101   Zn112   2.028   .     S
O102   Zn111   1.948   .     S
O103   Zn112   1.948   .     S
O104   Zn111   1.948   .     S
O105   Zn112   1.948   .     S
O106   S107    1.501   .     D
S109   O146    1.504   .     S
C113   C116    1.444   .     S
C113   O157    1.302   .     A
C113   O139    1.292   .     A
C114   C116    1.419   .     A
C114   S166    1.785   .     S
C115   C121    1.445   .     S
C115   C127    1.419   .     A
C115   C128    1.408   .     A
C116   C126    1.408   .     A
C117   N138    1.379   .     A
C117   O152    1.369   .     S
C117   C456    1.414   1_545 S
C118   N137    1.372   .     A
C118   O153    1.374   .     S
C118   C287    1.414   .     S
C119   O154    1.368   .     S
C119   N138    1.378   .     A
C119   C454    1.414   1_545 S
C120   O155    1.374   .     S
C120   N137    1.372   .     A
C120   C285    1.414   .     S
C121   O150    1.302   .     A
C121   O156    1.292   .     A
C122   O158    1.285   .     A
C122   C124    1.366   .     S
C122   O161    1.285   .     A
C123   O159    1.285   .     A
C123   O160    1.285   .     A
C123   C125    1.366   .     S
C124   C1133   1.165   1_554 S
C125   C628    1.165   .     S
C126   S163    1.768   .     S
C127   S164    1.785   .     S
C127   C2      1.388   1_655 S
C128   S165    1.769   .     S
C128   C14     1.369   1_655 S
H129   O141    0.991   .     S
H130   O144    0.991   .     S
H131   O147    0.991   .     S
H132   O151    0.991   .     S
H133   O152    0.979   .     S
H134   O153    0.986   .     S
H135   O154    0.979   .     S
H136   O155    0.986   .     S
N137   Zn167   2.032   .     S
N138   Zn168   2.032   .     S
O139   Zn167   2.028   .     S
O140   S51     1.504   1_655 S
O141   S163    1.682   .     S
O142   S164    1.502   .     D
O143   S164    1.503   .     D
O144   S164    1.683   .     S
O145   S165    1.501   .     D
O147   S165    1.682   .     S
O148   S166    1.502   .     D
O149   S166    1.503   .     D
O150   Zn168   2.028   .     S
O151   S166    1.683   .     S
O156   Zn167   2.028   .     S
O157   Zn168   2.028   .     S
O158   Zn167   1.948   .     S
O159   Zn168   1.948   .     S
O160   Zn167   1.948   .     S
O161   Zn168   1.948   .     S
O162   S163    1.501   .     D
S165   O34     1.504   1_655 S
C169   C172    1.444   .     S
C169   O213    1.302   .     A
C169   O195    1.292   .     A
C170   C172    1.419   .     A
C170   S222    1.785   .     S
C170   C295    1.388   1_455 S
C171   C177    1.445   .     S
C171   C183    1.419   .     A
C171   C184    1.408   .     A
C172   C182    1.408   .     A
C173   N194    1.379   .     A
C173   O208    1.369   .     S
C174   N193    1.372   .     A
C174   O209    1.374   .     S
C174   C343    1.414   .     S
C175   O210    1.368   .     S
C175   N194    1.378   .     A
C176   O211    1.374   .     S
C176   N193    1.372   .     A
C176   C341    1.414   .     S
C177   O206    1.302   .     A
C177   O212    1.292   .     A
C178   O214    1.285   .     A
C178   C180    1.366   .     S
C178   O217    1.285   .     A
C179   O215    1.285   .     A
C179   O216    1.285   .     A
C179   C181    1.366   .     S
C180   C1189   1.165   1_554 S
C181   C684    1.165   .     S
C182   S219    1.768   .     S
C182   C296    1.369   1_455 S
C183   S220    1.785   .     S
C183   C226    1.388   .     S
C184   S221    1.769   .     S
C184   C238    1.369   .     S
H185   O197    0.991   .     S
H186   O200    0.991   .     S
H187   O203    0.991   .     S
H188   O207    0.991   .     S
H189   O208    0.979   .     S
H190   O209    0.986   .     S
H191   O210    0.979   .     S
H192   O211    0.986   .     S
N193   Zn223   2.032   .     S
N194   Zn224   2.032   .     S
O195   Zn223   2.028   .     S
O196   S275    1.504   .     S
O197   S219    1.682   .     S
O198   S220    1.502   .     D
O199   S220    1.503   .     D
O200   S220    1.683   .     S
O201   S221    1.501   .     D
O202   S333    1.504   1_455 S
O203   S221    1.682   .     S
O204   S222    1.502   .     D
O205   S222    1.503   .     D
O206   Zn224   2.028   .     S
O207   S222    1.683   .     S
O212   Zn223   2.028   .     S
O213   Zn224   2.028   .     S
O214   Zn223   1.948   .     S
O215   Zn224   1.948   .     S
O216   Zn223   1.948   .     S
O217   Zn224   1.948   .     S
O218   S219    1.501   .     D
S219   O308    1.504   1_455 S
S221   O258    1.504   .     S
C225   C228    1.444   .     S
C225   O269    1.302   .     A
C225   O251    1.292   .     A
C226   C228    1.419   .     A
C226   S278    1.785   .     S
C227   C233    1.445   .     S
C227   C239    1.419   .     A
C227   C240    1.408   .     A
C228   C238    1.408   .     A
C229   N250    1.379   .     A
C229   O264    1.369   .     S
C230   N249    1.372   .     A
C230   O265    1.374   .     S
C230   C399    1.414   .     S
C231   O266    1.368   .     S
C231   N250    1.378   .     A
C232   O267    1.374   .     S
C232   N249    1.372   .     A
C232   C397    1.414   .     S
C233   O262    1.302   .     A
C233   O268    1.292   .     A
C234   O270    1.285   .     A
C234   C236    1.366   .     S
C234   O273    1.285   .     A
C235   O271    1.285   .     A
C235   O272    1.285   .     A
C235   C237    1.366   .     S
C236   C1245   1.165   1_554 S
C237   C740    1.165   .     S
C238   S275    1.768   .     S
C239   S276    1.785   .     S
C239   C282    1.388   .     S
C240   S277    1.769   .     S
C240   C294    1.369   .     S
H241   O253    0.991   .     S
H242   O256    0.991   .     S
H243   O259    0.991   .     S
H244   O263    0.991   .     S
H245   O264    0.979   .     S
H246   O265    0.986   .     S
H247   O266    0.979   .     S
H248   O267    0.986   .     S
N249   Zn279   2.032   .     S
N250   Zn280   2.032   .     S
O251   Zn279   2.028   .     S
O252   S331    1.504   .     S
O253   S275    1.682   .     S
O254   S276    1.502   .     D
O255   S276    1.503   .     D
O256   S276    1.683   .     S
O257   S277    1.501   .     D
O259   S277    1.682   .     S
O260   S278    1.502   .     D
O261   S278    1.503   .     D
O262   Zn280   2.028   .     S
O263   S278    1.683   .     S
O268   Zn279   2.028   .     S
O269   Zn280   2.028   .     S
O270   Zn279   1.948   .     S
O271   Zn280   1.948   .     S
O272   Zn279   1.948   .     S
O273   Zn280   1.948   .     S
O274   S275    1.501   .     D
S277   O314    1.504   .     S
C281   C284    1.444   .     S
C281   O325    1.302   .     A
C281   O307    1.292   .     A
C282   C284    1.419   .     A
C282   S334    1.785   .     S
C283   C289    1.445   .     S
C283   C295    1.419   .     A
C283   C296    1.408   .     A
C284   C294    1.408   .     A
C285   N306    1.379   .     A
C285   O320    1.369   .     S
C286   N305    1.372   .     A
C286   O321    1.374   .     S
C286   C455    1.414   .     S
C287   O322    1.368   .     S
C287   N306    1.378   .     A
C288   O323    1.374   .     S
C288   N305    1.372   .     A
C288   C453    1.414   .     S
C289   O318    1.302   .     A
C289   O324    1.292   .     A
C290   O326    1.285   .     A
C290   C292    1.366   .     S
C290   O329    1.285   .     A
C291   O327    1.285   .     A
C291   O328    1.285   .     A
C291   C293    1.366   .     S
C292   C1301   1.165   1_554 S
C293   C796    1.165   .     S
C294   S331    1.768   .     S
C295   S332    1.785   .     S
C295   C170    1.388   1_655 S
C296   S333    1.769   .     S
C296   C182    1.369   1_655 S
H297   O309    0.991   .     S
H298   O312    0.991   .     S
H299   O315    0.991   .     S
H300   O319    0.991   .     S
H301   O320    0.979   .     S
H302   O321    0.986   .     S
H303   O322    0.979   .     S
H304   O323    0.986   .     S
N305   Zn335   2.032   .     S
N306   Zn336   2.032   .     S
O307   Zn335   2.028   .     S
O308   S219    1.504   1_655 S
O309   S331    1.682   .     S
O310   S332    1.502   .     D
O311   S332    1.503   .     D
O312   S332    1.683   .     S
O313   S333    1.501   .     D
O315   S333    1.682   .     S
O316   S334    1.502   .     D
O317   S334    1.503   .     D
O318   Zn336   2.028   .     S
O319   S334    1.683   .     S
O324   Zn335   2.028   .     S
O325   Zn336   2.028   .     S
O326   Zn335   1.948   .     S
O327   Zn336   1.948   .     S
O328   Zn335   1.948   .     S
O329   Zn336   1.948   .     S
O330   S331    1.501   .     D
S333   O202    1.504   1_655 S
C337   C340    1.444   .     S
C337   O381    1.302   .     A
C337   O363    1.292   .     A
C338   C340    1.419   .     A
C338   S390    1.785   .     S
C338   C463    1.388   1_455 S
C339   C345    1.445   .     S
C339   C351    1.419   .     A
C339   C352    1.408   .     A
C340   C350    1.408   .     A
C341   N362    1.379   .     A
C341   O376    1.369   .     S
C342   N361    1.372   .     A
C342   O377    1.374   .     S
C342   C7      1.414   1_565 S
C343   O378    1.368   .     S
C343   N362    1.378   .     A
C344   O379    1.374   .     S
C344   N361    1.372   .     A
C344   C5      1.414   1_565 S
C345   O374    1.302   .     A
C345   O380    1.292   .     A
C346   O382    1.285   .     A
C346   C348    1.366   .     S
C346   O385    1.285   .     A
C347   O383    1.285   .     A
C347   O384    1.285   .     A
C347   C349    1.366   .     S
C348   C1357   1.165   1_554 S
C349   C852    1.165   .     S
C350   S387    1.768   .     S
C350   C464    1.369   1_455 S
C351   S388    1.785   .     S
C351   C394    1.388   .     S
C352   S389    1.769   .     S
C352   C406    1.369   .     S
H353   O365    0.991   .     S
H354   O368    0.991   .     S
H355   O371    0.991   .     S
H356   O375    0.991   .     S
H357   O376    0.979   .     S
H358   O377    0.986   .     S
H359   O378    0.979   .     S
H360   O379    0.986   .     S
N361   Zn391   2.032   .     S
N362   Zn392   2.032   .     S
O363   Zn391   2.028   .     S
O364   S443    1.504   .     S
O365   S387    1.682   .     S
O366   S388    1.502   .     D
O367   S388    1.503   .     D
O368   S388    1.683   .     S
O369   S389    1.501   .     D
O370   S501    1.504   1_455 S
O371   S389    1.682   .     S
O372   S390    1.502   .     D
O373   S390    1.503   .     D
O374   Zn392   2.028   .     S
O375   S390    1.683   .     S
O380   Zn391   2.028   .     S
O381   Zn392   2.028   .     S
O382   Zn391   1.948   .     S
O383   Zn392   1.948   .     S
O384   Zn391   1.948   .     S
O385   Zn392   1.948   .     S
O386   S387    1.501   .     D
S387   O476    1.504   1_455 S
S389   O426    1.504   .     S
C393   C396    1.444   .     S
C393   O437    1.302   .     A
C393   O419    1.292   .     A
C394   C396    1.419   .     A
C394   S446    1.785   .     S
C395   C401    1.445   .     S
C395   C407    1.419   .     A
C395   C408    1.408   .     A
C396   C406    1.408   .     A
C397   N418    1.379   .     A
C397   O432    1.369   .     S
C398   N417    1.372   .     A
C398   O433    1.374   .     S
C398   C63     1.414   1_565 S
C399   O434    1.368   .     S
C399   N418    1.378   .     A
C400   O435    1.374   .     S
C400   N417    1.372   .     A
C400   C61     1.414   1_565 S
C401   O430    1.302   .     A
C401   O436    1.292   .     A
C402   O438    1.285   .     A
C402   C404    1.366   .     S
C402   O441    1.285   .     A
C403   O439    1.285   .     A
C403   O440    1.285   .     A
C403   C405    1.366   .     S
C404   C1413   1.165   1_554 S
C405   C908    1.165   .     S
C406   S443    1.768   .     S
C407   S444    1.785   .     S
C407   C450    1.388   .     S
C408   S445    1.769   .     S
C408   C462    1.369   .     S
H409   O421    0.991   .     S
H410   O424    0.991   .     S
H411   O427    0.991   .     S
H412   O431    0.991   .     S
H413   O432    0.979   .     S
H414   O433    0.986   .     S
H415   O434    0.979   .     S
H416   O435    0.986   .     S
N417   Zn447   2.032   .     S
N418   Zn448   2.032   .     S
O419   Zn447   2.028   .     S
O420   S499    1.504   .     S
O421   S443    1.682   .     S
O422   S444    1.502   .     D
O423   S444    1.503   .     D
O424   S444    1.683   .     S
O425   S445    1.501   .     D
O427   S445    1.682   .     S
O428   S446    1.502   .     D
O429   S446    1.503   .     D
O430   Zn448   2.028   .     S
O431   S446    1.683   .     S
O436   Zn447   2.028   .     S
O437   Zn448   2.028   .     S
O438   Zn447   1.948   .     S
O439   Zn448   1.948   .     S
O440   Zn447   1.948   .     S
O441   Zn448   1.948   .     S
O442   S443    1.501   .     D
S445   O482    1.504   .     S
C449   C452    1.444   .     S
C449   O493    1.302   .     A
C449   O475    1.292   .     A
C450   C452    1.419   .     A
C450   S502    1.785   .     S
C451   C457    1.445   .     S
C451   C463    1.419   .     A
C451   C464    1.408   .     A
C452   C462    1.408   .     A
C453   N474    1.379   .     A
C453   O488    1.369   .     S
C454   N473    1.372   .     A
C454   O489    1.374   .     S
C454   C119    1.414   1_565 S
C455   O490    1.368   .     S
C455   N474    1.378   .     A
C456   O491    1.374   .     S
C456   N473    1.372   .     A
C456   C117    1.414   1_565 S
C457   O486    1.302   .     A
C457   O492    1.292   .     A
C458   O494    1.285   .     A
C458   C460    1.366   .     S
C458   O497    1.285   .     A
C459   O495    1.285   .     A
C459   O496    1.285   .     A
C459   C461    1.366   .     S
C460   C1469   1.165   1_554 S
C461   C964    1.165   .     S
C462   S499    1.768   .     S
C463   S500    1.785   .     S
C463   C338    1.388   1_655 S
C464   S501    1.769   .     S
C464   C350    1.369   1_655 S
H465   O477    0.991   .     S
H466   O480    0.991   .     S
H467   O483    0.991   .     S
H468   O487    0.991   .     S
H469   O488    0.979   .     S
H470   O489    0.986   .     S
H471   O490    0.979   .     S
H472   O491    0.986   .     S
N473   Zn503   2.032   .     S
N474   Zn504   2.032   .     S
O475   Zn503   2.028   .     S
O476   S387    1.504   1_655 S
O477   S499    1.682   .     S
O478   S500    1.502   .     D
O479   S500    1.503   .     D
O480   S500    1.683   .     S
O481   S501    1.501   .     D
O483   S501    1.682   .     S
O484   S502    1.502   .     D
O485   S502    1.503   .     D
O486   Zn504   2.028   .     S
O487   S502    1.683   .     S
O492   Zn503   2.028   .     S
O493   Zn504   2.028   .     S
O494   Zn503   1.948   .     S
O495   Zn504   1.948   .     S
O496   Zn503   1.948   .     S
O497   Zn504   1.948   .     S
O498   S499    1.501   .     D
S501   O370    1.504   1_655 S
C505   C508    1.444   .     S
C505   O549    1.302   .     A
C505   O531    1.292   .     A
C506   C508    1.419   .     A
C506   S558    1.785   .     S
C506   C631    1.388   1_455 S
C507   C513    1.445   .     S
C507   C519    1.419   .     A
C507   C520    1.408   .     A
C508   C518    1.408   .     A
C509   N530    1.379   .     A
C509   O544    1.369   .     S
C509   C848    1.414   1_545 S
C510   N529    1.372   .     A
C510   O545    1.374   .     S
C510   C679    1.414   .     S
C511   O546    1.368   .     S
C511   N530    1.378   .     A
C511   C846    1.414   1_545 S
C512   O547    1.374   .     S
C512   N529    1.372   .     A
C512   C677    1.414   .     S
C513   O542    1.302   .     A
C513   O548    1.292   .     A
C514   O550    1.285   .     A
C514   C516    1.366   .     S
C514   O553    1.285   .     A
C515   O551    1.285   .     A
C515   O552    1.285   .     A
C515   C517    1.366   .     S
C517   C1020   1.165   .     S
C518   S555    1.768   .     S
C518   C632    1.369   1_455 S
C519   S556    1.785   .     S
C519   C562    1.388   .     S
C520   S557    1.769   .     S
C520   C574    1.369   .     S
H521   O533    0.991   .     S
H522   O536    0.991   .     S
H523   O539    0.991   .     S
H524   O543    0.991   .     S
H525   O544    0.979   .     S
H526   O545    0.986   .     S
H527   O546    0.979   .     S
H528   O547    0.986   .     S
N529   Zn559   2.032   .     S
N530   Zn560   2.032   .     S
O531   Zn559   2.028   .     S
O532   S611    1.504   .     S
O533   S555    1.682   .     S
O534   S556    1.502   .     D
O535   S556    1.503   .     D
O536   S556    1.683   .     S
O537   S557    1.501   .     D
O538   S669    1.504   1_455 S
O539   S557    1.682   .     S
O540   S558    1.502   .     D
O541   S558    1.503   .     D
O542   Zn560   2.028   .     S
O543   S558    1.683   .     S
O548   Zn559   2.028   .     S
O549   Zn560   2.028   .     S
O550   Zn559   1.948   .     S
O551   Zn560   1.948   .     S
O552   Zn559   1.948   .     S
O553   Zn560   1.948   .     S
O554   S555    1.501   .     D
S555   O644    1.504   1_455 S
S557   O594    1.504   .     S
C561   C564    1.444   .     S
C561   O605    1.302   .     A
C561   O587    1.292   .     A
C562   C564    1.419   .     A
C562   S614    1.785   .     S
C563   C569    1.445   .     S
C563   C575    1.419   .     A
C563   C576    1.408   .     A
C564   C574    1.408   .     A
C565   N586    1.379   .     A
C565   O600    1.369   .     S
C565   C904    1.414   1_545 S
C566   N585    1.372   .     A
C566   O601    1.374   .     S
C566   C735    1.414   .     S
C567   O602    1.368   .     S
C567   N586    1.378   .     A
C567   C902    1.414   1_545 S
C568   O603    1.374   .     S
C568   N585    1.372   .     A
C568   C733    1.414   .     S
C569   O598    1.302   .     A
C569   O604    1.292   .     A
C570   O606    1.285   .     A
C570   C572    1.366   .     S
C570   O609    1.285   .     A
C571   O607    1.285   .     A
C571   O608    1.285   .     A
C571   C573    1.366   .     S
C573   C1076   1.165   .     S
C574   S611    1.768   .     S
C575   S612    1.785   .     S
C575   C618    1.388   .     S
C576   S613    1.769   .     S
C576   C630    1.369   .     S
H577   O589    0.991   .     S
H578   O592    0.991   .     S
H579   O595    0.991   .     S
H580   O599    0.991   .     S
H581   O600    0.979   .     S
H582   O601    0.986   .     S
H583   O602    0.979   .     S
H584   O603    0.986   .     S
N585   Zn615   2.032   .     S
N586   Zn616   2.032   .     S
O587   Zn615   2.028   .     S
O588   S667    1.504   .     S
O589   S611    1.682   .     S
O590   S612    1.502   .     D
O591   S612    1.503   .     D
O592   S612    1.683   .     S
O593   S613    1.501   .     D
O595   S613    1.682   .     S
O596   S614    1.502   .     D
O597   S614    1.503   .     D
O598   Zn616   2.028   .     S
O599   S614    1.683   .     S
O604   Zn615   2.028   .     S
O605   Zn616   2.028   .     S
O606   Zn615   1.948   .     S
O607   Zn616   1.948   .     S
O608   Zn615   1.948   .     S
O609   Zn616   1.948   .     S
O610   S611    1.501   .     D
S613   O650    1.504   .     S
C617   C620    1.444   .     S
C617   O661    1.302   .     A
C617   O643    1.292   .     A
C618   C620    1.419   .     A
C618   S670    1.785   .     S
C619   C625    1.445   .     S
C619   C631    1.419   .     A
C619   C632    1.408   .     A
C620   C630    1.408   .     A
C621   N642    1.379   .     A
C621   O656    1.369   .     S
C621   C960    1.414   1_545 S
C622   N641    1.372   .     A
C622   O657    1.374   .     S
C622   C791    1.414   .     S
C623   O658    1.368   .     S
C623   N642    1.378   .     A
C623   C958    1.414   1_545 S
C624   O659    1.374   .     S
C624   N641    1.372   .     A
C624   C789    1.414   .     S
C625   O654    1.302   .     A
C625   O660    1.292   .     A
C626   O662    1.285   .     A
C626   C628    1.366   .     S
C626   O665    1.285   .     A
C627   O663    1.285   .     A
C627   O664    1.285   .     A
C627   C629    1.366   .     S
C629   C1132   1.165   .     S
C630   S667    1.768   .     S
C631   S668    1.785   .     S
C631   C506    1.388   1_655 S
C632   S669    1.769   .     S
C632   C518    1.369   1_655 S
H633   O645    0.991   .     S
H634   O648    0.991   .     S
H635   O651    0.991   .     S
H636   O655    0.991   .     S
H637   O656    0.979   .     S
H638   O657    0.986   .     S
H639   O658    0.979   .     S
H640   O659    0.986   .     S
N641   Zn671   2.032   .     S
N642   Zn672   2.032   .     S
O643   Zn671   2.028   .     S
O644   S555    1.504   1_655 S
O645   S667    1.682   .     S
O646   S668    1.502   .     D
O647   S668    1.503   .     D
O648   S668    1.683   .     S
O649   S669    1.501   .     D
O651   S669    1.682   .     S
O652   S670    1.502   .     D
O653   S670    1.503   .     D
O654   Zn672   2.028   .     S
O655   S670    1.683   .     S
O660   Zn671   2.028   .     S
O661   Zn672   2.028   .     S
O662   Zn671   1.948   .     S
O663   Zn672   1.948   .     S
O664   Zn671   1.948   .     S
O665   Zn672   1.948   .     S
O666   S667    1.501   .     D
S669   O538    1.504   1_655 S
C673   C676    1.444   .     S
C673   O717    1.302   .     A
C673   O699    1.292   .     A
C674   C676    1.419   .     A
C674   S726    1.785   .     S
C674   C799    1.388   1_455 S
C675   C681    1.445   .     S
C675   C687    1.419   .     A
C675   C688    1.408   .     A
C676   C686    1.408   .     A
C677   N698    1.379   .     A
C677   O712    1.369   .     S
C678   N697    1.372   .     A
C678   O713    1.374   .     S
C678   C847    1.414   .     S
C679   O714    1.368   .     S
C679   N698    1.378   .     A
C680   O715    1.374   .     S
C680   N697    1.372   .     A
C680   C845    1.414   .     S
C681   O710    1.302   .     A
C681   O716    1.292   .     A
C682   O718    1.285   .     A
C682   C684    1.366   .     S
C682   O721    1.285   .     A
C683   O719    1.285   .     A
C683   O720    1.285   .     A
C683   C685    1.366   .     S
C685   C1188   1.165   .     S
C686   S723    1.768   .     S
C686   C800    1.369   1_455 S
C687   S724    1.785   .     S
C687   C730    1.388   .     S
C688   S725    1.769   .     S
C688   C742    1.369   .     S
H689   O701    0.991   .     S
H690   O704    0.991   .     S
H691   O707    0.991   .     S
H692   O711    0.991   .     S
H693   O712    0.979   .     S
H694   O713    0.986   .     S
H695   O714    0.979   .     S
H696   O715    0.986   .     S
N697   Zn727   2.032   .     S
N698   Zn728   2.032   .     S
O699   Zn727   2.028   .     S
O700   S779    1.504   .     S
O701   S723    1.682   .     S
O702   S724    1.502   .     D
O703   S724    1.503   .     D
O704   S724    1.683   .     S
O705   S725    1.501   .     D
O706   S837    1.504   1_455 S
O707   S725    1.682   .     S
O708   S726    1.502   .     D
O709   S726    1.503   .     D
O710   Zn728   2.028   .     S
O711   S726    1.683   .     S
O716   Zn727   2.028   .     S
O717   Zn728   2.028   .     S
O718   Zn727   1.948   .     S
O719   Zn728   1.948   .     S
O720   Zn727   1.948   .     S
O721   Zn728   1.948   .     S
O722   S723    1.501   .     D
S723   O812    1.504   1_455 S
S725   O762    1.504   .     S
C729   C732    1.444   .     S
C729   O773    1.302   .     A
C729   O755    1.292   .     A
C730   C732    1.419   .     A
C730   S782    1.785   .     S
C731   C737    1.445   .     S
C731   C743    1.419   .     A
C731   C744    1.408   .     A
C732   C742    1.408   .     A
C733   N754    1.379   .     A
C733   O768    1.369   .     S
C734   N753    1.372   .     A
C734   O769    1.374   .     S
C734   C903    1.414   .     S
C735   O770    1.368   .     S
C735   N754    1.378   .     A
C736   O771    1.374   .     S
C736   N753    1.372   .     A
C736   C901    1.414   .     S
C737   O766    1.302   .     A
C737   O772    1.292   .     A
C738   O774    1.285   .     A
C738   C740    1.366   .     S
C738   O777    1.285   .     A
C739   O775    1.285   .     A
C739   O776    1.285   .     A
C739   C741    1.366   .     S
C741   C1244   1.165   .     S
C742   S779    1.768   .     S
C743   S780    1.785   .     S
C743   C786    1.388   .     S
C744   S781    1.769   .     S
C744   C798    1.369   .     S
H745   O757    0.991   .     S
H746   O760    0.991   .     S
H747   O763    0.991   .     S
H748   O767    0.991   .     S
H749   O768    0.979   .     S
H750   O769    0.986   .     S
H751   O770    0.979   .     S
H752   O771    0.986   .     S
N753   Zn783   2.032   .     S
N754   Zn784   2.032   .     S
O755   Zn783   2.028   .     S
O756   S835    1.504   .     S
O757   S779    1.682   .     S
O758   S780    1.502   .     D
O759   S780    1.503   .     D
O760   S780    1.683   .     S
O761   S781    1.501   .     D
O763   S781    1.682   .     S
O764   S782    1.502   .     D
O765   S782    1.503   .     D
O766   Zn784   2.028   .     S
O767   S782    1.683   .     S
O772   Zn783   2.028   .     S
O773   Zn784   2.028   .     S
O774   Zn783   1.948   .     S
O775   Zn784   1.948   .     S
O776   Zn783   1.948   .     S
O777   Zn784   1.948   .     S
O778   S779    1.501   .     D
S781   O818    1.504   .     S
C785   C788    1.444   .     S
C785   O829    1.302   .     A
C785   O811    1.292   .     A
C786   C788    1.419   .     A
C786   S838    1.785   .     S
C787   C793    1.445   .     S
C787   C799    1.419   .     A
C787   C800    1.408   .     A
C788   C798    1.408   .     A
C789   N810    1.379   .     A
C789   O824    1.369   .     S
C790   N809    1.372   .     A
C790   O825    1.374   .     S
C790   C959    1.414   .     S
C791   O826    1.368   .     S
C791   N810    1.378   .     A
C792   O827    1.374   .     S
C792   N809    1.372   .     A
C792   C957    1.414   .     S
C793   O822    1.302   .     A
C793   O828    1.292   .     A
C794   O830    1.285   .     A
C794   C796    1.366   .     S
C794   O833    1.285   .     A
C795   O831    1.285   .     A
C795   O832    1.285   .     A
C795   C797    1.366   .     S
C797   C1300   1.165   .     S
C798   S835    1.768   .     S
C799   S836    1.785   .     S
C799   C674    1.388   1_655 S
C800   S837    1.769   .     S
C800   C686    1.369   1_655 S
H801   O813    0.991   .     S
H802   O816    0.991   .     S
H803   O819    0.991   .     S
H804   O823    0.991   .     S
H805   O824    0.979   .     S
H806   O825    0.986   .     S
H807   O826    0.979   .     S
H808   O827    0.986   .     S
N809   Zn839   2.032   .     S
N810   Zn840   2.032   .     S
O811   Zn839   2.028   .     S
O812   S723    1.504   1_655 S
O813   S835    1.682   .     S
O814   S836    1.502   .     D
O815   S836    1.503   .     D
O816   S836    1.683   .     S
O817   S837    1.501   .     D
O819   S837    1.682   .     S
O820   S838    1.502   .     D
O821   S838    1.503   .     D
O822   Zn840   2.028   .     S
O823   S838    1.683   .     S
O828   Zn839   2.028   .     S
O829   Zn840   2.028   .     S
O830   Zn839   1.948   .     S
O831   Zn840   1.948   .     S
O832   Zn839   1.948   .     S
O833   Zn840   1.948   .     S
O834   S835    1.501   .     D
S837   O706    1.504   1_655 S
C841   C844    1.444   .     S
C841   O885    1.302   .     A
C841   O867    1.292   .     A
C842   C844    1.419   .     A
C842   S894    1.785   .     S
C842   C967    1.388   1_455 S
C843   C849    1.445   .     S
C843   C855    1.419   .     A
C843   C856    1.408   .     A
C844   C854    1.408   .     A
C845   N866    1.379   .     A
C845   O880    1.369   .     S
C846   N865    1.372   .     A
C846   O881    1.374   .     S
C846   C511    1.414   1_565 S
C847   O882    1.368   .     S
C847   N866    1.378   .     A
C848   O883    1.374   .     S
C848   N865    1.372   .     A
C848   C509    1.414   1_565 S
C849   O878    1.302   .     A
C849   O884    1.292   .     A
C850   O886    1.285   .     A
C850   C852    1.366   .     S
C850   O889    1.285   .     A
C851   O887    1.285   .     A
C851   O888    1.285   .     A
C851   C853    1.366   .     S
C853   C1356   1.165   .     S
C854   S891    1.768   .     S
C854   C968    1.369   1_455 S
C855   S892    1.785   .     S
C855   C898    1.388   .     S
C856   S893    1.769   .     S
C856   C910    1.369   .     S
H857   O869    0.991   .     S
H858   O872    0.991   .     S
H859   O875    0.991   .     S
H860   O879    0.991   .     S
H861   O880    0.979   .     S
H862   O881    0.986   .     S
H863   O882    0.979   .     S
H864   O883    0.986   .     S
N865   Zn895   2.032   .     S
N866   Zn896   2.032   .     S
O867   Zn895   2.028   .     S
O868   S947    1.504   .     S
O869   S891    1.682   .     S
O870   S892    1.502   .     D
O871   S892    1.503   .     D
O872   S892    1.683   .     S
O873   S893    1.501   .     D
O874   S1005   1.504   1_455 S
O875   S893    1.682   .     S
O876   S894    1.502   .     D
O877   S894    1.503   .     D
O878   Zn896   2.028   .     S
O879   S894    1.683   .     S
O884   Zn895   2.028   .     S
O885   Zn896   2.028   .     S
O886   Zn895   1.948   .     S
O887   Zn896   1.948   .     S
O888   Zn895   1.948   .     S
O889   Zn896   1.948   .     S
O890   S891    1.501   .     D
S891   O980    1.504   1_455 S
S893   O930    1.504   .     S
C897   C900    1.444   .     S
C897   O941    1.302   .     A
C897   O923    1.292   .     A
C898   C900    1.419   .     A
C898   S950    1.785   .     S
C899   C905    1.445   .     S
C899   C911    1.419   .     A
C899   C912    1.408   .     A
C900   C910    1.408   .     A
C901   N922    1.379   .     A
C901   O936    1.369   .     S
C902   N921    1.372   .     A
C902   O937    1.374   .     S
C902   C567    1.414   1_565 S
C903   O938    1.368   .     S
C903   N922    1.378   .     A
C904   O939    1.374   .     S
C904   N921    1.372   .     A
C904   C565    1.414   1_565 S
C905   O934    1.302   .     A
C905   O940    1.292   .     A
C906   O942    1.285   .     A
C906   C908    1.366   .     S
C906   O945    1.285   .     A
C907   O943    1.285   .     A
C907   O944    1.285   .     A
C907   C909    1.366   .     S
C909   C1412   1.165   .     S
C910   S947    1.768   .     S
C911   S948    1.785   .     S
C911   C954    1.388   .     S
C912   S949    1.769   .     S
C912   C966    1.369   .     S
H913   O925    0.991   .     S
H914   O928    0.991   .     S
H915   O931    0.991   .     S
H916   O935    0.991   .     S
H917   O936    0.979   .     S
H918   O937    0.986   .     S
H919   O938    0.979   .     S
H920   O939    0.986   .     S
N921   Zn951   2.032   .     S
N922   Zn952   2.032   .     S
O923   Zn951   2.028   .     S
O924   S1003   1.504   .     S
O925   S947    1.682   .     S
O926   S948    1.502   .     D
O927   S948    1.503   .     D
O928   S948    1.683   .     S
O929   S949    1.501   .     D
O931   S949    1.682   .     S
O932   S950    1.502   .     D
O933   S950    1.503   .     D
O934   Zn952   2.028   .     S
O935   S950    1.683   .     S
O940   Zn951   2.028   .     S
O941   Zn952   2.028   .     S
O942   Zn951   1.948   .     S
O943   Zn952   1.948   .     S
O944   Zn951   1.948   .     S
O945   Zn952   1.948   .     S
O946   S947    1.501   .     D
S949   O986    1.504   .     S
C953   C956    1.444   .     S
C953   O997    1.302   .     A
C953   O979    1.292   .     A
C954   C956    1.419   .     A
C954   S1006   1.785   .     S
C955   C961    1.445   .     S
C955   C967    1.419   .     A
C955   C968    1.408   .     A
C956   C966    1.408   .     A
C957   N978    1.379   .     A
C957   O992    1.369   .     S
C958   N977    1.372   .     A
C958   O993    1.374   .     S
C958   C623    1.414   1_565 S
C959   O994    1.368   .     S
C959   N978    1.378   .     A
C960   O995    1.374   .     S
C960   N977    1.372   .     A
C960   C621    1.414   1_565 S
C961   O990    1.302   .     A
C961   O996    1.292   .     A
C962   O998    1.285   .     A
C962   C964    1.366   .     S
C962   O1001   1.285   .     A
C963   O999    1.285   .     A
C963   O1000   1.285   .     A
C963   C965    1.366   .     S
C965   C1468   1.165   .     S
C966   S1003   1.768   .     S
C967   S1004   1.785   .     S
C967   C842    1.388   1_655 S
C968   S1005   1.769   .     S
C968   C854    1.369   1_655 S
H969   O981    0.991   .     S
H970   O984    0.991   .     S
H971   O987    0.991   .     S
H972   O991    0.991   .     S
H973   O992    0.979   .     S
H974   O993    0.986   .     S
H975   O994    0.979   .     S
H976   O995    0.986   .     S
N977   Zn1007  2.032   .     S
N978   Zn1008  2.032   .     S
O979   Zn1007  2.028   .     S
O980   S891    1.504   1_655 S
O981   S1003   1.682   .     S
O982   S1004   1.502   .     D
O983   S1004   1.503   .     D
O984   S1004   1.683   .     S
O985   S1005   1.501   .     D
O987   S1005   1.682   .     S
O988   S1006   1.502   .     D
O989   S1006   1.503   .     D
O990   Zn1008  2.028   .     S
O991   S1006   1.683   .     S
O996   Zn1007  2.028   .     S
O997   Zn1008  2.028   .     S
O998   Zn1007  1.948   .     S
O999   Zn1008  1.948   .     S
O1000  Zn1007  1.948   .     S
O1001  Zn1008  1.948   .     S
O1002  S1003   1.501   .     D
S1005  O874    1.504   1_655 S
C1009  C1012   1.444   .     S
C1009  O1053   1.302   .     A
C1009  O1035   1.292   .     A
C1010  C1012   1.419   .     A
C1010  S1062   1.785   .     S
C1010  C1135   1.388   1_455 S
C1011  C1017   1.445   .     S
C1011  C1023   1.419   .     A
C1011  C1024   1.408   .     A
C1012  C1022   1.408   .     A
C1013  N1034   1.379   .     A
C1013  O1048   1.369   .     S
C1013  C1352   1.414   1_545 S
C1014  N1033   1.372   .     A
C1014  O1049   1.374   .     S
C1014  C1183   1.414   .     S
C1015  O1050   1.368   .     S
C1015  N1034   1.378   .     A
C1015  C1350   1.414   1_545 S
C1016  O1051   1.374   .     S
C1016  N1033   1.372   .     A
C1016  C1181   1.414   .     S
C1017  O1046   1.302   .     A
C1017  O1052   1.292   .     A
C1018  O1054   1.285   .     A
C1018  C1020   1.366   .     S
C1018  O1057   1.285   .     A
C1019  O1055   1.285   .     A
C1019  O1056   1.285   .     A
C1019  C1021   1.366   .     S
C1021  C12     1.165   1_556 S
C1022  S1059   1.768   .     S
C1022  C1136   1.369   1_455 S
C1023  S1060   1.785   .     S
C1023  C1066   1.388   .     S
C1024  S1061   1.769   .     S
C1024  C1078   1.369   .     S
H1025  O1037   0.991   .     S
H1026  O1040   0.991   .     S
H1027  O1043   0.991   .     S
H1028  O1047   0.991   .     S
H1029  O1048   0.979   .     S
H1030  O1049   0.986   .     S
H1031  O1050   0.979   .     S
H1032  O1051   0.986   .     S
N1033  Zn1063  2.032   .     S
N1034  Zn1064  2.032   .     S
O1035  Zn1063  2.028   .     S
O1036  S1115   1.504   .     S
O1037  S1059   1.682   .     S
O1038  S1060   1.502   .     D
O1039  S1060   1.503   .     D
O1040  S1060   1.683   .     S
O1041  S1061   1.501   .     D
O1042  S1173   1.504   1_455 S
O1043  S1061   1.682   .     S
O1044  S1062   1.502   .     D
O1045  S1062   1.503   .     D
O1046  Zn1064  2.028   .     S
O1047  S1062   1.683   .     S
O1052  Zn1063  2.028   .     S
O1053  Zn1064  2.028   .     S
O1054  Zn1063  1.948   .     S
O1055  Zn1064  1.948   .     S
O1056  Zn1063  1.948   .     S
O1057  Zn1064  1.948   .     S
O1058  S1059   1.501   .     D
S1059  O1148   1.504   1_455 S
S1061  O1098   1.504   .     S
C1065  C1068   1.444   .     S
C1065  O1109   1.302   .     A
C1065  O1091   1.292   .     A
C1066  C1068   1.419   .     A
C1066  S1118   1.785   .     S
C1067  C1073   1.445   .     S
C1067  C1079   1.419   .     A
C1067  C1080   1.408   .     A
C1068  C1078   1.408   .     A
C1069  N1090   1.379   .     A
C1069  O1104   1.369   .     S
C1069  C1408   1.414   1_545 S
C1070  N1089   1.372   .     A
C1070  O1105   1.374   .     S
C1070  C1239   1.414   .     S
C1071  O1106   1.368   .     S
C1071  N1090   1.378   .     A
C1071  C1406   1.414   1_545 S
C1072  O1107   1.374   .     S
C1072  N1089   1.372   .     A
C1072  C1237   1.414   .     S
C1073  O1102   1.302   .     A
C1073  O1108   1.292   .     A
C1074  O1110   1.285   .     A
C1074  C1076   1.366   .     S
C1074  O1113   1.285   .     A
C1075  O1111   1.285   .     A
C1075  O1112   1.285   .     A
C1075  C1077   1.366   .     S
C1077  C68     1.165   1_556 S
C1078  S1115   1.768   .     S
C1079  S1116   1.785   .     S
C1079  C1122   1.388   .     S
C1080  S1117   1.769   .     S
C1080  C1134   1.369   .     S
H1081  O1093   0.991   .     S
H1082  O1096   0.991   .     S
H1083  O1099   0.991   .     S
H1084  O1103   0.991   .     S
H1085  O1104   0.979   .     S
H1086  O1105   0.986   .     S
H1087  O1106   0.979   .     S
H1088  O1107   0.986   .     S
N1089  Zn1119  2.032   .     S
N1090  Zn1120  2.032   .     S
O1091  Zn1119  2.028   .     S
O1092  S1171   1.504   .     S
O1093  S1115   1.682   .     S
O1094  S1116   1.502   .     D
O1095  S1116   1.503   .     D
O1096  S1116   1.683   .     S
O1097  S1117   1.501   .     D
O1099  S1117   1.682   .     S
O1100  S1118   1.502   .     D
O1101  S1118   1.503   .     D
O1102  Zn1120  2.028   .     S
O1103  S1118   1.683   .     S
O1108  Zn1119  2.028   .     S
O1109  Zn1120  2.028   .     S
O1110  Zn1119  1.948   .     S
O1111  Zn1120  1.948   .     S
O1112  Zn1119  1.948   .     S
O1113  Zn1120  1.948   .     S
O1114  S1115   1.501   .     D
S1117  O1154   1.504   .     S
C1121  C1124   1.444   .     S
C1121  O1165   1.302   .     A
C1121  O1147   1.292   .     A
C1122  C1124   1.419   .     A
C1122  S1174   1.785   .     S
C1123  C1129   1.445   .     S
C1123  C1135   1.419   .     A
C1123  C1136   1.408   .     A
C1124  C1134   1.408   .     A
C1125  N1146   1.379   .     A
C1125  O1160   1.369   .     S
C1125  C1464   1.414   1_545 S
C1126  N1145   1.372   .     A
C1126  O1161   1.374   .     S
C1126  C1295   1.414   .     S
C1127  O1162   1.368   .     S
C1127  N1146   1.378   .     A
C1127  C1462   1.414   1_545 S
C1128  O1163   1.374   .     S
C1128  N1145   1.372   .     A
C1128  C1293   1.414   .     S
C1129  O1158   1.302   .     A
C1129  O1164   1.292   .     A
C1130  O1166   1.285   .     A
C1130  C1132   1.366   .     S
C1130  O1169   1.285   .     A
C1131  O1167   1.285   .     A
C1131  O1168   1.285   .     A
C1131  C1133   1.366   .     S
C1133  C124    1.165   1_556 S
C1134  S1171   1.768   .     S
C1135  S1172   1.785   .     S
C1135  C1010   1.388   1_655 S
C1136  S1173   1.769   .     S
C1136  C1022   1.369   1_655 S
H1137  O1149   0.991   .     S
H1138  O1152   0.991   .     S
H1139  O1155   0.991   .     S
H1140  O1159   0.991   .     S
H1141  O1160   0.979   .     S
H1142  O1161   0.986   .     S
H1143  O1162   0.979   .     S
H1144  O1163   0.986   .     S
N1145  Zn1175  2.032   .     S
N1146  Zn1176  2.032   .     S
O1147  Zn1175  2.028   .     S
O1148  S1059   1.504   1_655 S
O1149  S1171   1.682   .     S
O1150  S1172   1.502   .     D
O1151  S1172   1.503   .     D
O1152  S1172   1.683   .     S
O1153  S1173   1.501   .     D
O1155  S1173   1.682   .     S
O1156  S1174   1.502   .     D
O1157  S1174   1.503   .     D
O1158  Zn1176  2.028   .     S
O1159  S1174   1.683   .     S
O1164  Zn1175  2.028   .     S
O1165  Zn1176  2.028   .     S
O1166  Zn1175  1.948   .     S
O1167  Zn1176  1.948   .     S
O1168  Zn1175  1.948   .     S
O1169  Zn1176  1.948   .     S
O1170  S1171   1.501   .     D
S1173  O1042   1.504   1_655 S
C1177  C1180   1.444   .     S
C1177  O1221   1.302   .     A
C1177  O1203   1.292   .     A
C1178  C1180   1.419   .     A
C1178  S1230   1.785   .     S
C1178  C1303   1.388   1_455 S
C1179  C1185   1.445   .     S
C1179  C1191   1.419   .     A
C1179  C1192   1.408   .     A
C1180  C1190   1.408   .     A
C1181  N1202   1.379   .     A
C1181  O1216   1.369   .     S
C1182  N1201   1.372   .     A
C1182  O1217   1.374   .     S
C1182  C1351   1.414   .     S
C1183  O1218   1.368   .     S
C1183  N1202   1.378   .     A
C1184  O1219   1.374   .     S
C1184  N1201   1.372   .     A
C1184  C1349   1.414   .     S
C1185  O1214   1.302   .     A
C1185  O1220   1.292   .     A
C1186  O1222   1.285   .     A
C1186  C1188   1.366   .     S
C1186  O1225   1.285   .     A
C1187  O1223   1.285   .     A
C1187  O1224   1.285   .     A
C1187  C1189   1.366   .     S
C1189  C180    1.165   1_556 S
C1190  S1227   1.768   .     S
C1190  C1304   1.369   1_455 S
C1191  S1228   1.785   .     S
C1191  C1234   1.388   .     S
C1192  S1229   1.769   .     S
C1192  C1246   1.369   .     S
H1193  O1205   0.991   .     S
H1194  O1208   0.991   .     S
H1195  O1211   0.991   .     S
H1196  O1215   0.991   .     S
H1197  O1216   0.979   .     S
H1198  O1217   0.986   .     S
H1199  O1218   0.979   .     S
H1200  O1219   0.986   .     S
N1201  Zn1231  2.032   .     S
N1202  Zn1232  2.032   .     S
O1203  Zn1231  2.028   .     S
O1204  S1283   1.504   .     S
O1205  S1227   1.682   .     S
O1206  S1228   1.502   .     D
O1207  S1228   1.503   .     D
O1208  S1228   1.683   .     S
O1209  S1229   1.501   .     D
O1210  S1341   1.504   1_455 S
O1211  S1229   1.682   .     S
O1212  S1230   1.502   .     D
O1213  S1230   1.503   .     D
O1214  Zn1232  2.028   .     S
O1215  S1230   1.683   .     S
O1220  Zn1231  2.028   .     S
O1221  Zn1232  2.028   .     S
O1222  Zn1231  1.948   .     S
O1223  Zn1232  1.948   .     S
O1224  Zn1231  1.948   .     S
O1225  Zn1232  1.948   .     S
O1226  S1227   1.501   .     D
S1227  O1316   1.504   1_455 S
S1229  O1266   1.504   .     S
C1233  C1236   1.444   .     S
C1233  O1277   1.302   .     A
C1233  O1259   1.292   .     A
C1234  C1236   1.419   .     A
C1234  S1286   1.785   .     S
C1235  C1241   1.445   .     S
C1235  C1247   1.419   .     A
C1235  C1248   1.408   .     A
C1236  C1246   1.408   .     A
C1237  N1258   1.379   .     A
C1237  O1272   1.369   .     S
C1238  N1257   1.372   .     A
C1238  O1273   1.374   .     S
C1238  C1407   1.414   .     S
C1239  O1274   1.368   .     S
C1239  N1258   1.378   .     A
C1240  O1275   1.374   .     S
C1240  N1257   1.372   .     A
C1240  C1405   1.414   .     S
C1241  O1270   1.302   .     A
C1241  O1276   1.292   .     A
C1242  O1278   1.285   .     A
C1242  C1244   1.366   .     S
C1242  O1281   1.285   .     A
C1243  O1279   1.285   .     A
C1243  O1280   1.285   .     A
C1243  C1245   1.366   .     S
C1245  C236    1.165   1_556 S
C1246  S1283   1.768   .     S
C1247  S1284   1.785   .     S
C1247  C1290   1.388   .     S
C1248  S1285   1.769   .     S
C1248  C1302   1.369   .     S
H1249  O1261   0.991   .     S
H1250  O1264   0.991   .     S
H1251  O1267   0.991   .     S
H1252  O1271   0.991   .     S
H1253  O1272   0.979   .     S
H1254  O1273   0.986   .     S
H1255  O1274   0.979   .     S
H1256  O1275   0.986   .     S
N1257  Zn1287  2.032   .     S
N1258  Zn1288  2.032   .     S
O1259  Zn1287  2.028   .     S
O1260  S1339   1.504   .     S
O1261  S1283   1.682   .     S
O1262  S1284   1.502   .     D
O1263  S1284   1.503   .     D
O1264  S1284   1.683   .     S
O1265  S1285   1.501   .     D
O1267  S1285   1.682   .     S
O1268  S1286   1.502   .     D
O1269  S1286   1.503   .     D
O1270  Zn1288  2.028   .     S
O1271  S1286   1.683   .     S
O1276  Zn1287  2.028   .     S
O1277  Zn1288  2.028   .     S
O1278  Zn1287  1.948   .     S
O1279  Zn1288  1.948   .     S
O1280  Zn1287  1.948   .     S
O1281  Zn1288  1.948   .     S
O1282  S1283   1.501   .     D
S1285  O1322   1.504   .     S
C1289  C1292   1.444   .     S
C1289  O1333   1.302   .     A
C1289  O1315   1.292   .     A
C1290  C1292   1.419   .     A
C1290  S1342   1.785   .     S
C1291  C1297   1.445   .     S
C1291  C1303   1.419   .     A
C1291  C1304   1.408   .     A
C1292  C1302   1.408   .     A
C1293  N1314   1.379   .     A
C1293  O1328   1.369   .     S
C1294  N1313   1.372   .     A
C1294  O1329   1.374   .     S
C1294  C1463   1.414   .     S
C1295  O1330   1.368   .     S
C1295  N1314   1.378   .     A
C1296  O1331   1.374   .     S
C1296  N1313   1.372   .     A
C1296  C1461   1.414   .     S
C1297  O1326   1.302   .     A
C1297  O1332   1.292   .     A
C1298  O1334   1.285   .     A
C1298  C1300   1.366   .     S
C1298  O1337   1.285   .     A
C1299  O1335   1.285   .     A
C1299  O1336   1.285   .     A
C1299  C1301   1.366   .     S
C1301  C292    1.165   1_556 S
C1302  S1339   1.768   .     S
C1303  S1340   1.785   .     S
C1303  C1178   1.388   1_655 S
C1304  S1341   1.769   .     S
C1304  C1190   1.369   1_655 S
H1305  O1317   0.991   .     S
H1306  O1320   0.991   .     S
H1307  O1323   0.991   .     S
H1308  O1327   0.991   .     S
H1309  O1328   0.979   .     S
H1310  O1329   0.986   .     S
H1311  O1330   0.979   .     S
H1312  O1331   0.986   .     S
N1313  Zn1343  2.032   .     S
N1314  Zn1344  2.032   .     S
O1315  Zn1343  2.028   .     S
O1316  S1227   1.504   1_655 S
O1317  S1339   1.682   .     S
O1318  S1340   1.502   .     D
O1319  S1340   1.503   .     D
O1320  S1340   1.683   .     S
O1321  S1341   1.501   .     D
O1323  S1341   1.682   .     S
O1324  S1342   1.502   .     D
O1325  S1342   1.503   .     D
O1326  Zn1344  2.028   .     S
O1327  S1342   1.683   .     S
O1332  Zn1343  2.028   .     S
O1333  Zn1344  2.028   .     S
O1334  Zn1343  1.948   .     S
O1335  Zn1344  1.948   .     S
O1336  Zn1343  1.948   .     S
O1337  Zn1344  1.948   .     S
O1338  S1339   1.501   .     D
S1341  O1210   1.504   1_655 S
C1345  C1348   1.444   .     S
C1345  O1389   1.302   .     A
C1345  O1371   1.292   .     A
C1346  C1348   1.419   .     A
C1346  S1398   1.785   .     S
C1346  C1471   1.388   1_455 S
C1347  C1353   1.445   .     S
C1347  C1359   1.419   .     A
C1347  C1360   1.408   .     A
C1348  C1358   1.408   .     A
C1349  N1370   1.379   .     A
C1349  O1384   1.369   .     S
C1350  N1369   1.372   .     A
C1350  O1385   1.374   .     S
C1350  C1015   1.414   1_565 S
C1351  O1386   1.368   .     S
C1351  N1370   1.378   .     A
C1352  O1387   1.374   .     S
C1352  N1369   1.372   .     A
C1352  C1013   1.414   1_565 S
C1353  O1382   1.302   .     A
C1353  O1388   1.292   .     A
C1354  O1390   1.285   .     A
C1354  C1356   1.366   .     S
C1354  O1393   1.285   .     A
C1355  O1391   1.285   .     A
C1355  O1392   1.285   .     A
C1355  C1357   1.366   .     S
C1357  C348    1.165   1_556 S
C1358  S1395   1.768   .     S
C1358  C1472   1.369   1_455 S
C1359  S1396   1.785   .     S
C1359  C1402   1.388   .     S
C1360  S1397   1.769   .     S
C1360  C1414   1.369   .     S
H1361  O1373   0.991   .     S
H1362  O1376   0.991   .     S
H1363  O1379   0.991   .     S
H1364  O1383   0.991   .     S
H1365  O1384   0.979   .     S
H1366  O1385   0.986   .     S
H1367  O1386   0.979   .     S
H1368  O1387   0.986   .     S
N1369  Zn1399  2.032   .     S
N1370  Zn1400  2.032   .     S
O1371  Zn1399  2.028   .     S
O1372  S1451   1.504   .     S
O1373  S1395   1.682   .     S
O1374  S1396   1.502   .     D
O1375  S1396   1.503   .     D
O1376  S1396   1.683   .     S
O1377  S1397   1.501   .     D
O1378  S1509   1.504   1_455 S
O1379  S1397   1.682   .     S
O1380  S1398   1.502   .     D
O1381  S1398   1.503   .     D
O1382  Zn1400  2.028   .     S
O1383  S1398   1.683   .     S
O1388  Zn1399  2.028   .     S
O1389  Zn1400  2.028   .     S
O1390  Zn1399  1.948   .     S
O1391  Zn1400  1.948   .     S
O1392  Zn1399  1.948   .     S
O1393  Zn1400  1.948   .     S
O1394  S1395   1.501   .     D
S1395  O1484   1.504   1_455 S
S1397  O1434   1.504   .     S
C1401  C1404   1.444   .     S
C1401  O1445   1.302   .     A
C1401  O1427   1.292   .     A
C1402  C1404   1.419   .     A
C1402  S1454   1.785   .     S
C1403  C1409   1.445   .     S
C1403  C1415   1.419   .     A
C1403  C1416   1.408   .     A
C1404  C1414   1.408   .     A
C1405  N1426   1.379   .     A
C1405  O1440   1.369   .     S
C1406  N1425   1.372   .     A
C1406  O1441   1.374   .     S
C1406  C1071   1.414   1_565 S
C1407  O1442   1.368   .     S
C1407  N1426   1.378   .     A
C1408  O1443   1.374   .     S
C1408  N1425   1.372   .     A
C1408  C1069   1.414   1_565 S
C1409  O1438   1.302   .     A
C1409  O1444   1.292   .     A
C1410  O1446   1.285   .     A
C1410  C1412   1.366   .     S
C1410  O1449   1.285   .     A
C1411  O1447   1.285   .     A
C1411  O1448   1.285   .     A
C1411  C1413   1.366   .     S
C1413  C404    1.165   1_556 S
C1414  S1451   1.768   .     S
C1415  S1452   1.785   .     S
C1415  C1458   1.388   .     S
C1416  S1453   1.769   .     S
C1416  C1470   1.369   .     S
H1417  O1429   0.991   .     S
H1418  O1432   0.991   .     S
H1419  O1435   0.991   .     S
H1420  O1439   0.991   .     S
H1421  O1440   0.979   .     S
H1422  O1441   0.986   .     S
H1423  O1442   0.979   .     S
H1424  O1443   0.986   .     S
N1425  Zn1455  2.032   .     S
N1426  Zn1456  2.032   .     S
O1427  Zn1455  2.028   .     S
O1428  S1507   1.504   .     S
O1429  S1451   1.682   .     S
O1430  S1452   1.502   .     D
O1431  S1452   1.503   .     D
O1432  S1452   1.683   .     S
O1433  S1453   1.501   .     D
O1435  S1453   1.682   .     S
O1436  S1454   1.502   .     D
O1437  S1454   1.503   .     D
O1438  Zn1456  2.028   .     S
O1439  S1454   1.683   .     S
O1444  Zn1455  2.028   .     S
O1445  Zn1456  2.028   .     S
O1446  Zn1455  1.948   .     S
O1447  Zn1456  1.948   .     S
O1448  Zn1455  1.948   .     S
O1449  Zn1456  1.948   .     S
O1450  S1451   1.501   .     D
S1453  O1490   1.504   .     S
C1457  C1460   1.444   .     S
C1457  O1501   1.302   .     A
C1457  O1483   1.292   .     A
C1458  C1460   1.419   .     A
C1458  S1510   1.785   .     S
C1459  C1465   1.445   .     S
C1459  C1471   1.419   .     A
C1459  C1472   1.408   .     A
C1460  C1470   1.408   .     A
C1461  N1482   1.379   .     A
C1461  O1496   1.369   .     S
C1462  N1481   1.372   .     A
C1462  O1497   1.374   .     S
C1462  C1127   1.414   1_565 S
C1463  O1498   1.368   .     S
C1463  N1482   1.378   .     A
C1464  O1499   1.374   .     S
C1464  N1481   1.372   .     A
C1464  C1125   1.414   1_565 S
C1465  O1494   1.302   .     A
C1465  O1500   1.292   .     A
C1466  O1502   1.285   .     A
C1466  C1468   1.366   .     S
C1466  O1505   1.285   .     A
C1467  O1503   1.285   .     A
C1467  O1504   1.285   .     A
C1467  C1469   1.366   .     S
C1469  C460    1.165   1_556 S
C1470  S1507   1.768   .     S
C1471  S1508   1.785   .     S
C1471  C1346   1.388   1_655 S
C1472  S1509   1.769   .     S
C1472  C1358   1.369   1_655 S
H1473  O1485   0.991   .     S
H1474  O1488   0.991   .     S
H1475  O1491   0.991   .     S
H1476  O1495   0.991   .     S
H1477  O1496   0.979   .     S
H1478  O1497   0.986   .     S
H1479  O1498   0.979   .     S
H1480  O1499   0.986   .     S
N1481  Zn1511  2.032   .     S
N1482  Zn1512  2.032   .     S
O1483  Zn1511  2.028   .     S
O1484  S1395   1.504   1_655 S
O1485  S1507   1.682   .     S
O1486  S1508   1.502   .     D
O1487  S1508   1.503   .     D
O1488  S1508   1.683   .     S
O1489  S1509   1.501   .     D
O1491  S1509   1.682   .     S
O1492  S1510   1.502   .     D
O1493  S1510   1.503   .     D
O1494  Zn1512  2.028   .     S
O1495  S1510   1.683   .     S
O1500  Zn1511  2.028   .     S
O1501  Zn1512  2.028   .     S
O1502  Zn1511  1.948   .     S
O1503  Zn1512  1.948   .     S
O1504  Zn1511  1.948   .     S
O1505  Zn1512  1.948   .     S
O1506  S1507   1.501   .     D
S1509  O1378   1.504   1_655 S
