data_str_m3_o2_o10_pcu_sym.141
_audit_creation_date              2020-01-03
_audit_creation_method            'Materials Studio'
_symmetry_space_group_name_H-M    'P1'
_symmetry_Int_Tables_number       1
_symmetry_cell_setting            triclinic
loop_
_symmetry_equiv_pos_as_xyz
  x,y,z
_cell_length_a                    25.8526
_cell_length_b                    29.8502
_cell_length_c                    28.5530
_cell_angle_alpha                 89.9971
_cell_angle_beta                  98.3444
_cell_angle_gamma                 91.2630
loop_
_atom_site_label
_atom_site_type_symbol
_atom_site_fract_x
_atom_site_fract_y
_atom_site_fract_z
_atom_site_U_iso_or_equiv
_atom_site_adp_type
_atom_site_occupancy
C1     C     0.16750   0.16392   0.25014   0.00000  Uiso   1.00
C2     C     0.16741   0.33608   0.25009   0.00000  Uiso   1.00
C3     C     0.12286   0.23137   0.04738   0.00000  Uiso   1.00
C4     C     0.18427   0.28909   0.44930   0.00000  Uiso   1.00
C5     C     0.12768   0.22760   0.09730   0.00000  Uiso   1.00
C6     C     0.18883   0.28556   0.40055   0.00000  Uiso   1.00
C7     C     0.20517   0.27200   0.10651   0.00000  Uiso   1.00
C8     C     0.14429   0.21537   0.39571   0.00000  Uiso   1.00
C9     C     0.20619   0.27028   0.05742   0.00000  Uiso   1.00
C10    C     0.14658   0.21461   0.44522   0.00000  Uiso   1.00
C11    C     0.16391   0.25169   0.02634   0.00000  Uiso   1.00
C12    C     0.16454   0.25222   0.47311   0.00000  Uiso   1.00
C13    C     0.06719   0.24953   0.23794   0.00000  Uiso   1.00
C14    C     0.26609   0.25058   0.26215   0.00000  Uiso   1.00
C15    C     0.01288   0.24199   0.23334   0.00000  Uiso   1.00
C16    C     0.32037   0.25808   0.26720   0.00000  Uiso   1.00
C17    C     0.20615   0.05005   0.29276   0.00000  Uiso   1.00
C18    C     0.20898   0.45138   0.22076   0.00000  Uiso   1.00
C19    C     0.19926   0.09596   0.29185   0.00000  Uiso   1.00
C20    C     0.20186   0.40524   0.21919   0.00000  Uiso   1.00
C21    C     0.17317   0.11612   0.25109   0.00000  Uiso   1.00
C22    C     0.17284   0.38403   0.25087   0.00000  Uiso   1.00
C23    C     0.15450   0.09075   0.21088   0.00000  Uiso   1.00
C24    C     0.15125   0.40852   0.28459   0.00000  Uiso   1.00
C25    C     0.16033   0.04492   0.21187   0.00000  Uiso   1.00
C26    C     0.15724   0.45457   0.28570   0.00000  Uiso   1.00
C27    C     0.18585   0.02450   0.25266   0.00000  Uiso   1.00
C28    C     0.18579   0.47606   0.25383   0.00000  Uiso   1.00
H29    H     0.21479   0.11603   0.32258   0.00000  Uiso   1.00
H30    H     0.21952   0.38581   0.19386   0.00000  Uiso   1.00
H31    H     0.13453   0.10619   0.17920   0.00000  Uiso   1.00
H32    H     0.12895   0.39213   0.30929   0.00000  Uiso   1.00
H33    H     0.14393   0.02516   0.18122   0.00000  Uiso   1.00
H34    H     0.13864   0.47363   0.31067   0.00000  Uiso   1.00
H35    H     0.23998   0.28415   0.04370   0.00000  Uiso   1.00
H36    H     0.13328   0.18464   0.46164   0.00000  Uiso   1.00
N37    N     0.16667   0.24999   0.12624   0.00000  Uiso   1.00
N38    N     0.16667   0.25001   0.37377   0.00000  Uiso   1.00
O39    O     0.16667   0.18454   0.28974   0.00000  Uiso   1.00
O40    O     0.16666   0.31546   0.21026   0.00000  Uiso   1.00
O41    O     0.16667   0.18453   0.21026   0.00000  Uiso   1.00
O42    O     0.16666   0.31547   0.28974   0.00000  Uiso   1.00
O43    O     0.09058   0.25000   0.28045   0.00000  Uiso   1.00
O44    O     0.24275   0.25000   0.21956   0.00000  Uiso   1.00
O45    O     0.09058   0.24999   0.20097   0.00000  Uiso   1.00
O46    O     0.24275   0.25001   0.29904   0.00000  Uiso   1.00
Zn47   Zn    0.16667   0.25000   0.30307   0.00000  Uiso   1.00
Zn48   Zn    0.16667   0.24999   0.19693   0.00000  Uiso   1.00
Cl49   Cl    0.31967   0.20175   0.19005   0.00000  Uiso   1.00
Cl50   Cl    0.01302   0.29740   0.31180   0.00000  Uiso   1.00
C51    C     0.23419   0.02994   0.33472   0.00000  Uiso   1.00
N52    N     0.25665   0.01381   0.36831   0.00000  Uiso   1.00
C53    C     0.24023   0.47261   0.18863   0.00000  Uiso   1.00
N54    N     0.26526   0.48962   0.16292   0.00000  Uiso   1.00
Cl55   Cl    0.06335   0.21351   0.01303   0.00000  Uiso   1.00
Cl56   Cl    0.19936   0.34135   0.47809   0.00000  Uiso   1.00
C57    C     0.09391   0.19648   0.11737   0.00000  Uiso   1.00
N58    N     0.06724   0.17042   0.13270   0.00000  Uiso   1.00
C59    C     0.21906   0.31927   0.37978   0.00000  Uiso   1.00
N60    N     0.24386   0.34648   0.36380   0.00000  Uiso   1.00
C61    C     0.24559   0.29753   0.13539   0.00000  Uiso   1.00
N62    N     0.27828   0.31834   0.15814   0.00000  Uiso   1.00
C63    C     0.11651   0.17938   0.36878   0.00000  Uiso   1.00
N64    N     0.09368   0.15033   0.34757   0.00000  Uiso   1.00
C65    C     0.50084   0.16392   0.25014   0.00000  Uiso   1.00
C66    C     0.50075   0.33608   0.25009   0.00000  Uiso   1.00
C67    C     0.45620   0.23137   0.04738   0.00000  Uiso   1.00
C68    C     0.51760   0.28909   0.44930   0.00000  Uiso   1.00
C69    C     0.46101   0.22760   0.09730   0.00000  Uiso   1.00
C70    C     0.52216   0.28556   0.40055   0.00000  Uiso   1.00
C71    C     0.53850   0.27200   0.10651   0.00000  Uiso   1.00
C72    C     0.47762   0.21537   0.39571   0.00000  Uiso   1.00
C73    C     0.53953   0.27028   0.05742   0.00000  Uiso   1.00
C74    C     0.47992   0.21461   0.44522   0.00000  Uiso   1.00
C75    C     0.49724   0.25169   0.02634   0.00000  Uiso   1.00
C76    C     0.49788   0.25222   0.47311   0.00000  Uiso   1.00
C77    C     0.40053   0.24953   0.23794   0.00000  Uiso   1.00
C78    C     0.59943   0.25058   0.26215   0.00000  Uiso   1.00
C79    C     0.34621   0.24199   0.23334   0.00000  Uiso   1.00
C80    C     0.65370   0.25808   0.26720   0.00000  Uiso   1.00
C81    C     0.53948   0.05005   0.29276   0.00000  Uiso   1.00
C82    C     0.54232   0.45138   0.22076   0.00000  Uiso   1.00
C83    C     0.53260   0.09596   0.29185   0.00000  Uiso   1.00
C84    C     0.53519   0.40524   0.21919   0.00000  Uiso   1.00
C85    C     0.50651   0.11612   0.25109   0.00000  Uiso   1.00
C86    C     0.50618   0.38403   0.25087   0.00000  Uiso   1.00
C87    C     0.48784   0.09075   0.21088   0.00000  Uiso   1.00
C88    C     0.48459   0.40852   0.28459   0.00000  Uiso   1.00
C89    C     0.49366   0.04492   0.21187   0.00000  Uiso   1.00
C90    C     0.49057   0.45457   0.28570   0.00000  Uiso   1.00
C91    C     0.51918   0.02450   0.25266   0.00000  Uiso   1.00
C92    C     0.51913   0.47606   0.25383   0.00000  Uiso   1.00
H93    H     0.54812   0.11603   0.32258   0.00000  Uiso   1.00
H94    H     0.55285   0.38581   0.19386   0.00000  Uiso   1.00
H95    H     0.46787   0.10619   0.17920   0.00000  Uiso   1.00
H96    H     0.46229   0.39213   0.30929   0.00000  Uiso   1.00
H97    H     0.47727   0.02516   0.18122   0.00000  Uiso   1.00
H98    H     0.47197   0.47363   0.31067   0.00000  Uiso   1.00
H99    H     0.57332   0.28415   0.04370   0.00000  Uiso   1.00
H100   H     0.46662   0.18464   0.46164   0.00000  Uiso   1.00
N101   N     0.50000   0.24999   0.12624   0.00000  Uiso   1.00
N102   N     0.50000   0.25001   0.37377   0.00000  Uiso   1.00
O103   O     0.50000   0.18454   0.28974   0.00000  Uiso   1.00
O104   O     0.50000   0.31546   0.21026   0.00000  Uiso   1.00
O105   O     0.50000   0.18453   0.21026   0.00000  Uiso   1.00
O106   O     0.50000   0.31547   0.28974   0.00000  Uiso   1.00
O107   O     0.42392   0.25000   0.28045   0.00000  Uiso   1.00
O108   O     0.57608   0.25000   0.21956   0.00000  Uiso   1.00
O109   O     0.42392   0.24999   0.20097   0.00000  Uiso   1.00
O110   O     0.57608   0.25001   0.29904   0.00000  Uiso   1.00
Zn111  Zn    0.50000   0.25000   0.30307   0.00000  Uiso   1.00
Zn112  Zn    0.50000   0.24999   0.19693   0.00000  Uiso   1.00
Cl113  Cl    0.65300   0.20175   0.19005   0.00000  Uiso   1.00
Cl114  Cl    0.34635   0.29740   0.31180   0.00000  Uiso   1.00
C115   C     0.56753   0.02994   0.33472   0.00000  Uiso   1.00
N116   N     0.58998   0.01381   0.36831   0.00000  Uiso   1.00
C117   C     0.57356   0.47261   0.18863   0.00000  Uiso   1.00
N118   N     0.59859   0.48962   0.16292   0.00000  Uiso   1.00
Cl119  Cl    0.39668   0.21351   0.01303   0.00000  Uiso   1.00
Cl120  Cl    0.53269   0.34135   0.47809   0.00000  Uiso   1.00
C121   C     0.42724   0.19648   0.11737   0.00000  Uiso   1.00
N122   N     0.40057   0.17042   0.13270   0.00000  Uiso   1.00
C123   C     0.55240   0.31927   0.37978   0.00000  Uiso   1.00
N124   N     0.57719   0.34648   0.36380   0.00000  Uiso   1.00
C125   C     0.57892   0.29753   0.13539   0.00000  Uiso   1.00
N126   N     0.61161   0.31834   0.15814   0.00000  Uiso   1.00
C127   C     0.44984   0.17938   0.36878   0.00000  Uiso   1.00
N128   N     0.42701   0.15033   0.34757   0.00000  Uiso   1.00
C129   C     0.83417   0.16392   0.25014   0.00000  Uiso   1.00
C130   C     0.83408   0.33608   0.25009   0.00000  Uiso   1.00
C131   C     0.78953   0.23137   0.04738   0.00000  Uiso   1.00
C132   C     0.85093   0.28909   0.44930   0.00000  Uiso   1.00
C133   C     0.79434   0.22760   0.09730   0.00000  Uiso   1.00
C134   C     0.85549   0.28556   0.40055   0.00000  Uiso   1.00
C135   C     0.87184   0.27200   0.10651   0.00000  Uiso   1.00
C136   C     0.81095   0.21537   0.39571   0.00000  Uiso   1.00
C137   C     0.87286   0.27028   0.05742   0.00000  Uiso   1.00
C138   C     0.81325   0.21461   0.44522   0.00000  Uiso   1.00
C139   C     0.83058   0.25169   0.02634   0.00000  Uiso   1.00
C140   C     0.83121   0.25222   0.47311   0.00000  Uiso   1.00
C141   C     0.73386   0.24953   0.23794   0.00000  Uiso   1.00
C142   C     0.93276   0.25058   0.26215   0.00000  Uiso   1.00
C143   C     0.67954   0.24199   0.23334   0.00000  Uiso   1.00
C144   C     0.98703   0.25808   0.26720   0.00000  Uiso   1.00
C145   C     0.87282   0.05005   0.29276   0.00000  Uiso   1.00
C146   C     0.87565   0.45138   0.22076   0.00000  Uiso   1.00
C147   C     0.86593   0.09596   0.29185   0.00000  Uiso   1.00
C148   C     0.86853   0.40524   0.21919   0.00000  Uiso   1.00
C149   C     0.83984   0.11612   0.25109   0.00000  Uiso   1.00
C150   C     0.83951   0.38403   0.25087   0.00000  Uiso   1.00
C151   C     0.82117   0.09075   0.21088   0.00000  Uiso   1.00
C152   C     0.81792   0.40852   0.28459   0.00000  Uiso   1.00
C153   C     0.82700   0.04492   0.21187   0.00000  Uiso   1.00
C154   C     0.82391   0.45457   0.28570   0.00000  Uiso   1.00
C155   C     0.85252   0.02450   0.25266   0.00000  Uiso   1.00
C156   C     0.85246   0.47606   0.25383   0.00000  Uiso   1.00
H157   H     0.88146   0.11603   0.32258   0.00000  Uiso   1.00
H158   H     0.88619   0.38581   0.19386   0.00000  Uiso   1.00
H159   H     0.80120   0.10619   0.17920   0.00000  Uiso   1.00
H160   H     0.79562   0.39213   0.30929   0.00000  Uiso   1.00
H161   H     0.81060   0.02516   0.18122   0.00000  Uiso   1.00
H162   H     0.80531   0.47363   0.31067   0.00000  Uiso   1.00
H163   H     0.90665   0.28415   0.04370   0.00000  Uiso   1.00
H164   H     0.79995   0.18464   0.46164   0.00000  Uiso   1.00
N165   N     0.83333   0.24999   0.12624   0.00000  Uiso   1.00
N166   N     0.83333   0.25001   0.37377   0.00000  Uiso   1.00
O167   O     0.83334   0.18454   0.28974   0.00000  Uiso   1.00
O168   O     0.83333   0.31546   0.21026   0.00000  Uiso   1.00
O169   O     0.83334   0.18453   0.21026   0.00000  Uiso   1.00
O170   O     0.83333   0.31547   0.28974   0.00000  Uiso   1.00
O171   O     0.75725   0.25000   0.28045   0.00000  Uiso   1.00
O172   O     0.90942   0.25000   0.21956   0.00000  Uiso   1.00
O173   O     0.75725   0.24999   0.20097   0.00000  Uiso   1.00
O174   O     0.90942   0.25001   0.29904   0.00000  Uiso   1.00
Zn175  Zn    0.83333   0.25000   0.30307   0.00000  Uiso   1.00
Zn176  Zn    0.83333   0.24999   0.19693   0.00000  Uiso   1.00
Cl177  Cl    0.98634   0.20175   0.19005   0.00000  Uiso   1.00
Cl178  Cl    0.67969   0.29740   0.31180   0.00000  Uiso   1.00
C179   C     0.90086   0.02994   0.33472   0.00000  Uiso   1.00
N180   N     0.92331   0.01381   0.36831   0.00000  Uiso   1.00
C181   C     0.90690   0.47261   0.18863   0.00000  Uiso   1.00
N182   N     0.93193   0.48962   0.16292   0.00000  Uiso   1.00
Cl183  Cl    0.73001   0.21351   0.01303   0.00000  Uiso   1.00
Cl184  Cl    0.86602   0.34135   0.47809   0.00000  Uiso   1.00
C185   C     0.76058   0.19648   0.11737   0.00000  Uiso   1.00
N186   N     0.73391   0.17042   0.13270   0.00000  Uiso   1.00
C187   C     0.88573   0.31927   0.37978   0.00000  Uiso   1.00
N188   N     0.91053   0.34648   0.36380   0.00000  Uiso   1.00
C189   C     0.91226   0.29753   0.13539   0.00000  Uiso   1.00
N190   N     0.94495   0.31834   0.15814   0.00000  Uiso   1.00
C191   C     0.78317   0.17938   0.36878   0.00000  Uiso   1.00
N192   N     0.76035   0.15033   0.34757   0.00000  Uiso   1.00
C193   C     0.16750   0.66392   0.25014   0.00000  Uiso   1.00
C194   C     0.16741   0.83608   0.25009   0.00000  Uiso   1.00
C195   C     0.12286   0.73137   0.04738   0.00000  Uiso   1.00
C196   C     0.18427   0.78909   0.44930   0.00000  Uiso   1.00
C197   C     0.12768   0.72760   0.09730   0.00000  Uiso   1.00
C198   C     0.18883   0.78556   0.40055   0.00000  Uiso   1.00
C199   C     0.20517   0.77200   0.10651   0.00000  Uiso   1.00
C200   C     0.14429   0.71537   0.39571   0.00000  Uiso   1.00
C201   C     0.20619   0.77028   0.05742   0.00000  Uiso   1.00
C202   C     0.14658   0.71461   0.44522   0.00000  Uiso   1.00
C203   C     0.16391   0.75169   0.02634   0.00000  Uiso   1.00
C204   C     0.16454   0.75222   0.47311   0.00000  Uiso   1.00
C205   C     0.06719   0.74953   0.23794   0.00000  Uiso   1.00
C206   C     0.26609   0.75058   0.26215   0.00000  Uiso   1.00
C207   C     0.01288   0.74199   0.23334   0.00000  Uiso   1.00
C208   C     0.32037   0.75808   0.26720   0.00000  Uiso   1.00
C209   C     0.20615   0.55005   0.29276   0.00000  Uiso   1.00
C210   C     0.20898   0.95138   0.22076   0.00000  Uiso   1.00
C211   C     0.19926   0.59596   0.29185   0.00000  Uiso   1.00
C212   C     0.20186   0.90524   0.21919   0.00000  Uiso   1.00
C213   C     0.17317   0.61612   0.25109   0.00000  Uiso   1.00
C214   C     0.17284   0.88403   0.25087   0.00000  Uiso   1.00
C215   C     0.15450   0.59075   0.21088   0.00000  Uiso   1.00
C216   C     0.15125   0.90852   0.28459   0.00000  Uiso   1.00
C217   C     0.16033   0.54492   0.21187   0.00000  Uiso   1.00
C218   C     0.15724   0.95457   0.28570   0.00000  Uiso   1.00
C219   C     0.18585   0.52450   0.25266   0.00000  Uiso   1.00
C220   C     0.18579   0.97606   0.25383   0.00000  Uiso   1.00
H221   H     0.21479   0.61603   0.32258   0.00000  Uiso   1.00
H222   H     0.21952   0.88581   0.19386   0.00000  Uiso   1.00
H223   H     0.13453   0.60619   0.17920   0.00000  Uiso   1.00
H224   H     0.12895   0.89213   0.30929   0.00000  Uiso   1.00
H225   H     0.14393   0.52516   0.18122   0.00000  Uiso   1.00
H226   H     0.13864   0.97363   0.31067   0.00000  Uiso   1.00
H227   H     0.23998   0.78415   0.04370   0.00000  Uiso   1.00
H228   H     0.13328   0.68464   0.46164   0.00000  Uiso   1.00
N229   N     0.16667   0.74999   0.12624   0.00000  Uiso   1.00
N230   N     0.16667   0.75001   0.37377   0.00000  Uiso   1.00
O231   O     0.16667   0.68454   0.28974   0.00000  Uiso   1.00
O232   O     0.16666   0.81546   0.21026   0.00000  Uiso   1.00
O233   O     0.16667   0.68453   0.21026   0.00000  Uiso   1.00
O234   O     0.16666   0.81547   0.28974   0.00000  Uiso   1.00
O235   O     0.09058   0.75000   0.28045   0.00000  Uiso   1.00
O236   O     0.24275   0.75000   0.21956   0.00000  Uiso   1.00
O237   O     0.09058   0.74999   0.20097   0.00000  Uiso   1.00
O238   O     0.24275   0.75001   0.29904   0.00000  Uiso   1.00
Zn239  Zn    0.16667   0.75000   0.30307   0.00000  Uiso   1.00
Zn240  Zn    0.16667   0.74999   0.19693   0.00000  Uiso   1.00
Cl241  Cl    0.31967   0.70175   0.19005   0.00000  Uiso   1.00
Cl242  Cl    0.01302   0.79740   0.31180   0.00000  Uiso   1.00
C243   C     0.23419   0.52994   0.33472   0.00000  Uiso   1.00
N244   N     0.25665   0.51381   0.36831   0.00000  Uiso   1.00
C245   C     0.24023   0.97261   0.18863   0.00000  Uiso   1.00
N246   N     0.26526   0.98962   0.16292   0.00000  Uiso   1.00
Cl247  Cl    0.06335   0.71351   0.01303   0.00000  Uiso   1.00
Cl248  Cl    0.19936   0.84135   0.47809   0.00000  Uiso   1.00
C249   C     0.09391   0.69648   0.11737   0.00000  Uiso   1.00
N250   N     0.06724   0.67042   0.13270   0.00000  Uiso   1.00
C251   C     0.21906   0.81927   0.37978   0.00000  Uiso   1.00
N252   N     0.24386   0.84648   0.36380   0.00000  Uiso   1.00
C253   C     0.24559   0.79753   0.13539   0.00000  Uiso   1.00
N254   N     0.27828   0.81834   0.15814   0.00000  Uiso   1.00
C255   C     0.11651   0.67938   0.36878   0.00000  Uiso   1.00
N256   N     0.09368   0.65033   0.34757   0.00000  Uiso   1.00
C257   C     0.50084   0.66392   0.25014   0.00000  Uiso   1.00
C258   C     0.50075   0.83608   0.25009   0.00000  Uiso   1.00
C259   C     0.45620   0.73137   0.04738   0.00000  Uiso   1.00
C260   C     0.51760   0.78909   0.44930   0.00000  Uiso   1.00
C261   C     0.46101   0.72760   0.09730   0.00000  Uiso   1.00
C262   C     0.52216   0.78556   0.40055   0.00000  Uiso   1.00
C263   C     0.53850   0.77200   0.10651   0.00000  Uiso   1.00
C264   C     0.47762   0.71537   0.39571   0.00000  Uiso   1.00
C265   C     0.53953   0.77028   0.05742   0.00000  Uiso   1.00
C266   C     0.47992   0.71461   0.44522   0.00000  Uiso   1.00
C267   C     0.49724   0.75169   0.02634   0.00000  Uiso   1.00
C268   C     0.49788   0.75222   0.47311   0.00000  Uiso   1.00
C269   C     0.40053   0.74953   0.23794   0.00000  Uiso   1.00
C270   C     0.59943   0.75058   0.26215   0.00000  Uiso   1.00
C271   C     0.34621   0.74199   0.23334   0.00000  Uiso   1.00
C272   C     0.65370   0.75808   0.26720   0.00000  Uiso   1.00
C273   C     0.53948   0.55005   0.29276   0.00000  Uiso   1.00
C274   C     0.54232   0.95138   0.22076   0.00000  Uiso   1.00
C275   C     0.53260   0.59596   0.29185   0.00000  Uiso   1.00
C276   C     0.53519   0.90524   0.21919   0.00000  Uiso   1.00
C277   C     0.50651   0.61612   0.25109   0.00000  Uiso   1.00
C278   C     0.50618   0.88403   0.25087   0.00000  Uiso   1.00
C279   C     0.48784   0.59075   0.21088   0.00000  Uiso   1.00
C280   C     0.48459   0.90852   0.28459   0.00000  Uiso   1.00
C281   C     0.49366   0.54492   0.21187   0.00000  Uiso   1.00
C282   C     0.49057   0.95457   0.28570   0.00000  Uiso   1.00
C283   C     0.51918   0.52450   0.25266   0.00000  Uiso   1.00
C284   C     0.51913   0.97606   0.25383   0.00000  Uiso   1.00
H285   H     0.54812   0.61603   0.32258   0.00000  Uiso   1.00
H286   H     0.55285   0.88581   0.19386   0.00000  Uiso   1.00
H287   H     0.46787   0.60619   0.17920   0.00000  Uiso   1.00
H288   H     0.46229   0.89213   0.30929   0.00000  Uiso   1.00
H289   H     0.47727   0.52516   0.18122   0.00000  Uiso   1.00
H290   H     0.47197   0.97363   0.31067   0.00000  Uiso   1.00
H291   H     0.57332   0.78415   0.04370   0.00000  Uiso   1.00
H292   H     0.46662   0.68464   0.46164   0.00000  Uiso   1.00
N293   N     0.50000   0.74999   0.12624   0.00000  Uiso   1.00
N294   N     0.50000   0.75001   0.37377   0.00000  Uiso   1.00
O295   O     0.50000   0.68454   0.28974   0.00000  Uiso   1.00
O296   O     0.50000   0.81546   0.21026   0.00000  Uiso   1.00
O297   O     0.50000   0.68453   0.21026   0.00000  Uiso   1.00
O298   O     0.50000   0.81547   0.28974   0.00000  Uiso   1.00
O299   O     0.42392   0.75000   0.28045   0.00000  Uiso   1.00
O300   O     0.57608   0.75000   0.21956   0.00000  Uiso   1.00
O301   O     0.42392   0.74999   0.20097   0.00000  Uiso   1.00
O302   O     0.57608   0.75001   0.29904   0.00000  Uiso   1.00
Zn303  Zn    0.50000   0.75000   0.30307   0.00000  Uiso   1.00
Zn304  Zn    0.50000   0.74999   0.19693   0.00000  Uiso   1.00
Cl305  Cl    0.65300   0.70175   0.19005   0.00000  Uiso   1.00
Cl306  Cl    0.34635   0.79740   0.31180   0.00000  Uiso   1.00
C307   C     0.56753   0.52994   0.33472   0.00000  Uiso   1.00
N308   N     0.58998   0.51381   0.36831   0.00000  Uiso   1.00
C309   C     0.57356   0.97261   0.18863   0.00000  Uiso   1.00
N310   N     0.59859   0.98962   0.16292   0.00000  Uiso   1.00
Cl311  Cl    0.39668   0.71351   0.01303   0.00000  Uiso   1.00
Cl312  Cl    0.53269   0.84135   0.47809   0.00000  Uiso   1.00
C313   C     0.42724   0.69648   0.11737   0.00000  Uiso   1.00
N314   N     0.40057   0.67042   0.13270   0.00000  Uiso   1.00
C315   C     0.55240   0.81927   0.37978   0.00000  Uiso   1.00
N316   N     0.57719   0.84648   0.36380   0.00000  Uiso   1.00
C317   C     0.57892   0.79753   0.13539   0.00000  Uiso   1.00
N318   N     0.61161   0.81834   0.15814   0.00000  Uiso   1.00
C319   C     0.44984   0.67938   0.36878   0.00000  Uiso   1.00
N320   N     0.42701   0.65033   0.34757   0.00000  Uiso   1.00
C321   C     0.83417   0.66392   0.25014   0.00000  Uiso   1.00
C322   C     0.83408   0.83608   0.25009   0.00000  Uiso   1.00
C323   C     0.78953   0.73137   0.04738   0.00000  Uiso   1.00
C324   C     0.85093   0.78909   0.44930   0.00000  Uiso   1.00
C325   C     0.79434   0.72760   0.09730   0.00000  Uiso   1.00
C326   C     0.85549   0.78556   0.40055   0.00000  Uiso   1.00
C327   C     0.87184   0.77200   0.10651   0.00000  Uiso   1.00
C328   C     0.81095   0.71537   0.39571   0.00000  Uiso   1.00
C329   C     0.87286   0.77028   0.05742   0.00000  Uiso   1.00
C330   C     0.81325   0.71461   0.44522   0.00000  Uiso   1.00
C331   C     0.83058   0.75169   0.02634   0.00000  Uiso   1.00
C332   C     0.83121   0.75222   0.47311   0.00000  Uiso   1.00
C333   C     0.73386   0.74953   0.23794   0.00000  Uiso   1.00
C334   C     0.93276   0.75058   0.26215   0.00000  Uiso   1.00
C335   C     0.67954   0.74199   0.23334   0.00000  Uiso   1.00
C336   C     0.98703   0.75808   0.26720   0.00000  Uiso   1.00
C337   C     0.87282   0.55005   0.29276   0.00000  Uiso   1.00
C338   C     0.87565   0.95138   0.22076   0.00000  Uiso   1.00
C339   C     0.86593   0.59596   0.29185   0.00000  Uiso   1.00
C340   C     0.86853   0.90524   0.21919   0.00000  Uiso   1.00
C341   C     0.83984   0.61612   0.25109   0.00000  Uiso   1.00
C342   C     0.83951   0.88403   0.25087   0.00000  Uiso   1.00
C343   C     0.82117   0.59075   0.21088   0.00000  Uiso   1.00
C344   C     0.81792   0.90852   0.28459   0.00000  Uiso   1.00
C345   C     0.82700   0.54492   0.21187   0.00000  Uiso   1.00
C346   C     0.82391   0.95457   0.28570   0.00000  Uiso   1.00
C347   C     0.85252   0.52450   0.25266   0.00000  Uiso   1.00
C348   C     0.85246   0.97606   0.25383   0.00000  Uiso   1.00
H349   H     0.88146   0.61603   0.32258   0.00000  Uiso   1.00
H350   H     0.88619   0.88581   0.19386   0.00000  Uiso   1.00
H351   H     0.80120   0.60619   0.17920   0.00000  Uiso   1.00
H352   H     0.79562   0.89213   0.30929   0.00000  Uiso   1.00
H353   H     0.81060   0.52516   0.18122   0.00000  Uiso   1.00
H354   H     0.80531   0.97363   0.31067   0.00000  Uiso   1.00
H355   H     0.90665   0.78415   0.04370   0.00000  Uiso   1.00
H356   H     0.79995   0.68464   0.46164   0.00000  Uiso   1.00
N357   N     0.83333   0.74999   0.12624   0.00000  Uiso   1.00
N358   N     0.83333   0.75001   0.37377   0.00000  Uiso   1.00
O359   O     0.83334   0.68454   0.28974   0.00000  Uiso   1.00
O360   O     0.83333   0.81546   0.21026   0.00000  Uiso   1.00
O361   O     0.83334   0.68453   0.21026   0.00000  Uiso   1.00
O362   O     0.83333   0.81547   0.28974   0.00000  Uiso   1.00
O363   O     0.75725   0.75000   0.28045   0.00000  Uiso   1.00
O364   O     0.90942   0.75000   0.21956   0.00000  Uiso   1.00
O365   O     0.75725   0.74999   0.20097   0.00000  Uiso   1.00
O366   O     0.90942   0.75001   0.29904   0.00000  Uiso   1.00
Zn367  Zn    0.83333   0.75000   0.30307   0.00000  Uiso   1.00
Zn368  Zn    0.83333   0.74999   0.19693   0.00000  Uiso   1.00
Cl369  Cl    0.98634   0.70175   0.19005   0.00000  Uiso   1.00
Cl370  Cl    0.67969   0.79740   0.31180   0.00000  Uiso   1.00
C371   C     0.90086   0.52994   0.33472   0.00000  Uiso   1.00
N372   N     0.92331   0.51381   0.36831   0.00000  Uiso   1.00
C373   C     0.90690   0.97261   0.18863   0.00000  Uiso   1.00
N374   N     0.93193   0.98962   0.16292   0.00000  Uiso   1.00
Cl375  Cl    0.73001   0.71351   0.01303   0.00000  Uiso   1.00
Cl376  Cl    0.86602   0.84135   0.47809   0.00000  Uiso   1.00
C377   C     0.76058   0.69648   0.11737   0.00000  Uiso   1.00
N378   N     0.73391   0.67042   0.13270   0.00000  Uiso   1.00
C379   C     0.88573   0.81927   0.37978   0.00000  Uiso   1.00
N380   N     0.91053   0.84648   0.36380   0.00000  Uiso   1.00
C381   C     0.91226   0.79753   0.13539   0.00000  Uiso   1.00
N382   N     0.94495   0.81834   0.15814   0.00000  Uiso   1.00
C383   C     0.78317   0.67938   0.36878   0.00000  Uiso   1.00
N384   N     0.76035   0.65033   0.34757   0.00000  Uiso   1.00
C385   C     0.16750   0.16392   0.75014   0.00000  Uiso   1.00
C386   C     0.16741   0.33608   0.75009   0.00000  Uiso   1.00
C387   C     0.12286   0.23137   0.54738   0.00000  Uiso   1.00
C388   C     0.18427   0.28909   0.94930   0.00000  Uiso   1.00
C389   C     0.12768   0.22760   0.59730   0.00000  Uiso   1.00
C390   C     0.18883   0.28556   0.90055   0.00000  Uiso   1.00
C391   C     0.20517   0.27200   0.60651   0.00000  Uiso   1.00
C392   C     0.14429   0.21537   0.89571   0.00000  Uiso   1.00
C393   C     0.20619   0.27028   0.55742   0.00000  Uiso   1.00
C394   C     0.14658   0.21461   0.94522   0.00000  Uiso   1.00
C395   C     0.16391   0.25169   0.52634   0.00000  Uiso   1.00
C396   C     0.16454   0.25222   0.97311   0.00000  Uiso   1.00
C397   C     0.06719   0.24953   0.73794   0.00000  Uiso   1.00
C398   C     0.26609   0.25058   0.76215   0.00000  Uiso   1.00
C399   C     0.01288   0.24199   0.73334   0.00000  Uiso   1.00
C400   C     0.32037   0.25808   0.76720   0.00000  Uiso   1.00
C401   C     0.20615   0.05005   0.79276   0.00000  Uiso   1.00
C402   C     0.20898   0.45138   0.72076   0.00000  Uiso   1.00
C403   C     0.19926   0.09596   0.79185   0.00000  Uiso   1.00
C404   C     0.20186   0.40524   0.71919   0.00000  Uiso   1.00
C405   C     0.17317   0.11612   0.75109   0.00000  Uiso   1.00
C406   C     0.17284   0.38403   0.75087   0.00000  Uiso   1.00
C407   C     0.15450   0.09075   0.71088   0.00000  Uiso   1.00
C408   C     0.15125   0.40852   0.78459   0.00000  Uiso   1.00
C409   C     0.16033   0.04492   0.71187   0.00000  Uiso   1.00
C410   C     0.15724   0.45457   0.78570   0.00000  Uiso   1.00
C411   C     0.18585   0.02450   0.75266   0.00000  Uiso   1.00
C412   C     0.18579   0.47606   0.75383   0.00000  Uiso   1.00
H413   H     0.21479   0.11603   0.82258   0.00000  Uiso   1.00
H414   H     0.21952   0.38581   0.69386   0.00000  Uiso   1.00
H415   H     0.13453   0.10619   0.67920   0.00000  Uiso   1.00
H416   H     0.12895   0.39213   0.80929   0.00000  Uiso   1.00
H417   H     0.14393   0.02516   0.68122   0.00000  Uiso   1.00
H418   H     0.13864   0.47363   0.81067   0.00000  Uiso   1.00
H419   H     0.23998   0.28415   0.54370   0.00000  Uiso   1.00
H420   H     0.13328   0.18464   0.96164   0.00000  Uiso   1.00
N421   N     0.16667   0.24999   0.62624   0.00000  Uiso   1.00
N422   N     0.16667   0.25001   0.87377   0.00000  Uiso   1.00
O423   O     0.16667   0.18454   0.78974   0.00000  Uiso   1.00
O424   O     0.16666   0.31546   0.71026   0.00000  Uiso   1.00
O425   O     0.16667   0.18453   0.71026   0.00000  Uiso   1.00
O426   O     0.16666   0.31547   0.78974   0.00000  Uiso   1.00
O427   O     0.09058   0.25000   0.78045   0.00000  Uiso   1.00
O428   O     0.24275   0.25000   0.71956   0.00000  Uiso   1.00
O429   O     0.09058   0.24999   0.70097   0.00000  Uiso   1.00
O430   O     0.24275   0.25001   0.79904   0.00000  Uiso   1.00
Zn431  Zn    0.16667   0.25000   0.80307   0.00000  Uiso   1.00
Zn432  Zn    0.16667   0.24999   0.69693   0.00000  Uiso   1.00
Cl433  Cl    0.31967   0.20175   0.69005   0.00000  Uiso   1.00
Cl434  Cl    0.01302   0.29740   0.81180   0.00000  Uiso   1.00
C435   C     0.23419   0.02994   0.83472   0.00000  Uiso   1.00
N436   N     0.25665   0.01381   0.86831   0.00000  Uiso   1.00
C437   C     0.24023   0.47261   0.68863   0.00000  Uiso   1.00
N438   N     0.26526   0.48962   0.66292   0.00000  Uiso   1.00
Cl439  Cl    0.06335   0.21351   0.51303   0.00000  Uiso   1.00
Cl440  Cl    0.19936   0.34135   0.97809   0.00000  Uiso   1.00
C441   C     0.09391   0.19648   0.61737   0.00000  Uiso   1.00
N442   N     0.06724   0.17042   0.63270   0.00000  Uiso   1.00
C443   C     0.21906   0.31927   0.87978   0.00000  Uiso   1.00
N444   N     0.24386   0.34648   0.86380   0.00000  Uiso   1.00
C445   C     0.24559   0.29753   0.63539   0.00000  Uiso   1.00
N446   N     0.27828   0.31834   0.65814   0.00000  Uiso   1.00
C447   C     0.11651   0.17938   0.86878   0.00000  Uiso   1.00
N448   N     0.09368   0.15033   0.84757   0.00000  Uiso   1.00
C449   C     0.50084   0.16392   0.75014   0.00000  Uiso   1.00
C450   C     0.50075   0.33608   0.75009   0.00000  Uiso   1.00
C451   C     0.45620   0.23137   0.54738   0.00000  Uiso   1.00
C452   C     0.51760   0.28909   0.94930   0.00000  Uiso   1.00
C453   C     0.46101   0.22760   0.59730   0.00000  Uiso   1.00
C454   C     0.52216   0.28556   0.90055   0.00000  Uiso   1.00
C455   C     0.53850   0.27200   0.60651   0.00000  Uiso   1.00
C456   C     0.47762   0.21537   0.89571   0.00000  Uiso   1.00
C457   C     0.53953   0.27028   0.55742   0.00000  Uiso   1.00
C458   C     0.47992   0.21461   0.94522   0.00000  Uiso   1.00
C459   C     0.49724   0.25169   0.52634   0.00000  Uiso   1.00
C460   C     0.49788   0.25222   0.97311   0.00000  Uiso   1.00
C461   C     0.40053   0.24953   0.73794   0.00000  Uiso   1.00
C462   C     0.59943   0.25058   0.76215   0.00000  Uiso   1.00
C463   C     0.34621   0.24199   0.73334   0.00000  Uiso   1.00
C464   C     0.65370   0.25808   0.76720   0.00000  Uiso   1.00
C465   C     0.53948   0.05005   0.79276   0.00000  Uiso   1.00
C466   C     0.54232   0.45138   0.72076   0.00000  Uiso   1.00
C467   C     0.53260   0.09596   0.79185   0.00000  Uiso   1.00
C468   C     0.53519   0.40524   0.71919   0.00000  Uiso   1.00
C469   C     0.50651   0.11612   0.75109   0.00000  Uiso   1.00
C470   C     0.50618   0.38403   0.75087   0.00000  Uiso   1.00
C471   C     0.48784   0.09075   0.71088   0.00000  Uiso   1.00
C472   C     0.48459   0.40852   0.78459   0.00000  Uiso   1.00
C473   C     0.49366   0.04492   0.71187   0.00000  Uiso   1.00
C474   C     0.49057   0.45457   0.78570   0.00000  Uiso   1.00
C475   C     0.51918   0.02450   0.75266   0.00000  Uiso   1.00
C476   C     0.51913   0.47606   0.75383   0.00000  Uiso   1.00
H477   H     0.54812   0.11603   0.82258   0.00000  Uiso   1.00
H478   H     0.55285   0.38581   0.69386   0.00000  Uiso   1.00
H479   H     0.46787   0.10619   0.67920   0.00000  Uiso   1.00
H480   H     0.46229   0.39213   0.80929   0.00000  Uiso   1.00
H481   H     0.47727   0.02516   0.68122   0.00000  Uiso   1.00
H482   H     0.47197   0.47363   0.81067   0.00000  Uiso   1.00
H483   H     0.57332   0.28415   0.54370   0.00000  Uiso   1.00
H484   H     0.46662   0.18464   0.96164   0.00000  Uiso   1.00
N485   N     0.50000   0.24999   0.62624   0.00000  Uiso   1.00
N486   N     0.50000   0.25001   0.87377   0.00000  Uiso   1.00
O487   O     0.50000   0.18454   0.78974   0.00000  Uiso   1.00
O488   O     0.50000   0.31546   0.71026   0.00000  Uiso   1.00
O489   O     0.50000   0.18453   0.71026   0.00000  Uiso   1.00
O490   O     0.50000   0.31547   0.78974   0.00000  Uiso   1.00
O491   O     0.42392   0.25000   0.78045   0.00000  Uiso   1.00
O492   O     0.57608   0.25000   0.71956   0.00000  Uiso   1.00
O493   O     0.42392   0.24999   0.70097   0.00000  Uiso   1.00
O494   O     0.57608   0.25001   0.79904   0.00000  Uiso   1.00
Zn495  Zn    0.50000   0.25000   0.80307   0.00000  Uiso   1.00
Zn496  Zn    0.50000   0.24999   0.69693   0.00000  Uiso   1.00
Cl497  Cl    0.65300   0.20175   0.69005   0.00000  Uiso   1.00
Cl498  Cl    0.34635   0.29740   0.81180   0.00000  Uiso   1.00
C499   C     0.56753   0.02994   0.83472   0.00000  Uiso   1.00
N500   N     0.58998   0.01381   0.86831   0.00000  Uiso   1.00
C501   C     0.57356   0.47261   0.68863   0.00000  Uiso   1.00
N502   N     0.59859   0.48962   0.66292   0.00000  Uiso   1.00
Cl503  Cl    0.39668   0.21351   0.51303   0.00000  Uiso   1.00
Cl504  Cl    0.53269   0.34135   0.97809   0.00000  Uiso   1.00
C505   C     0.42724   0.19648   0.61737   0.00000  Uiso   1.00
N506   N     0.40057   0.17042   0.63270   0.00000  Uiso   1.00
C507   C     0.55240   0.31927   0.87978   0.00000  Uiso   1.00
N508   N     0.57719   0.34648   0.86380   0.00000  Uiso   1.00
C509   C     0.57892   0.29753   0.63539   0.00000  Uiso   1.00
N510   N     0.61161   0.31834   0.65814   0.00000  Uiso   1.00
C511   C     0.44984   0.17938   0.86878   0.00000  Uiso   1.00
N512   N     0.42701   0.15033   0.84757   0.00000  Uiso   1.00
C513   C     0.83417   0.16392   0.75014   0.00000  Uiso   1.00
C514   C     0.83408   0.33608   0.75009   0.00000  Uiso   1.00
C515   C     0.78953   0.23137   0.54738   0.00000  Uiso   1.00
C516   C     0.85093   0.28909   0.94930   0.00000  Uiso   1.00
C517   C     0.79434   0.22760   0.59730   0.00000  Uiso   1.00
C518   C     0.85549   0.28556   0.90055   0.00000  Uiso   1.00
C519   C     0.87184   0.27200   0.60651   0.00000  Uiso   1.00
C520   C     0.81095   0.21537   0.89571   0.00000  Uiso   1.00
C521   C     0.87286   0.27028   0.55742   0.00000  Uiso   1.00
C522   C     0.81325   0.21461   0.94522   0.00000  Uiso   1.00
C523   C     0.83058   0.25169   0.52634   0.00000  Uiso   1.00
C524   C     0.83121   0.25222   0.97311   0.00000  Uiso   1.00
C525   C     0.73386   0.24953   0.73794   0.00000  Uiso   1.00
C526   C     0.93276   0.25058   0.76215   0.00000  Uiso   1.00
C527   C     0.67954   0.24199   0.73334   0.00000  Uiso   1.00
C528   C     0.98703   0.25808   0.76720   0.00000  Uiso   1.00
C529   C     0.87282   0.05005   0.79276   0.00000  Uiso   1.00
C530   C     0.87565   0.45138   0.72076   0.00000  Uiso   1.00
C531   C     0.86593   0.09596   0.79185   0.00000  Uiso   1.00
C532   C     0.86853   0.40524   0.71919   0.00000  Uiso   1.00
C533   C     0.83984   0.11612   0.75109   0.00000  Uiso   1.00
C534   C     0.83951   0.38403   0.75087   0.00000  Uiso   1.00
C535   C     0.82117   0.09075   0.71088   0.00000  Uiso   1.00
C536   C     0.81792   0.40852   0.78459   0.00000  Uiso   1.00
C537   C     0.82700   0.04492   0.71187   0.00000  Uiso   1.00
C538   C     0.82391   0.45457   0.78570   0.00000  Uiso   1.00
C539   C     0.85252   0.02450   0.75266   0.00000  Uiso   1.00
C540   C     0.85246   0.47606   0.75383   0.00000  Uiso   1.00
H541   H     0.88146   0.11603   0.82258   0.00000  Uiso   1.00
H542   H     0.88619   0.38581   0.69386   0.00000  Uiso   1.00
H543   H     0.80120   0.10619   0.67920   0.00000  Uiso   1.00
H544   H     0.79562   0.39213   0.80929   0.00000  Uiso   1.00
H545   H     0.81060   0.02516   0.68122   0.00000  Uiso   1.00
H546   H     0.80531   0.47363   0.81067   0.00000  Uiso   1.00
H547   H     0.90665   0.28415   0.54370   0.00000  Uiso   1.00
H548   H     0.79995   0.18464   0.96164   0.00000  Uiso   1.00
N549   N     0.83333   0.24999   0.62624   0.00000  Uiso   1.00
N550   N     0.83333   0.25001   0.87377   0.00000  Uiso   1.00
O551   O     0.83334   0.18454   0.78974   0.00000  Uiso   1.00
O552   O     0.83333   0.31546   0.71026   0.00000  Uiso   1.00
O553   O     0.83334   0.18453   0.71026   0.00000  Uiso   1.00
O554   O     0.83333   0.31547   0.78974   0.00000  Uiso   1.00
O555   O     0.75725   0.25000   0.78045   0.00000  Uiso   1.00
O556   O     0.90942   0.25000   0.71956   0.00000  Uiso   1.00
O557   O     0.75725   0.24999   0.70097   0.00000  Uiso   1.00
O558   O     0.90942   0.25001   0.79904   0.00000  Uiso   1.00
Zn559  Zn    0.83333   0.25000   0.80307   0.00000  Uiso   1.00
Zn560  Zn    0.83333   0.24999   0.69693   0.00000  Uiso   1.00
Cl561  Cl    0.98634   0.20175   0.69005   0.00000  Uiso   1.00
Cl562  Cl    0.67969   0.29740   0.81180   0.00000  Uiso   1.00
C563   C     0.90086   0.02994   0.83472   0.00000  Uiso   1.00
N564   N     0.92331   0.01381   0.86831   0.00000  Uiso   1.00
C565   C     0.90690   0.47261   0.68863   0.00000  Uiso   1.00
N566   N     0.93193   0.48962   0.66292   0.00000  Uiso   1.00
Cl567  Cl    0.73001   0.21351   0.51303   0.00000  Uiso   1.00
Cl568  Cl    0.86602   0.34135   0.97809   0.00000  Uiso   1.00
C569   C     0.76058   0.19648   0.61737   0.00000  Uiso   1.00
N570   N     0.73391   0.17042   0.63270   0.00000  Uiso   1.00
C571   C     0.88573   0.31927   0.87978   0.00000  Uiso   1.00
N572   N     0.91053   0.34648   0.86380   0.00000  Uiso   1.00
C573   C     0.91226   0.29753   0.63539   0.00000  Uiso   1.00
N574   N     0.94495   0.31834   0.65814   0.00000  Uiso   1.00
C575   C     0.78317   0.17938   0.86878   0.00000  Uiso   1.00
N576   N     0.76035   0.15033   0.84757   0.00000  Uiso   1.00
C577   C     0.16750   0.66392   0.75014   0.00000  Uiso   1.00
C578   C     0.16741   0.83608   0.75009   0.00000  Uiso   1.00
C579   C     0.12286   0.73137   0.54738   0.00000  Uiso   1.00
C580   C     0.18427   0.78909   0.94930   0.00000  Uiso   1.00
C581   C     0.12768   0.72760   0.59730   0.00000  Uiso   1.00
C582   C     0.18883   0.78556   0.90055   0.00000  Uiso   1.00
C583   C     0.20517   0.77200   0.60651   0.00000  Uiso   1.00
C584   C     0.14429   0.71537   0.89571   0.00000  Uiso   1.00
C585   C     0.20619   0.77028   0.55742   0.00000  Uiso   1.00
C586   C     0.14658   0.71461   0.94522   0.00000  Uiso   1.00
C587   C     0.16391   0.75169   0.52634   0.00000  Uiso   1.00
C588   C     0.16454   0.75222   0.97311   0.00000  Uiso   1.00
C589   C     0.06719   0.74953   0.73794   0.00000  Uiso   1.00
C590   C     0.26609   0.75058   0.76215   0.00000  Uiso   1.00
C591   C     0.01288   0.74199   0.73334   0.00000  Uiso   1.00
C592   C     0.32037   0.75808   0.76720   0.00000  Uiso   1.00
C593   C     0.20615   0.55005   0.79276   0.00000  Uiso   1.00
C594   C     0.20898   0.95138   0.72076   0.00000  Uiso   1.00
C595   C     0.19926   0.59596   0.79185   0.00000  Uiso   1.00
C596   C     0.20186   0.90524   0.71919   0.00000  Uiso   1.00
C597   C     0.17317   0.61612   0.75109   0.00000  Uiso   1.00
C598   C     0.17284   0.88403   0.75087   0.00000  Uiso   1.00
C599   C     0.15450   0.59075   0.71088   0.00000  Uiso   1.00
C600   C     0.15125   0.90852   0.78459   0.00000  Uiso   1.00
C601   C     0.16033   0.54492   0.71187   0.00000  Uiso   1.00
C602   C     0.15724   0.95457   0.78570   0.00000  Uiso   1.00
C603   C     0.18585   0.52450   0.75266   0.00000  Uiso   1.00
C604   C     0.18579   0.97606   0.75383   0.00000  Uiso   1.00
H605   H     0.21479   0.61603   0.82258   0.00000  Uiso   1.00
H606   H     0.21952   0.88581   0.69386   0.00000  Uiso   1.00
H607   H     0.13453   0.60619   0.67920   0.00000  Uiso   1.00
H608   H     0.12895   0.89213   0.80929   0.00000  Uiso   1.00
H609   H     0.14393   0.52516   0.68122   0.00000  Uiso   1.00
H610   H     0.13864   0.97363   0.81067   0.00000  Uiso   1.00
H611   H     0.23998   0.78415   0.54370   0.00000  Uiso   1.00
H612   H     0.13328   0.68464   0.96164   0.00000  Uiso   1.00
N613   N     0.16667   0.74999   0.62624   0.00000  Uiso   1.00
N614   N     0.16667   0.75001   0.87377   0.00000  Uiso   1.00
O615   O     0.16667   0.68454   0.78974   0.00000  Uiso   1.00
O616   O     0.16666   0.81546   0.71026   0.00000  Uiso   1.00
O617   O     0.16667   0.68453   0.71026   0.00000  Uiso   1.00
O618   O     0.16666   0.81547   0.78974   0.00000  Uiso   1.00
O619   O     0.09058   0.75000   0.78045   0.00000  Uiso   1.00
O620   O     0.24275   0.75000   0.71956   0.00000  Uiso   1.00
O621   O     0.09058   0.74999   0.70097   0.00000  Uiso   1.00
O622   O     0.24275   0.75001   0.79904   0.00000  Uiso   1.00
Zn623  Zn    0.16667   0.75000   0.80307   0.00000  Uiso   1.00
Zn624  Zn    0.16667   0.74999   0.69693   0.00000  Uiso   1.00
Cl625  Cl    0.31967   0.70175   0.69005   0.00000  Uiso   1.00
Cl626  Cl    0.01302   0.79740   0.81180   0.00000  Uiso   1.00
C627   C     0.23419   0.52994   0.83472   0.00000  Uiso   1.00
N628   N     0.25665   0.51381   0.86831   0.00000  Uiso   1.00
C629   C     0.24023   0.97261   0.68863   0.00000  Uiso   1.00
N630   N     0.26526   0.98962   0.66292   0.00000  Uiso   1.00
Cl631  Cl    0.06335   0.71351   0.51303   0.00000  Uiso   1.00
Cl632  Cl    0.19936   0.84135   0.97809   0.00000  Uiso   1.00
C633   C     0.09391   0.69648   0.61737   0.00000  Uiso   1.00
N634   N     0.06724   0.67042   0.63270   0.00000  Uiso   1.00
C635   C     0.21906   0.81927   0.87978   0.00000  Uiso   1.00
N636   N     0.24386   0.84648   0.86380   0.00000  Uiso   1.00
C637   C     0.24559   0.79753   0.63539   0.00000  Uiso   1.00
N638   N     0.27828   0.81834   0.65814   0.00000  Uiso   1.00
C639   C     0.11651   0.67938   0.86878   0.00000  Uiso   1.00
N640   N     0.09368   0.65033   0.84757   0.00000  Uiso   1.00
C641   C     0.50084   0.66392   0.75014   0.00000  Uiso   1.00
C642   C     0.50075   0.83608   0.75009   0.00000  Uiso   1.00
C643   C     0.45620   0.73137   0.54738   0.00000  Uiso   1.00
C644   C     0.51760   0.78909   0.94930   0.00000  Uiso   1.00
C645   C     0.46101   0.72760   0.59730   0.00000  Uiso   1.00
C646   C     0.52216   0.78556   0.90055   0.00000  Uiso   1.00
C647   C     0.53850   0.77200   0.60651   0.00000  Uiso   1.00
C648   C     0.47762   0.71537   0.89571   0.00000  Uiso   1.00
C649   C     0.53953   0.77028   0.55742   0.00000  Uiso   1.00
C650   C     0.47992   0.71461   0.94522   0.00000  Uiso   1.00
C651   C     0.49724   0.75169   0.52634   0.00000  Uiso   1.00
C652   C     0.49788   0.75222   0.97311   0.00000  Uiso   1.00
C653   C     0.40053   0.74953   0.73794   0.00000  Uiso   1.00
C654   C     0.59943   0.75058   0.76215   0.00000  Uiso   1.00
C655   C     0.34621   0.74199   0.73334   0.00000  Uiso   1.00
C656   C     0.65370   0.75808   0.76720   0.00000  Uiso   1.00
C657   C     0.53948   0.55005   0.79276   0.00000  Uiso   1.00
C658   C     0.54232   0.95138   0.72076   0.00000  Uiso   1.00
C659   C     0.53260   0.59596   0.79185   0.00000  Uiso   1.00
C660   C     0.53519   0.90524   0.71919   0.00000  Uiso   1.00
C661   C     0.50651   0.61612   0.75109   0.00000  Uiso   1.00
C662   C     0.50618   0.88403   0.75087   0.00000  Uiso   1.00
C663   C     0.48784   0.59075   0.71088   0.00000  Uiso   1.00
C664   C     0.48459   0.90852   0.78459   0.00000  Uiso   1.00
C665   C     0.49366   0.54492   0.71187   0.00000  Uiso   1.00
C666   C     0.49057   0.95457   0.78570   0.00000  Uiso   1.00
C667   C     0.51918   0.52450   0.75266   0.00000  Uiso   1.00
C668   C     0.51913   0.97606   0.75383   0.00000  Uiso   1.00
H669   H     0.54812   0.61603   0.82258   0.00000  Uiso   1.00
H670   H     0.55285   0.88581   0.69386   0.00000  Uiso   1.00
H671   H     0.46787   0.60619   0.67920   0.00000  Uiso   1.00
H672   H     0.46229   0.89213   0.80929   0.00000  Uiso   1.00
H673   H     0.47727   0.52516   0.68122   0.00000  Uiso   1.00
H674   H     0.47197   0.97363   0.81067   0.00000  Uiso   1.00
H675   H     0.57332   0.78415   0.54370   0.00000  Uiso   1.00
H676   H     0.46662   0.68464   0.96164   0.00000  Uiso   1.00
N677   N     0.50000   0.74999   0.62624   0.00000  Uiso   1.00
N678   N     0.50000   0.75001   0.87377   0.00000  Uiso   1.00
O679   O     0.50000   0.68454   0.78974   0.00000  Uiso   1.00
O680   O     0.50000   0.81546   0.71026   0.00000  Uiso   1.00
O681   O     0.50000   0.68453   0.71026   0.00000  Uiso   1.00
O682   O     0.50000   0.81547   0.78974   0.00000  Uiso   1.00
O683   O     0.42392   0.75000   0.78045   0.00000  Uiso   1.00
O684   O     0.57608   0.75000   0.71956   0.00000  Uiso   1.00
O685   O     0.42392   0.74999   0.70097   0.00000  Uiso   1.00
O686   O     0.57608   0.75001   0.79904   0.00000  Uiso   1.00
Zn687  Zn    0.50000   0.75000   0.80307   0.00000  Uiso   1.00
Zn688  Zn    0.50000   0.74999   0.69693   0.00000  Uiso   1.00
Cl689  Cl    0.65300   0.70175   0.69005   0.00000  Uiso   1.00
Cl690  Cl    0.34635   0.79740   0.81180   0.00000  Uiso   1.00
C691   C     0.56753   0.52994   0.83472   0.00000  Uiso   1.00
N692   N     0.58998   0.51381   0.86831   0.00000  Uiso   1.00
C693   C     0.57356   0.97261   0.68863   0.00000  Uiso   1.00
N694   N     0.59859   0.98962   0.66292   0.00000  Uiso   1.00
Cl695  Cl    0.39668   0.71351   0.51303   0.00000  Uiso   1.00
Cl696  Cl    0.53269   0.84135   0.97809   0.00000  Uiso   1.00
C697   C     0.42724   0.69648   0.61737   0.00000  Uiso   1.00
N698   N     0.40057   0.67042   0.63270   0.00000  Uiso   1.00
C699   C     0.55240   0.81927   0.87978   0.00000  Uiso   1.00
N700   N     0.57719   0.84648   0.86380   0.00000  Uiso   1.00
C701   C     0.57892   0.79753   0.63539   0.00000  Uiso   1.00
N702   N     0.61161   0.81834   0.65814   0.00000  Uiso   1.00
C703   C     0.44984   0.67938   0.86878   0.00000  Uiso   1.00
N704   N     0.42701   0.65033   0.84757   0.00000  Uiso   1.00
C705   C     0.83417   0.66392   0.75014   0.00000  Uiso   1.00
C706   C     0.83408   0.83608   0.75009   0.00000  Uiso   1.00
C707   C     0.78953   0.73137   0.54738   0.00000  Uiso   1.00
C708   C     0.85093   0.78909   0.94930   0.00000  Uiso   1.00
C709   C     0.79434   0.72760   0.59730   0.00000  Uiso   1.00
C710   C     0.85549   0.78556   0.90055   0.00000  Uiso   1.00
C711   C     0.87184   0.77200   0.60651   0.00000  Uiso   1.00
C712   C     0.81095   0.71537   0.89571   0.00000  Uiso   1.00
C713   C     0.87286   0.77028   0.55742   0.00000  Uiso   1.00
C714   C     0.81325   0.71461   0.94522   0.00000  Uiso   1.00
C715   C     0.83058   0.75169   0.52634   0.00000  Uiso   1.00
C716   C     0.83121   0.75222   0.97311   0.00000  Uiso   1.00
C717   C     0.73386   0.74953   0.73794   0.00000  Uiso   1.00
C718   C     0.93276   0.75058   0.76215   0.00000  Uiso   1.00
C719   C     0.67954   0.74199   0.73334   0.00000  Uiso   1.00
C720   C     0.98703   0.75808   0.76720   0.00000  Uiso   1.00
C721   C     0.87282   0.55005   0.79276   0.00000  Uiso   1.00
C722   C     0.87565   0.95138   0.72076   0.00000  Uiso   1.00
C723   C     0.86593   0.59596   0.79185   0.00000  Uiso   1.00
C724   C     0.86853   0.90524   0.71919   0.00000  Uiso   1.00
C725   C     0.83984   0.61612   0.75109   0.00000  Uiso   1.00
C726   C     0.83951   0.88403   0.75087   0.00000  Uiso   1.00
C727   C     0.82117   0.59075   0.71088   0.00000  Uiso   1.00
C728   C     0.81792   0.90852   0.78459   0.00000  Uiso   1.00
C729   C     0.82700   0.54492   0.71187   0.00000  Uiso   1.00
C730   C     0.82391   0.95457   0.78570   0.00000  Uiso   1.00
C731   C     0.85252   0.52450   0.75266   0.00000  Uiso   1.00
C732   C     0.85246   0.97606   0.75383   0.00000  Uiso   1.00
H733   H     0.88146   0.61603   0.82258   0.00000  Uiso   1.00
H734   H     0.88619   0.88581   0.69386   0.00000  Uiso   1.00
H735   H     0.80120   0.60619   0.67920   0.00000  Uiso   1.00
H736   H     0.79562   0.89213   0.80929   0.00000  Uiso   1.00
H737   H     0.81060   0.52516   0.68122   0.00000  Uiso   1.00
H738   H     0.80531   0.97363   0.81067   0.00000  Uiso   1.00
H739   H     0.90665   0.78415   0.54370   0.00000  Uiso   1.00
H740   H     0.79995   0.68464   0.96164   0.00000  Uiso   1.00
N741   N     0.83333   0.74999   0.62624   0.00000  Uiso   1.00
N742   N     0.83333   0.75001   0.87377   0.00000  Uiso   1.00
O743   O     0.83334   0.68454   0.78974   0.00000  Uiso   1.00
O744   O     0.83333   0.81546   0.71026   0.00000  Uiso   1.00
O745   O     0.83334   0.68453   0.71026   0.00000  Uiso   1.00
O746   O     0.83333   0.81547   0.78974   0.00000  Uiso   1.00
O747   O     0.75725   0.75000   0.78045   0.00000  Uiso   1.00
O748   O     0.90942   0.75000   0.71956   0.00000  Uiso   1.00
O749   O     0.75725   0.74999   0.70097   0.00000  Uiso   1.00
O750   O     0.90942   0.75001   0.79904   0.00000  Uiso   1.00
Zn751  Zn    0.83333   0.75000   0.80307   0.00000  Uiso   1.00
Zn752  Zn    0.83333   0.74999   0.69693   0.00000  Uiso   1.00
Cl753  Cl    0.98634   0.70175   0.69005   0.00000  Uiso   1.00
Cl754  Cl    0.67969   0.79740   0.81180   0.00000  Uiso   1.00
C755   C     0.90086   0.52994   0.83472   0.00000  Uiso   1.00
N756   N     0.92331   0.51381   0.86831   0.00000  Uiso   1.00
C757   C     0.90690   0.97261   0.68863   0.00000  Uiso   1.00
N758   N     0.93193   0.98962   0.66292   0.00000  Uiso   1.00
Cl759  Cl    0.73001   0.71351   0.51303   0.00000  Uiso   1.00
Cl760  Cl    0.86602   0.84135   0.97809   0.00000  Uiso   1.00
C761   C     0.76058   0.69648   0.61737   0.00000  Uiso   1.00
N762   N     0.73391   0.67042   0.63270   0.00000  Uiso   1.00
C763   C     0.88573   0.81927   0.87978   0.00000  Uiso   1.00
N764   N     0.91053   0.84648   0.86380   0.00000  Uiso   1.00
C765   C     0.91226   0.79753   0.63539   0.00000  Uiso   1.00
N766   N     0.94495   0.81834   0.65814   0.00000  Uiso   1.00
C767   C     0.78317   0.67938   0.86878   0.00000  Uiso   1.00
N768   N     0.76035   0.65033   0.84757   0.00000  Uiso   1.00
loop_
_geom_bond_atom_site_label_1
_geom_bond_atom_site_label_2
_geom_bond_distance
_geom_bond_site_symmetry_2
_ccdc_geom_bond_type
C1     C21     1.437   .     S
C1     O39     1.290   .     A
C1     O41     1.292   .     A
C2     C22     1.435   .     S
C2     O42     1.291   .     A
C2     O40     1.291   .     A
C3     C11     1.418   .     A
C3     Cl55    1.772   .     S
C3     C5      1.417   .     A
C4     Cl56    1.772   .     S
C4     C6      1.418   .     A
C4     C12     1.417   .     A
C5     N37     1.369   .     A
C5     C57     1.436   .     S
C6     N38     1.373   .     A
C6     C59     1.441   .     S
C7     C9      1.407   .     A
C7     N37     1.369   .     A
C7     C61     1.438   .     S
C8     N38     1.369   .     A
C8     C63     1.438   .     S
C8     C10     1.406   .     A
C9     C11     1.408   .     A
C9     H35     1.082   .     S
C10    C12     1.407   .     A
C10    H36     1.082   .     S
C11    C396    1.523   1_554 S
C12    C395    1.523   .     S
C13    C15     1.404   .     S
C13    O45     1.291   .     A
C13    O43     1.275   .     A
C14    C16     1.403   .     S
C14    O46     1.288   .     A
C14    O44     1.277   .     A
C15    C144    1.347   1_455 S
C15    Cl177   1.777   1_455 S
C16    C79     1.347   .     S
C16    Cl114   1.780   .     S
C17    C51     1.445   .     S
C17    C19     1.386   .     A
C17    C27     1.406   .     A
C18    C28     1.406   .     A
C18    C20     1.385   .     A
C18    C53     1.445   .     S
C19    C21     1.401   .     A
C19    H29     1.085   .     S
C20    H30     1.084   .     S
C20    C22     1.399   .     A
C21    C23     1.396   .     A
C22    C24     1.395   .     A
C23    C25     1.379   .     A
C23    H31     1.083   .     S
C24    H32     1.084   .     S
C24    C26     1.380   .     A
C25    C27     1.399   .     A
C25    H33     1.084   .     S
C26    C28     1.399   .     A
C26    H34     1.084   .     S
C27    C220    1.446   1_545 S
C28    C219    1.446   .     S
N37    Zn48    2.019   .     S
N38    Zn47    2.019   .     S
O39    Zn47    1.991   .     S
O40    Zn48    1.991   .     S
O41    Zn48    1.991   .     S
O42    Zn47    1.991   .     S
O43    Zn47    1.979   .     S
O44    Zn48    1.979   .     S
O45    Zn48    1.987   .     S
O46    Zn47    1.987   .     S
Cl49   C79     1.777   .     S
Cl50   C144    1.780   1_455 S
C51    N52     1.157   .     T
C53    N54     1.157   .     T
C57    N58     1.156   .     T
C59    N60     1.158   .     T
C61    N62     1.158   .     T
C63    N64     1.158   .     T
C65    C85     1.437   .     S
C65    O103    1.290   .     A
C65    O105    1.292   .     A
C66    C86     1.435   .     S
C66    O106    1.291   .     A
C66    O104    1.291   .     A
C67    C75     1.418   .     A
C67    Cl119   1.772   .     S
C67    C69     1.417   .     A
C68    Cl120   1.772   .     S
C68    C70     1.418   .     A
C68    C76     1.417   .     A
C69    N101    1.369   .     A
C69    C121    1.436   .     S
C70    N102    1.373   .     A
C70    C123    1.441   .     S
C71    C73     1.407   .     A
C71    N101    1.369   .     A
C71    C125    1.438   .     S
C72    N102    1.369   .     A
C72    C127    1.438   .     S
C72    C74     1.406   .     A
C73    C75     1.408   .     A
C73    H99     1.082   .     S
C74    C76     1.407   .     A
C74    H100    1.082   .     S
C75    C460    1.523   1_554 S
C76    C459    1.523   .     S
C77    C79     1.404   .     S
C77    O109    1.291   .     A
C77    O107    1.275   .     A
C78    C80     1.403   .     S
C78    O110    1.288   .     A
C78    O108    1.277   .     A
C80    C143    1.347   .     S
C80    Cl178   1.780   .     S
C81    C115    1.445   .     S
C81    C83     1.386   .     A
C81    C91     1.406   .     A
C82    C92     1.406   .     A
C82    C84     1.385   .     A
C82    C117    1.445   .     S
C83    C85     1.401   .     A
C83    H93     1.085   .     S
C84    H94     1.084   .     S
C84    C86     1.399   .     A
C85    C87     1.396   .     A
C86    C88     1.395   .     A
C87    C89     1.379   .     A
C87    H95     1.083   .     S
C88    H96     1.084   .     S
C88    C90     1.380   .     A
C89    C91     1.399   .     A
C89    H97     1.084   .     S
C90    C92     1.399   .     A
C90    H98     1.084   .     S
C91    C284    1.446   1_545 S
C92    C283    1.446   .     S
N101   Zn112   2.019   .     S
N102   Zn111   2.019   .     S
O103   Zn111   1.991   .     S
O104   Zn112   1.991   .     S
O105   Zn112   1.991   .     S
O106   Zn111   1.991   .     S
O107   Zn111   1.979   .     S
O108   Zn112   1.979   .     S
O109   Zn112   1.987   .     S
O110   Zn111   1.987   .     S
Cl113  C143    1.777   .     S
C115   N116    1.157   .     T
C117   N118    1.157   .     T
C121   N122    1.156   .     T
C123   N124    1.158   .     T
C125   N126    1.158   .     T
C127   N128    1.158   .     T
C129   C149    1.437   .     S
C129   O167    1.290   .     A
C129   O169    1.292   .     A
C130   C150    1.435   .     S
C130   O170    1.291   .     A
C130   O168    1.291   .     A
C131   C139    1.418   .     A
C131   Cl183   1.772   .     S
C131   C133    1.417   .     A
C132   Cl184   1.772   .     S
C132   C134    1.418   .     A
C132   C140    1.417   .     A
C133   N165    1.369   .     A
C133   C185    1.436   .     S
C134   N166    1.373   .     A
C134   C187    1.441   .     S
C135   C137    1.407   .     A
C135   N165    1.369   .     A
C135   C189    1.438   .     S
C136   N166    1.369   .     A
C136   C191    1.438   .     S
C136   C138    1.406   .     A
C137   C139    1.408   .     A
C137   H163    1.082   .     S
C138   C140    1.407   .     A
C138   H164    1.082   .     S
C139   C524    1.523   1_554 S
C140   C523    1.523   .     S
C141   C143    1.404   .     S
C141   O173    1.291   .     A
C141   O171    1.275   .     A
C142   C144    1.403   .     S
C142   O174    1.288   .     A
C142   O172    1.277   .     A
C144   C15     1.347   1_655 S
C144   Cl50    1.780   1_655 S
C145   C179    1.445   .     S
C145   C147    1.386   .     A
C145   C155    1.406   .     A
C146   C156    1.406   .     A
C146   C148    1.385   .     A
C146   C181    1.445   .     S
C147   C149    1.401   .     A
C147   H157    1.085   .     S
C148   H158    1.084   .     S
C148   C150    1.399   .     A
C149   C151    1.396   .     A
C150   C152    1.395   .     A
C151   C153    1.379   .     A
C151   H159    1.083   .     S
C152   H160    1.084   .     S
C152   C154    1.380   .     A
C153   C155    1.399   .     A
C153   H161    1.084   .     S
C154   C156    1.399   .     A
C154   H162    1.084   .     S
C155   C348    1.446   1_545 S
C156   C347    1.446   .     S
N165   Zn176   2.019   .     S
N166   Zn175   2.019   .     S
O167   Zn175   1.991   .     S
O168   Zn176   1.991   .     S
O169   Zn176   1.991   .     S
O170   Zn175   1.991   .     S
O171   Zn175   1.979   .     S
O172   Zn176   1.979   .     S
O173   Zn176   1.987   .     S
O174   Zn175   1.987   .     S
Cl177  C15     1.777   1_655 S
C179   N180    1.157   .     T
C181   N182    1.157   .     T
C185   N186    1.156   .     T
C187   N188    1.158   .     T
C189   N190    1.158   .     T
C191   N192    1.158   .     T
C193   C213    1.437   .     S
C193   O231    1.290   .     A
C193   O233    1.292   .     A
C194   C214    1.435   .     S
C194   O234    1.291   .     A
C194   O232    1.291   .     A
C195   C203    1.418   .     A
C195   Cl247   1.772   .     S
C195   C197    1.417   .     A
C196   Cl248   1.772   .     S
C196   C198    1.418   .     A
C196   C204    1.417   .     A
C197   N229    1.369   .     A
C197   C249    1.436   .     S
C198   N230    1.373   .     A
C198   C251    1.441   .     S
C199   C201    1.407   .     A
C199   N229    1.369   .     A
C199   C253    1.438   .     S
C200   N230    1.369   .     A
C200   C255    1.438   .     S
C200   C202    1.406   .     A
C201   C203    1.408   .     A
C201   H227    1.082   .     S
C202   C204    1.407   .     A
C202   H228    1.082   .     S
C203   C588    1.523   1_554 S
C204   C587    1.523   .     S
C205   C207    1.404   .     S
C205   O237    1.291   .     A
C205   O235    1.275   .     A
C206   C208    1.403   .     S
C206   O238    1.288   .     A
C206   O236    1.277   .     A
C207   C336    1.347   1_455 S
C207   Cl369   1.777   1_455 S
C208   C271    1.347   .     S
C208   Cl306   1.780   .     S
C209   C243    1.445   .     S
C209   C211    1.386   .     A
C209   C219    1.406   .     A
C210   C220    1.406   .     A
C210   C212    1.385   .     A
C210   C245    1.445   .     S
C211   C213    1.401   .     A
C211   H221    1.085   .     S
C212   H222    1.084   .     S
C212   C214    1.399   .     A
C213   C215    1.396   .     A
C214   C216    1.395   .     A
C215   C217    1.379   .     A
C215   H223    1.083   .     S
C216   H224    1.084   .     S
C216   C218    1.380   .     A
C217   C219    1.399   .     A
C217   H225    1.084   .     S
C218   C220    1.399   .     A
C218   H226    1.084   .     S
C220   C27     1.446   1_565 S
N229   Zn240   2.019   .     S
N230   Zn239   2.019   .     S
O231   Zn239   1.991   .     S
O232   Zn240   1.991   .     S
O233   Zn240   1.991   .     S
O234   Zn239   1.991   .     S
O235   Zn239   1.979   .     S
O236   Zn240   1.979   .     S
O237   Zn240   1.987   .     S
O238   Zn239   1.987   .     S
Cl241  C271    1.777   .     S
Cl242  C336    1.780   1_455 S
C243   N244    1.157   .     T
C245   N246    1.157   .     T
C249   N250    1.156   .     T
C251   N252    1.158   .     T
C253   N254    1.158   .     T
C255   N256    1.158   .     T
C257   C277    1.437   .     S
C257   O295    1.290   .     A
C257   O297    1.292   .     A
C258   C278    1.435   .     S
C258   O298    1.291   .     A
C258   O296    1.291   .     A
C259   C267    1.418   .     A
C259   Cl311   1.772   .     S
C259   C261    1.417   .     A
C260   Cl312   1.772   .     S
C260   C262    1.418   .     A
C260   C268    1.417   .     A
C261   N293    1.369   .     A
C261   C313    1.436   .     S
C262   N294    1.373   .     A
C262   C315    1.441   .     S
C263   C265    1.407   .     A
C263   N293    1.369   .     A
C263   C317    1.438   .     S
C264   N294    1.369   .     A
C264   C319    1.438   .     S
C264   C266    1.406   .     A
C265   C267    1.408   .     A
C265   H291    1.082   .     S
C266   C268    1.407   .     A
C266   H292    1.082   .     S
C267   C652    1.523   1_554 S
C268   C651    1.523   .     S
C269   C271    1.404   .     S
C269   O301    1.291   .     A
C269   O299    1.275   .     A
C270   C272    1.403   .     S
C270   O302    1.288   .     A
C270   O300    1.277   .     A
C272   C335    1.347   .     S
C272   Cl370   1.780   .     S
C273   C307    1.445   .     S
C273   C275    1.386   .     A
C273   C283    1.406   .     A
C274   C284    1.406   .     A
C274   C276    1.385   .     A
C274   C309    1.445   .     S
C275   C277    1.401   .     A
C275   H285    1.085   .     S
C276   H286    1.084   .     S
C276   C278    1.399   .     A
C277   C279    1.396   .     A
C278   C280    1.395   .     A
C279   C281    1.379   .     A
C279   H287    1.083   .     S
C280   H288    1.084   .     S
C280   C282    1.380   .     A
C281   C283    1.399   .     A
C281   H289    1.084   .     S
C282   C284    1.399   .     A
C282   H290    1.084   .     S
C284   C91     1.446   1_565 S
N293   Zn304   2.019   .     S
N294   Zn303   2.019   .     S
O295   Zn303   1.991   .     S
O296   Zn304   1.991   .     S
O297   Zn304   1.991   .     S
O298   Zn303   1.991   .     S
O299   Zn303   1.979   .     S
O300   Zn304   1.979   .     S
O301   Zn304   1.987   .     S
O302   Zn303   1.987   .     S
Cl305  C335    1.777   .     S
C307   N308    1.157   .     T
C309   N310    1.157   .     T
C313   N314    1.156   .     T
C315   N316    1.158   .     T
C317   N318    1.158   .     T
C319   N320    1.158   .     T
C321   C341    1.437   .     S
C321   O359    1.290   .     A
C321   O361    1.292   .     A
C322   C342    1.435   .     S
C322   O362    1.291   .     A
C322   O360    1.291   .     A
C323   C331    1.418   .     A
C323   Cl375   1.772   .     S
C323   C325    1.417   .     A
C324   Cl376   1.772   .     S
C324   C326    1.418   .     A
C324   C332    1.417   .     A
C325   N357    1.369   .     A
C325   C377    1.436   .     S
C326   N358    1.373   .     A
C326   C379    1.441   .     S
C327   C329    1.407   .     A
C327   N357    1.369   .     A
C327   C381    1.438   .     S
C328   N358    1.369   .     A
C328   C383    1.438   .     S
C328   C330    1.406   .     A
C329   C331    1.408   .     A
C329   H355    1.082   .     S
C330   C332    1.407   .     A
C330   H356    1.082   .     S
C331   C716    1.523   1_554 S
C332   C715    1.523   .     S
C333   C335    1.404   .     S
C333   O365    1.291   .     A
C333   O363    1.275   .     A
C334   C336    1.403   .     S
C334   O366    1.288   .     A
C334   O364    1.277   .     A
C336   C207    1.347   1_655 S
C336   Cl242   1.780   1_655 S
C337   C371    1.445   .     S
C337   C339    1.386   .     A
C337   C347    1.406   .     A
C338   C348    1.406   .     A
C338   C340    1.385   .     A
C338   C373    1.445   .     S
C339   C341    1.401   .     A
C339   H349    1.085   .     S
C340   H350    1.084   .     S
C340   C342    1.399   .     A
C341   C343    1.396   .     A
C342   C344    1.395   .     A
C343   C345    1.379   .     A
C343   H351    1.083   .     S
C344   H352    1.084   .     S
C344   C346    1.380   .     A
C345   C347    1.399   .     A
C345   H353    1.084   .     S
C346   C348    1.399   .     A
C346   H354    1.084   .     S
C348   C155    1.446   1_565 S
N357   Zn368   2.019   .     S
N358   Zn367   2.019   .     S
O359   Zn367   1.991   .     S
O360   Zn368   1.991   .     S
O361   Zn368   1.991   .     S
O362   Zn367   1.991   .     S
O363   Zn367   1.979   .     S
O364   Zn368   1.979   .     S
O365   Zn368   1.987   .     S
O366   Zn367   1.987   .     S
Cl369  C207    1.777   1_655 S
C371   N372    1.157   .     T
C373   N374    1.157   .     T
C377   N378    1.156   .     T
C379   N380    1.158   .     T
C381   N382    1.158   .     T
C383   N384    1.158   .     T
C385   C405    1.437   .     S
C385   O423    1.290   .     A
C385   O425    1.292   .     A
C386   C406    1.435   .     S
C386   O426    1.291   .     A
C386   O424    1.291   .     A
C387   C395    1.418   .     A
C387   Cl439   1.772   .     S
C387   C389    1.417   .     A
C388   Cl440   1.772   .     S
C388   C390    1.418   .     A
C388   C396    1.417   .     A
C389   N421    1.369   .     A
C389   C441    1.436   .     S
C390   N422    1.373   .     A
C390   C443    1.441   .     S
C391   C393    1.407   .     A
C391   N421    1.369   .     A
C391   C445    1.438   .     S
C392   N422    1.369   .     A
C392   C447    1.438   .     S
C392   C394    1.406   .     A
C393   C395    1.408   .     A
C393   H419    1.082   .     S
C394   C396    1.407   .     A
C394   H420    1.082   .     S
C396   C11     1.523   1_556 S
C397   C399    1.404   .     S
C397   O429    1.291   .     A
C397   O427    1.275   .     A
C398   C400    1.403   .     S
C398   O430    1.288   .     A
C398   O428    1.277   .     A
C399   C528    1.347   1_455 S
C399   Cl561   1.777   1_455 S
C400   C463    1.347   .     S
C400   Cl498   1.780   .     S
C401   C435    1.445   .     S
C401   C403    1.386   .     A
C401   C411    1.406   .     A
C402   C412    1.406   .     A
C402   C404    1.385   .     A
C402   C437    1.445   .     S
C403   C405    1.401   .     A
C403   H413    1.085   .     S
C404   H414    1.084   .     S
C404   C406    1.399   .     A
C405   C407    1.396   .     A
C406   C408    1.395   .     A
C407   C409    1.379   .     A
C407   H415    1.083   .     S
C408   H416    1.084   .     S
C408   C410    1.380   .     A
C409   C411    1.399   .     A
C409   H417    1.084   .     S
C410   C412    1.399   .     A
C410   H418    1.084   .     S
C411   C604    1.446   1_545 S
C412   C603    1.446   .     S
N421   Zn432   2.019   .     S
N422   Zn431   2.019   .     S
O423   Zn431   1.991   .     S
O424   Zn432   1.991   .     S
O425   Zn432   1.991   .     S
O426   Zn431   1.991   .     S
O427   Zn431   1.979   .     S
O428   Zn432   1.979   .     S
O429   Zn432   1.987   .     S
O430   Zn431   1.987   .     S
Cl433  C463    1.777   .     S
Cl434  C528    1.780   1_455 S
C435   N436    1.157   .     T
C437   N438    1.157   .     T
C441   N442    1.156   .     T
C443   N444    1.158   .     T
C445   N446    1.158   .     T
C447   N448    1.158   .     T
C449   C469    1.437   .     S
C449   O487    1.290   .     A
C449   O489    1.292   .     A
C450   C470    1.435   .     S
C450   O490    1.291   .     A
C450   O488    1.291   .     A
C451   C459    1.418   .     A
C451   Cl503   1.772   .     S
C451   C453    1.417   .     A
C452   Cl504   1.772   .     S
C452   C454    1.418   .     A
C452   C460    1.417   .     A
C453   N485    1.369   .     A
C453   C505    1.436   .     S
C454   N486    1.373   .     A
C454   C507    1.441   .     S
C455   C457    1.407   .     A
C455   N485    1.369   .     A
C455   C509    1.438   .     S
C456   N486    1.369   .     A
C456   C511    1.438   .     S
C456   C458    1.406   .     A
C457   C459    1.408   .     A
C457   H483    1.082   .     S
C458   C460    1.407   .     A
C458   H484    1.082   .     S
C460   C75     1.523   1_556 S
C461   C463    1.404   .     S
C461   O493    1.291   .     A
C461   O491    1.275   .     A
C462   C464    1.403   .     S
C462   O494    1.288   .     A
C462   O492    1.277   .     A
C464   C527    1.347   .     S
C464   Cl562   1.780   .     S
C465   C499    1.445   .     S
C465   C467    1.386   .     A
C465   C475    1.406   .     A
C466   C476    1.406   .     A
C466   C468    1.385   .     A
C466   C501    1.445   .     S
C467   C469    1.401   .     A
C467   H477    1.085   .     S
C468   H478    1.084   .     S
C468   C470    1.399   .     A
C469   C471    1.396   .     A
C470   C472    1.395   .     A
C471   C473    1.379   .     A
C471   H479    1.083   .     S
C472   H480    1.084   .     S
C472   C474    1.380   .     A
C473   C475    1.399   .     A
C473   H481    1.084   .     S
C474   C476    1.399   .     A
C474   H482    1.084   .     S
C475   C668    1.446   1_545 S
C476   C667    1.446   .     S
N485   Zn496   2.019   .     S
N486   Zn495   2.019   .     S
O487   Zn495   1.991   .     S
O488   Zn496   1.991   .     S
O489   Zn496   1.991   .     S
O490   Zn495   1.991   .     S
O491   Zn495   1.979   .     S
O492   Zn496   1.979   .     S
O493   Zn496   1.987   .     S
O494   Zn495   1.987   .     S
Cl497  C527    1.777   .     S
C499   N500    1.157   .     T
C501   N502    1.157   .     T
C505   N506    1.156   .     T
C507   N508    1.158   .     T
C509   N510    1.158   .     T
C511   N512    1.158   .     T
C513   C533    1.437   .     S
C513   O551    1.290   .     A
C513   O553    1.292   .     A
C514   C534    1.435   .     S
C514   O554    1.291   .     A
C514   O552    1.291   .     A
C515   C523    1.418   .     A
C515   Cl567   1.772   .     S
C515   C517    1.417   .     A
C516   Cl568   1.772   .     S
C516   C518    1.418   .     A
C516   C524    1.417   .     A
C517   N549    1.369   .     A
C517   C569    1.436   .     S
C518   N550    1.373   .     A
C518   C571    1.441   .     S
C519   C521    1.407   .     A
C519   N549    1.369   .     A
C519   C573    1.438   .     S
C520   N550    1.369   .     A
C520   C575    1.438   .     S
C520   C522    1.406   .     A
C521   C523    1.408   .     A
C521   H547    1.082   .     S
C522   C524    1.407   .     A
C522   H548    1.082   .     S
C524   C139    1.523   1_556 S
C525   C527    1.404   .     S
C525   O557    1.291   .     A
C525   O555    1.275   .     A
C526   C528    1.403   .     S
C526   O558    1.288   .     A
C526   O556    1.277   .     A
C528   C399    1.347   1_655 S
C528   Cl434   1.780   1_655 S
C529   C563    1.445   .     S
C529   C531    1.386   .     A
C529   C539    1.406   .     A
C530   C540    1.406   .     A
C530   C532    1.385   .     A
C530   C565    1.445   .     S
C531   C533    1.401   .     A
C531   H541    1.085   .     S
C532   H542    1.084   .     S
C532   C534    1.399   .     A
C533   C535    1.396   .     A
C534   C536    1.395   .     A
C535   C537    1.379   .     A
C535   H543    1.083   .     S
C536   H544    1.084   .     S
C536   C538    1.380   .     A
C537   C539    1.399   .     A
C537   H545    1.084   .     S
C538   C540    1.399   .     A
C538   H546    1.084   .     S
C539   C732    1.446   1_545 S
C540   C731    1.446   .     S
N549   Zn560   2.019   .     S
N550   Zn559   2.019   .     S
O551   Zn559   1.991   .     S
O552   Zn560   1.991   .     S
O553   Zn560   1.991   .     S
O554   Zn559   1.991   .     S
O555   Zn559   1.979   .     S
O556   Zn560   1.979   .     S
O557   Zn560   1.987   .     S
O558   Zn559   1.987   .     S
Cl561  C399    1.777   1_655 S
C563   N564    1.157   .     T
C565   N566    1.157   .     T
C569   N570    1.156   .     T
C571   N572    1.158   .     T
C573   N574    1.158   .     T
C575   N576    1.158   .     T
C577   C597    1.437   .     S
C577   O615    1.290   .     A
C577   O617    1.292   .     A
C578   C598    1.435   .     S
C578   O618    1.291   .     A
C578   O616    1.291   .     A
C579   C587    1.418   .     A
C579   Cl631   1.772   .     S
C579   C581    1.417   .     A
C580   Cl632   1.772   .     S
C580   C582    1.418   .     A
C580   C588    1.417   .     A
C581   N613    1.369   .     A
C581   C633    1.436   .     S
C582   N614    1.373   .     A
C582   C635    1.441   .     S
C583   C585    1.407   .     A
C583   N613    1.369   .     A
C583   C637    1.438   .     S
C584   N614    1.369   .     A
C584   C639    1.438   .     S
C584   C586    1.406   .     A
C585   C587    1.408   .     A
C585   H611    1.082   .     S
C586   C588    1.407   .     A
C586   H612    1.082   .     S
C588   C203    1.523   1_556 S
C589   C591    1.404   .     S
C589   O621    1.291   .     A
C589   O619    1.275   .     A
C590   C592    1.403   .     S
C590   O622    1.288   .     A
C590   O620    1.277   .     A
C591   C720    1.347   1_455 S
C591   Cl753   1.777   1_455 S
C592   C655    1.347   .     S
C592   Cl690   1.780   .     S
C593   C627    1.445   .     S
C593   C595    1.386   .     A
C593   C603    1.406   .     A
C594   C604    1.406   .     A
C594   C596    1.385   .     A
C594   C629    1.445   .     S
C595   C597    1.401   .     A
C595   H605    1.085   .     S
C596   H606    1.084   .     S
C596   C598    1.399   .     A
C597   C599    1.396   .     A
C598   C600    1.395   .     A
C599   C601    1.379   .     A
C599   H607    1.083   .     S
C600   H608    1.084   .     S
C600   C602    1.380   .     A
C601   C603    1.399   .     A
C601   H609    1.084   .     S
C602   C604    1.399   .     A
C602   H610    1.084   .     S
C604   C411    1.446   1_565 S
N613   Zn624   2.019   .     S
N614   Zn623   2.019   .     S
O615   Zn623   1.991   .     S
O616   Zn624   1.991   .     S
O617   Zn624   1.991   .     S
O618   Zn623   1.991   .     S
O619   Zn623   1.979   .     S
O620   Zn624   1.979   .     S
O621   Zn624   1.987   .     S
O622   Zn623   1.987   .     S
Cl625  C655    1.777   .     S
Cl626  C720    1.780   1_455 S
C627   N628    1.157   .     T
C629   N630    1.157   .     T
C633   N634    1.156   .     T
C635   N636    1.158   .     T
C637   N638    1.158   .     T
C639   N640    1.158   .     T
C641   C661    1.437   .     S
C641   O679    1.290   .     A
C641   O681    1.292   .     A
C642   C662    1.435   .     S
C642   O682    1.291   .     A
C642   O680    1.291   .     A
C643   C651    1.418   .     A
C643   Cl695   1.772   .     S
C643   C645    1.417   .     A
C644   Cl696   1.772   .     S
C644   C646    1.418   .     A
C644   C652    1.417   .     A
C645   N677    1.369   .     A
C645   C697    1.436   .     S
C646   N678    1.373   .     A
C646   C699    1.441   .     S
C647   C649    1.407   .     A
C647   N677    1.369   .     A
C647   C701    1.438   .     S
C648   N678    1.369   .     A
C648   C703    1.438   .     S
C648   C650    1.406   .     A
C649   C651    1.408   .     A
C649   H675    1.082   .     S
C650   C652    1.407   .     A
C650   H676    1.082   .     S
C652   C267    1.523   1_556 S
C653   C655    1.404   .     S
C653   O685    1.291   .     A
C653   O683    1.275   .     A
C654   C656    1.403   .     S
C654   O686    1.288   .     A
C654   O684    1.277   .     A
C656   C719    1.347   .     S
C656   Cl754   1.780   .     S
C657   C691    1.445   .     S
C657   C659    1.386   .     A
C657   C667    1.406   .     A
C658   C668    1.406   .     A
C658   C660    1.385   .     A
C658   C693    1.445   .     S
C659   C661    1.401   .     A
C659   H669    1.085   .     S
C660   H670    1.084   .     S
C660   C662    1.399   .     A
C661   C663    1.396   .     A
C662   C664    1.395   .     A
C663   C665    1.379   .     A
C663   H671    1.083   .     S
C664   H672    1.084   .     S
C664   C666    1.380   .     A
C665   C667    1.399   .     A
C665   H673    1.084   .     S
C666   C668    1.399   .     A
C666   H674    1.084   .     S
C668   C475    1.446   1_565 S
N677   Zn688   2.019   .     S
N678   Zn687   2.019   .     S
O679   Zn687   1.991   .     S
O680   Zn688   1.991   .     S
O681   Zn688   1.991   .     S
O682   Zn687   1.991   .     S
O683   Zn687   1.979   .     S
O684   Zn688   1.979   .     S
O685   Zn688   1.987   .     S
O686   Zn687   1.987   .     S
Cl689  C719    1.777   .     S
C691   N692    1.157   .     T
C693   N694    1.157   .     T
C697   N698    1.156   .     T
C699   N700    1.158   .     T
C701   N702    1.158   .     T
C703   N704    1.158   .     T
C705   C725    1.437   .     S
C705   O743    1.290   .     A
C705   O745    1.292   .     A
C706   C726    1.435   .     S
C706   O746    1.291   .     A
C706   O744    1.291   .     A
C707   C715    1.418   .     A
C707   Cl759   1.772   .     S
C707   C709    1.417   .     A
C708   Cl760   1.772   .     S
C708   C710    1.418   .     A
C708   C716    1.417   .     A
C709   N741    1.369   .     A
C709   C761    1.436   .     S
C710   N742    1.373   .     A
C710   C763    1.441   .     S
C711   C713    1.407   .     A
C711   N741    1.369   .     A
C711   C765    1.438   .     S
C712   N742    1.369   .     A
C712   C767    1.438   .     S
C712   C714    1.406   .     A
C713   C715    1.408   .     A
C713   H739    1.082   .     S
C714   C716    1.407   .     A
C714   H740    1.082   .     S
C716   C331    1.523   1_556 S
C717   C719    1.404   .     S
C717   O749    1.291   .     A
C717   O747    1.275   .     A
C718   C720    1.403   .     S
C718   O750    1.288   .     A
C718   O748    1.277   .     A
C720   C591    1.347   1_655 S
C720   Cl626   1.780   1_655 S
C721   C755    1.445   .     S
C721   C723    1.386   .     A
C721   C731    1.406   .     A
C722   C732    1.406   .     A
C722   C724    1.385   .     A
C722   C757    1.445   .     S
C723   C725    1.401   .     A
C723   H733    1.085   .     S
C724   H734    1.084   .     S
C724   C726    1.399   .     A
C725   C727    1.396   .     A
C726   C728    1.395   .     A
C727   C729    1.379   .     A
C727   H735    1.083   .     S
C728   H736    1.084   .     S
C728   C730    1.380   .     A
C729   C731    1.399   .     A
C729   H737    1.084   .     S
C730   C732    1.399   .     A
C730   H738    1.084   .     S
C732   C539    1.446   1_565 S
N741   Zn752   2.019   .     S
N742   Zn751   2.019   .     S
O743   Zn751   1.991   .     S
O744   Zn752   1.991   .     S
O745   Zn752   1.991   .     S
O746   Zn751   1.991   .     S
O747   Zn751   1.979   .     S
O748   Zn752   1.979   .     S
O749   Zn752   1.987   .     S
O750   Zn751   1.987   .     S
Cl753  C591    1.777   1_655 S
C755   N756    1.157   .     T
C757   N758    1.157   .     T
C761   N762    1.156   .     T
C763   N764    1.158   .     T
C765   N766    1.158   .     T
C767   N768    1.158   .     T
