data_str_m2_o2_o5_pcu_sym.15
_audit_creation_date              2020-01-03
_audit_creation_method            'Materials Studio'
_symmetry_space_group_name_H-M    'P1'
_symmetry_Int_Tables_number       1
_symmetry_cell_setting            triclinic
loop_
_symmetry_equiv_pos_as_xyz
  x,y,z
_cell_length_a                    30.4569
_cell_length_b                    27.9184
_cell_length_c                    27.2393
_cell_angle_alpha                 90.0005
_cell_angle_beta                  92.9663
_cell_angle_gamma                 90.0013
loop_
_atom_site_label
_atom_site_type_symbol
_atom_site_fract_x
_atom_site_fract_y
_atom_site_fract_z
_atom_site_U_iso_or_equiv
_atom_site_adp_type
_atom_site_occupancy
O1     O     0.18573   0.29072   0.16667   0.00000  Uiso   1.00
O2     O     0.31427   0.20929   0.16666   0.00000  Uiso   1.00
O3     O     0.31427   0.29072   0.16666   0.00000  Uiso   1.00
O4     O     0.18573   0.20929   0.16667   0.00000  Uiso   1.00
C5     C     0.16505   0.24989   0.16919   0.00000  Uiso   1.00
C6     C     0.33495   0.24989   0.16414   0.00000  Uiso   1.00
O7     O     0.25000   0.29071   0.09613   0.00000  Uiso   1.00
O8     O     0.25000   0.20929   0.23720   0.00000  Uiso   1.00
O9     O     0.25000   0.29071   0.23720   0.00000  Uiso   1.00
O10    O     0.25000   0.20929   0.09613   0.00000  Uiso   1.00
C11    C     0.26556   0.05311   0.20762   0.00000  Uiso   1.00
C12    C     0.22023   0.44600   0.13618   0.00000  Uiso   1.00
C13    C     0.23444   0.05310   0.12572   0.00000  Uiso   1.00
C14    C     0.27977   0.44600   0.19716   0.00000  Uiso   1.00
C15    C     0.24988   0.25000   0.07357   0.00000  Uiso   1.00
C16    C     0.25012   0.25000   0.25976   0.00000  Uiso   1.00
Cu17   Cu    0.25000   0.29822   0.16667   0.00000  Uiso   1.00
Cu18   Cu    0.25000   0.20179   0.16667   0.00000  Uiso   1.00
N19    N     0.25000   0.12935   0.16667   0.00000  Uiso   1.00
N20    N     0.25000   0.37066   0.16667   0.00000  Uiso   1.00
C21    C     0.25000   0.02673   0.16667   0.00000  Uiso   1.00
C22    C     0.25000   0.47241   0.16667   0.00000  Uiso   1.00
C23    C     0.24996   0.24999   0.02185   0.00000  Uiso   1.00
C24    C     0.25004   0.24999   0.31148   0.00000  Uiso   1.00
C25    C     0.04856   0.29352   0.18494   0.00000  Uiso   1.00
C26    C     0.45418   0.21298   0.18051   0.00000  Uiso   1.00
C27    C     0.45144   0.29353   0.14844   0.00000  Uiso   1.00
C28    C     0.04581   0.21299   0.15282   0.00000  Uiso   1.00
H29    H     0.03170   0.32480   0.19810   0.00000  Uiso   1.00
H30    H     0.47291   0.18228   0.19401   0.00000  Uiso   1.00
H31    H     0.46831   0.32481   0.13529   0.00000  Uiso   1.00
H32    H     0.02708   0.18229   0.13930   0.00000  Uiso   1.00
C33    C     0.09457   0.29152   0.18903   0.00000  Uiso   1.00
C34    C     0.40875   0.20911   0.17520   0.00000  Uiso   1.00
C35    C     0.40543   0.29153   0.14433   0.00000  Uiso   1.00
C36    C     0.09124   0.20912   0.15811   0.00000  Uiso   1.00
C37    C     0.11666   0.24975   0.17314   0.00000  Uiso   1.00
C38    C     0.38334   0.24976   0.16019   0.00000  Uiso   1.00
C39    C     0.02416   0.25441   0.16690   0.00000  Uiso   1.00
C40    C     0.47585   0.25441   0.16645   0.00000  Uiso   1.00
C41    C     0.26668   0.10364   0.20697   0.00000  Uiso   1.00
C42    C     0.22110   0.39556   0.13587   0.00000  Uiso   1.00
C43    C     0.23333   0.10363   0.12636   0.00000  Uiso   1.00
C44    C     0.27890   0.39556   0.19747   0.00000  Uiso   1.00
H45    H     0.27741   0.03479   0.24067   0.00000  Uiso   1.00
H46    H     0.19585   0.46397   0.11251   0.00000  Uiso   1.00
H47    H     0.22259   0.03478   0.09266   0.00000  Uiso   1.00
H48    H     0.30415   0.46397   0.22083   0.00000  Uiso   1.00
N49    N     0.28579   0.12678   0.24980   0.00000  Uiso   1.00
O50    O     0.27573   0.11211   0.29310   0.00000  Uiso   1.00
O51    O     0.32005   0.15396   0.24644   0.00000  Uiso   1.00
N52    N     0.19155   0.37096   0.10221   0.00000  Uiso   1.00
O53    O     0.20234   0.36597   0.05692   0.00000  Uiso   1.00
O54    O     0.15021   0.36855   0.11170   0.00000  Uiso   1.00
N55    N     0.21422   0.12677   0.08353   0.00000  Uiso   1.00
O56    O     0.22427   0.11209   0.04023   0.00000  Uiso   1.00
O57    O     0.17996   0.15396   0.08688   0.00000  Uiso   1.00
N58    N     0.30845   0.37096   0.23113   0.00000  Uiso   1.00
O59    O     0.29764   0.36598   0.27642   0.00000  Uiso   1.00
O60    O     0.34979   0.36855   0.22165   0.00000  Uiso   1.00
N61    N     0.11788   0.33047   0.21309   0.00000  Uiso   1.00
O62    O     0.14760   0.32165   0.24798   0.00000  Uiso   1.00
O63    O     0.10376   0.37419   0.20713   0.00000  Uiso   1.00
N64    N     0.38996   0.16262   0.18216   0.00000  Uiso   1.00
O65    O     0.36925   0.14164   0.14510   0.00000  Uiso   1.00
O66    O     0.40464   0.13628   0.21889   0.00000  Uiso   1.00
N67    N     0.38213   0.33050   0.12028   0.00000  Uiso   1.00
O68    O     0.35242   0.32168   0.08539   0.00000  Uiso   1.00
O69    O     0.39626   0.37421   0.12626   0.00000  Uiso   1.00
N70    N     0.11003   0.16264   0.15109   0.00000  Uiso   1.00
O71    O     0.13073   0.14162   0.18813   0.00000  Uiso   1.00
O72    O     0.09535   0.13634   0.11433   0.00000  Uiso   1.00
O73    O     0.68573   0.29072   0.16667   0.00000  Uiso   1.00
O74    O     0.81427   0.20929   0.16666   0.00000  Uiso   1.00
O75    O     0.81427   0.29072   0.16666   0.00000  Uiso   1.00
O76    O     0.68573   0.20929   0.16667   0.00000  Uiso   1.00
C77    C     0.66505   0.24989   0.16919   0.00000  Uiso   1.00
C78    C     0.83495   0.24989   0.16414   0.00000  Uiso   1.00
O79    O     0.75000   0.29071   0.09613   0.00000  Uiso   1.00
O80    O     0.75000   0.20929   0.23720   0.00000  Uiso   1.00
O81    O     0.75000   0.29071   0.23720   0.00000  Uiso   1.00
O82    O     0.75000   0.20929   0.09613   0.00000  Uiso   1.00
C83    C     0.76556   0.05311   0.20762   0.00000  Uiso   1.00
C84    C     0.72023   0.44600   0.13618   0.00000  Uiso   1.00
C85    C     0.73444   0.05310   0.12572   0.00000  Uiso   1.00
C86    C     0.77977   0.44600   0.19716   0.00000  Uiso   1.00
C87    C     0.74988   0.25000   0.07357   0.00000  Uiso   1.00
C88    C     0.75012   0.25000   0.25976   0.00000  Uiso   1.00
Cu89   Cu    0.75000   0.29822   0.16667   0.00000  Uiso   1.00
Cu90   Cu    0.75000   0.20179   0.16667   0.00000  Uiso   1.00
N91    N     0.75000   0.12935   0.16667   0.00000  Uiso   1.00
N92    N     0.75000   0.37066   0.16667   0.00000  Uiso   1.00
C93    C     0.75000   0.02673   0.16667   0.00000  Uiso   1.00
C94    C     0.75000   0.47241   0.16667   0.00000  Uiso   1.00
C95    C     0.74996   0.24999   0.02185   0.00000  Uiso   1.00
C96    C     0.75004   0.24999   0.31148   0.00000  Uiso   1.00
C97    C     0.54856   0.29352   0.18494   0.00000  Uiso   1.00
C98    C     0.95418   0.21298   0.18051   0.00000  Uiso   1.00
C99    C     0.95144   0.29353   0.14844   0.00000  Uiso   1.00
C100   C     0.54581   0.21299   0.15282   0.00000  Uiso   1.00
H101   H     0.53170   0.32480   0.19810   0.00000  Uiso   1.00
H102   H     0.97291   0.18228   0.19401   0.00000  Uiso   1.00
H103   H     0.96831   0.32481   0.13529   0.00000  Uiso   1.00
H104   H     0.52708   0.18229   0.13930   0.00000  Uiso   1.00
C105   C     0.59457   0.29152   0.18903   0.00000  Uiso   1.00
C106   C     0.90875   0.20911   0.17520   0.00000  Uiso   1.00
C107   C     0.90543   0.29153   0.14433   0.00000  Uiso   1.00
C108   C     0.59124   0.20912   0.15811   0.00000  Uiso   1.00
C109   C     0.61666   0.24975   0.17314   0.00000  Uiso   1.00
C110   C     0.88334   0.24976   0.16019   0.00000  Uiso   1.00
C111   C     0.52416   0.25441   0.16690   0.00000  Uiso   1.00
C112   C     0.97585   0.25441   0.16645   0.00000  Uiso   1.00
C113   C     0.76668   0.10364   0.20697   0.00000  Uiso   1.00
C114   C     0.72110   0.39556   0.13587   0.00000  Uiso   1.00
C115   C     0.73333   0.10363   0.12636   0.00000  Uiso   1.00
C116   C     0.77890   0.39556   0.19747   0.00000  Uiso   1.00
H117   H     0.77741   0.03479   0.24067   0.00000  Uiso   1.00
H118   H     0.69585   0.46397   0.11251   0.00000  Uiso   1.00
H119   H     0.72259   0.03478   0.09266   0.00000  Uiso   1.00
H120   H     0.80415   0.46397   0.22083   0.00000  Uiso   1.00
N121   N     0.78579   0.12678   0.24980   0.00000  Uiso   1.00
O122   O     0.77573   0.11211   0.29310   0.00000  Uiso   1.00
O123   O     0.82005   0.15396   0.24644   0.00000  Uiso   1.00
N124   N     0.69155   0.37096   0.10221   0.00000  Uiso   1.00
O125   O     0.70234   0.36597   0.05692   0.00000  Uiso   1.00
O126   O     0.65021   0.36855   0.11170   0.00000  Uiso   1.00
N127   N     0.71422   0.12677   0.08353   0.00000  Uiso   1.00
O128   O     0.72427   0.11209   0.04023   0.00000  Uiso   1.00
O129   O     0.67996   0.15396   0.08688   0.00000  Uiso   1.00
N130   N     0.80845   0.37096   0.23113   0.00000  Uiso   1.00
O131   O     0.79764   0.36598   0.27642   0.00000  Uiso   1.00
O132   O     0.84979   0.36855   0.22165   0.00000  Uiso   1.00
N133   N     0.61788   0.33047   0.21309   0.00000  Uiso   1.00
O134   O     0.64760   0.32165   0.24798   0.00000  Uiso   1.00
O135   O     0.60376   0.37419   0.20713   0.00000  Uiso   1.00
N136   N     0.88996   0.16262   0.18216   0.00000  Uiso   1.00
O137   O     0.86925   0.14164   0.14510   0.00000  Uiso   1.00
O138   O     0.90464   0.13628   0.21889   0.00000  Uiso   1.00
N139   N     0.88213   0.33050   0.12028   0.00000  Uiso   1.00
O140   O     0.85242   0.32168   0.08539   0.00000  Uiso   1.00
O141   O     0.89626   0.37421   0.12626   0.00000  Uiso   1.00
N142   N     0.61003   0.16264   0.15109   0.00000  Uiso   1.00
O143   O     0.63073   0.14162   0.18813   0.00000  Uiso   1.00
O144   O     0.59535   0.13634   0.11433   0.00000  Uiso   1.00
O145   O     0.18573   0.79072   0.16667   0.00000  Uiso   1.00
O146   O     0.31427   0.70929   0.16666   0.00000  Uiso   1.00
O147   O     0.31427   0.79072   0.16666   0.00000  Uiso   1.00
O148   O     0.18573   0.70929   0.16667   0.00000  Uiso   1.00
C149   C     0.16505   0.74989   0.16919   0.00000  Uiso   1.00
C150   C     0.33495   0.74989   0.16414   0.00000  Uiso   1.00
O151   O     0.25000   0.79071   0.09613   0.00000  Uiso   1.00
O152   O     0.25000   0.70929   0.23720   0.00000  Uiso   1.00
O153   O     0.25000   0.79071   0.23720   0.00000  Uiso   1.00
O154   O     0.25000   0.70929   0.09613   0.00000  Uiso   1.00
C155   C     0.26556   0.55311   0.20762   0.00000  Uiso   1.00
C156   C     0.22023   0.94600   0.13618   0.00000  Uiso   1.00
C157   C     0.23444   0.55310   0.12572   0.00000  Uiso   1.00
C158   C     0.27977   0.94600   0.19716   0.00000  Uiso   1.00
C159   C     0.24988   0.75000   0.07357   0.00000  Uiso   1.00
C160   C     0.25012   0.75000   0.25976   0.00000  Uiso   1.00
Cu161  Cu    0.25000   0.79822   0.16667   0.00000  Uiso   1.00
Cu162  Cu    0.25000   0.70179   0.16667   0.00000  Uiso   1.00
N163   N     0.25000   0.62935   0.16667   0.00000  Uiso   1.00
N164   N     0.25000   0.87066   0.16667   0.00000  Uiso   1.00
C165   C     0.25000   0.52673   0.16667   0.00000  Uiso   1.00
C166   C     0.25000   0.97241   0.16667   0.00000  Uiso   1.00
C167   C     0.24996   0.74999   0.02185   0.00000  Uiso   1.00
C168   C     0.25004   0.74999   0.31148   0.00000  Uiso   1.00
C169   C     0.04856   0.79352   0.18494   0.00000  Uiso   1.00
C170   C     0.45418   0.71298   0.18051   0.00000  Uiso   1.00
C171   C     0.45144   0.79353   0.14844   0.00000  Uiso   1.00
C172   C     0.04581   0.71299   0.15282   0.00000  Uiso   1.00
H173   H     0.03170   0.82480   0.19810   0.00000  Uiso   1.00
H174   H     0.47291   0.68228   0.19401   0.00000  Uiso   1.00
H175   H     0.46831   0.82481   0.13529   0.00000  Uiso   1.00
H176   H     0.02708   0.68229   0.13930   0.00000  Uiso   1.00
C177   C     0.09457   0.79152   0.18903   0.00000  Uiso   1.00
C178   C     0.40875   0.70911   0.17520   0.00000  Uiso   1.00
C179   C     0.40543   0.79153   0.14433   0.00000  Uiso   1.00
C180   C     0.09124   0.70912   0.15811   0.00000  Uiso   1.00
C181   C     0.11666   0.74975   0.17314   0.00000  Uiso   1.00
C182   C     0.38334   0.74976   0.16019   0.00000  Uiso   1.00
C183   C     0.02416   0.75441   0.16690   0.00000  Uiso   1.00
C184   C     0.47585   0.75441   0.16645   0.00000  Uiso   1.00
C185   C     0.26668   0.60364   0.20697   0.00000  Uiso   1.00
C186   C     0.22110   0.89556   0.13587   0.00000  Uiso   1.00
C187   C     0.23333   0.60363   0.12636   0.00000  Uiso   1.00
C188   C     0.27890   0.89556   0.19747   0.00000  Uiso   1.00
H189   H     0.27741   0.53479   0.24067   0.00000  Uiso   1.00
H190   H     0.19585   0.96397   0.11251   0.00000  Uiso   1.00
H191   H     0.22259   0.53478   0.09266   0.00000  Uiso   1.00
H192   H     0.30415   0.96397   0.22083   0.00000  Uiso   1.00
N193   N     0.28579   0.62678   0.24980   0.00000  Uiso   1.00
O194   O     0.27573   0.61211   0.29310   0.00000  Uiso   1.00
O195   O     0.32005   0.65396   0.24644   0.00000  Uiso   1.00
N196   N     0.19155   0.87096   0.10221   0.00000  Uiso   1.00
O197   O     0.20234   0.86597   0.05692   0.00000  Uiso   1.00
O198   O     0.15021   0.86855   0.11170   0.00000  Uiso   1.00
N199   N     0.21422   0.62677   0.08353   0.00000  Uiso   1.00
O200   O     0.22427   0.61209   0.04023   0.00000  Uiso   1.00
O201   O     0.17996   0.65396   0.08688   0.00000  Uiso   1.00
N202   N     0.30845   0.87096   0.23113   0.00000  Uiso   1.00
O203   O     0.29764   0.86598   0.27642   0.00000  Uiso   1.00
O204   O     0.34979   0.86855   0.22165   0.00000  Uiso   1.00
N205   N     0.11788   0.83047   0.21309   0.00000  Uiso   1.00
O206   O     0.14760   0.82165   0.24798   0.00000  Uiso   1.00
O207   O     0.10376   0.87419   0.20713   0.00000  Uiso   1.00
N208   N     0.38996   0.66262   0.18216   0.00000  Uiso   1.00
O209   O     0.36925   0.64164   0.14510   0.00000  Uiso   1.00
O210   O     0.40464   0.63628   0.21889   0.00000  Uiso   1.00
N211   N     0.38213   0.83050   0.12028   0.00000  Uiso   1.00
O212   O     0.35242   0.82168   0.08539   0.00000  Uiso   1.00
O213   O     0.39626   0.87421   0.12626   0.00000  Uiso   1.00
N214   N     0.11003   0.66264   0.15109   0.00000  Uiso   1.00
O215   O     0.13073   0.64162   0.18813   0.00000  Uiso   1.00
O216   O     0.09535   0.63634   0.11433   0.00000  Uiso   1.00
O217   O     0.68573   0.79072   0.16667   0.00000  Uiso   1.00
O218   O     0.81427   0.70929   0.16666   0.00000  Uiso   1.00
O219   O     0.81427   0.79072   0.16666   0.00000  Uiso   1.00
O220   O     0.68573   0.70929   0.16667   0.00000  Uiso   1.00
C221   C     0.66505   0.74989   0.16919   0.00000  Uiso   1.00
C222   C     0.83495   0.74989   0.16414   0.00000  Uiso   1.00
O223   O     0.75000   0.79071   0.09613   0.00000  Uiso   1.00
O224   O     0.75000   0.70929   0.23720   0.00000  Uiso   1.00
O225   O     0.75000   0.79071   0.23720   0.00000  Uiso   1.00
O226   O     0.75000   0.70929   0.09613   0.00000  Uiso   1.00
C227   C     0.76556   0.55311   0.20762   0.00000  Uiso   1.00
C228   C     0.72023   0.94600   0.13618   0.00000  Uiso   1.00
C229   C     0.73444   0.55310   0.12572   0.00000  Uiso   1.00
C230   C     0.77977   0.94600   0.19716   0.00000  Uiso   1.00
C231   C     0.74988   0.75000   0.07357   0.00000  Uiso   1.00
C232   C     0.75012   0.75000   0.25976   0.00000  Uiso   1.00
Cu233  Cu    0.75000   0.79822   0.16667   0.00000  Uiso   1.00
Cu234  Cu    0.75000   0.70179   0.16667   0.00000  Uiso   1.00
N235   N     0.75000   0.62935   0.16667   0.00000  Uiso   1.00
N236   N     0.75000   0.87066   0.16667   0.00000  Uiso   1.00
C237   C     0.75000   0.52673   0.16667   0.00000  Uiso   1.00
C238   C     0.75000   0.97241   0.16667   0.00000  Uiso   1.00
C239   C     0.74996   0.74999   0.02185   0.00000  Uiso   1.00
C240   C     0.75004   0.74999   0.31148   0.00000  Uiso   1.00
C241   C     0.54856   0.79352   0.18494   0.00000  Uiso   1.00
C242   C     0.95418   0.71298   0.18051   0.00000  Uiso   1.00
C243   C     0.95144   0.79353   0.14844   0.00000  Uiso   1.00
C244   C     0.54581   0.71299   0.15282   0.00000  Uiso   1.00
H245   H     0.53170   0.82480   0.19810   0.00000  Uiso   1.00
H246   H     0.97291   0.68228   0.19401   0.00000  Uiso   1.00
H247   H     0.96831   0.82481   0.13529   0.00000  Uiso   1.00
H248   H     0.52708   0.68229   0.13930   0.00000  Uiso   1.00
C249   C     0.59457   0.79152   0.18903   0.00000  Uiso   1.00
C250   C     0.90875   0.70911   0.17520   0.00000  Uiso   1.00
C251   C     0.90543   0.79153   0.14433   0.00000  Uiso   1.00
C252   C     0.59124   0.70912   0.15811   0.00000  Uiso   1.00
C253   C     0.61666   0.74975   0.17314   0.00000  Uiso   1.00
C254   C     0.88334   0.74976   0.16019   0.00000  Uiso   1.00
C255   C     0.52416   0.75441   0.16690   0.00000  Uiso   1.00
C256   C     0.97585   0.75441   0.16645   0.00000  Uiso   1.00
C257   C     0.76668   0.60364   0.20697   0.00000  Uiso   1.00
C258   C     0.72110   0.89556   0.13587   0.00000  Uiso   1.00
C259   C     0.73333   0.60363   0.12636   0.00000  Uiso   1.00
C260   C     0.77890   0.89556   0.19747   0.00000  Uiso   1.00
H261   H     0.77741   0.53479   0.24067   0.00000  Uiso   1.00
H262   H     0.69585   0.96397   0.11251   0.00000  Uiso   1.00
H263   H     0.72259   0.53478   0.09266   0.00000  Uiso   1.00
H264   H     0.80415   0.96397   0.22083   0.00000  Uiso   1.00
N265   N     0.78579   0.62678   0.24980   0.00000  Uiso   1.00
O266   O     0.77573   0.61211   0.29310   0.00000  Uiso   1.00
O267   O     0.82005   0.65396   0.24644   0.00000  Uiso   1.00
N268   N     0.69155   0.87096   0.10221   0.00000  Uiso   1.00
O269   O     0.70234   0.86597   0.05692   0.00000  Uiso   1.00
O270   O     0.65021   0.86855   0.11170   0.00000  Uiso   1.00
N271   N     0.71422   0.62677   0.08353   0.00000  Uiso   1.00
O272   O     0.72427   0.61209   0.04023   0.00000  Uiso   1.00
O273   O     0.67996   0.65396   0.08688   0.00000  Uiso   1.00
N274   N     0.80845   0.87096   0.23113   0.00000  Uiso   1.00
O275   O     0.79764   0.86598   0.27642   0.00000  Uiso   1.00
O276   O     0.84979   0.86855   0.22165   0.00000  Uiso   1.00
N277   N     0.61788   0.83047   0.21309   0.00000  Uiso   1.00
O278   O     0.64760   0.82165   0.24798   0.00000  Uiso   1.00
O279   O     0.60376   0.87419   0.20713   0.00000  Uiso   1.00
N280   N     0.88996   0.66262   0.18216   0.00000  Uiso   1.00
O281   O     0.86925   0.64164   0.14510   0.00000  Uiso   1.00
O282   O     0.90464   0.63628   0.21889   0.00000  Uiso   1.00
N283   N     0.88213   0.83050   0.12028   0.00000  Uiso   1.00
O284   O     0.85242   0.82168   0.08539   0.00000  Uiso   1.00
O285   O     0.89626   0.87421   0.12626   0.00000  Uiso   1.00
N286   N     0.61003   0.66264   0.15109   0.00000  Uiso   1.00
O287   O     0.63073   0.64162   0.18813   0.00000  Uiso   1.00
O288   O     0.59535   0.63634   0.11433   0.00000  Uiso   1.00
O289   O     0.18573   0.29072   0.50000   0.00000  Uiso   1.00
O290   O     0.31427   0.20929   0.50000   0.00000  Uiso   1.00
O291   O     0.31427   0.29072   0.50000   0.00000  Uiso   1.00
O292   O     0.18573   0.20929   0.50000   0.00000  Uiso   1.00
C293   C     0.16505   0.24989   0.50252   0.00000  Uiso   1.00
C294   C     0.33495   0.24989   0.49747   0.00000  Uiso   1.00
O295   O     0.25000   0.29071   0.42946   0.00000  Uiso   1.00
O296   O     0.25000   0.20929   0.57054   0.00000  Uiso   1.00
O297   O     0.25000   0.29071   0.57054   0.00000  Uiso   1.00
O298   O     0.25000   0.20929   0.42946   0.00000  Uiso   1.00
C299   C     0.26556   0.05311   0.54095   0.00000  Uiso   1.00
C300   C     0.22023   0.44600   0.46952   0.00000  Uiso   1.00
C301   C     0.23444   0.05310   0.45905   0.00000  Uiso   1.00
C302   C     0.27977   0.44600   0.53049   0.00000  Uiso   1.00
C303   C     0.24988   0.25000   0.40690   0.00000  Uiso   1.00
C304   C     0.25012   0.25000   0.59310   0.00000  Uiso   1.00
Cu305  Cu    0.25000   0.29822   0.50000   0.00000  Uiso   1.00
Cu306  Cu    0.25000   0.20179   0.50000   0.00000  Uiso   1.00
N307   N     0.25000   0.12935   0.50000   0.00000  Uiso   1.00
N308   N     0.25000   0.37066   0.50000   0.00000  Uiso   1.00
C309   C     0.25000   0.02673   0.50000   0.00000  Uiso   1.00
C310   C     0.25000   0.47241   0.50000   0.00000  Uiso   1.00
C311   C     0.24996   0.24999   0.35518   0.00000  Uiso   1.00
C312   C     0.25004   0.24999   0.64482   0.00000  Uiso   1.00
C313   C     0.04856   0.29352   0.51827   0.00000  Uiso   1.00
C314   C     0.45418   0.21298   0.51384   0.00000  Uiso   1.00
C315   C     0.45144   0.29353   0.48177   0.00000  Uiso   1.00
C316   C     0.04581   0.21299   0.48615   0.00000  Uiso   1.00
H317   H     0.03170   0.32480   0.53144   0.00000  Uiso   1.00
H318   H     0.47291   0.18228   0.52734   0.00000  Uiso   1.00
H319   H     0.46831   0.32481   0.46863   0.00000  Uiso   1.00
H320   H     0.02708   0.18229   0.47263   0.00000  Uiso   1.00
C321   C     0.09457   0.29152   0.52236   0.00000  Uiso   1.00
C322   C     0.40875   0.20911   0.50853   0.00000  Uiso   1.00
C323   C     0.40543   0.29153   0.47766   0.00000  Uiso   1.00
C324   C     0.09124   0.20912   0.49144   0.00000  Uiso   1.00
C325   C     0.11666   0.24975   0.50647   0.00000  Uiso   1.00
C326   C     0.38334   0.24976   0.49352   0.00000  Uiso   1.00
C327   C     0.02416   0.25441   0.50024   0.00000  Uiso   1.00
C328   C     0.47585   0.25441   0.49979   0.00000  Uiso   1.00
C329   C     0.26668   0.10364   0.54031   0.00000  Uiso   1.00
C330   C     0.22110   0.39556   0.46920   0.00000  Uiso   1.00
C331   C     0.23333   0.10363   0.45969   0.00000  Uiso   1.00
C332   C     0.27890   0.39556   0.53080   0.00000  Uiso   1.00
H333   H     0.27741   0.03479   0.57401   0.00000  Uiso   1.00
H334   H     0.19585   0.46397   0.44585   0.00000  Uiso   1.00
H335   H     0.22259   0.03478   0.42600   0.00000  Uiso   1.00
H336   H     0.30415   0.46397   0.55416   0.00000  Uiso   1.00
N337   N     0.28579   0.12678   0.58314   0.00000  Uiso   1.00
O338   O     0.27573   0.11211   0.62643   0.00000  Uiso   1.00
O339   O     0.32005   0.15396   0.57977   0.00000  Uiso   1.00
N340   N     0.19155   0.37096   0.43555   0.00000  Uiso   1.00
O341   O     0.20234   0.36597   0.39026   0.00000  Uiso   1.00
O342   O     0.15021   0.36855   0.44503   0.00000  Uiso   1.00
N343   N     0.21422   0.12677   0.41686   0.00000  Uiso   1.00
O344   O     0.22427   0.11209   0.37356   0.00000  Uiso   1.00
O345   O     0.17996   0.15396   0.42022   0.00000  Uiso   1.00
N346   N     0.30845   0.37096   0.56446   0.00000  Uiso   1.00
O347   O     0.29764   0.36598   0.60975   0.00000  Uiso   1.00
O348   O     0.34979   0.36855   0.55498   0.00000  Uiso   1.00
N349   N     0.11788   0.33047   0.54643   0.00000  Uiso   1.00
O350   O     0.14760   0.32165   0.58131   0.00000  Uiso   1.00
O351   O     0.10376   0.37419   0.54047   0.00000  Uiso   1.00
N352   N     0.38996   0.16262   0.51550   0.00000  Uiso   1.00
O353   O     0.36925   0.14164   0.47843   0.00000  Uiso   1.00
O354   O     0.40464   0.13628   0.55223   0.00000  Uiso   1.00
N355   N     0.38213   0.33050   0.45362   0.00000  Uiso   1.00
O356   O     0.35242   0.32168   0.41872   0.00000  Uiso   1.00
O357   O     0.39626   0.37421   0.45959   0.00000  Uiso   1.00
N358   N     0.11003   0.16264   0.48442   0.00000  Uiso   1.00
O359   O     0.13073   0.14162   0.52146   0.00000  Uiso   1.00
O360   O     0.09535   0.13634   0.44766   0.00000  Uiso   1.00
O361   O     0.68573   0.29072   0.50000   0.00000  Uiso   1.00
O362   O     0.81427   0.20929   0.50000   0.00000  Uiso   1.00
O363   O     0.81427   0.29072   0.50000   0.00000  Uiso   1.00
O364   O     0.68573   0.20929   0.50000   0.00000  Uiso   1.00
C365   C     0.66505   0.24989   0.50252   0.00000  Uiso   1.00
C366   C     0.83495   0.24989   0.49747   0.00000  Uiso   1.00
O367   O     0.75000   0.29071   0.42946   0.00000  Uiso   1.00
O368   O     0.75000   0.20929   0.57054   0.00000  Uiso   1.00
O369   O     0.75000   0.29071   0.57054   0.00000  Uiso   1.00
O370   O     0.75000   0.20929   0.42946   0.00000  Uiso   1.00
C371   C     0.76556   0.05311   0.54095   0.00000  Uiso   1.00
C372   C     0.72023   0.44600   0.46952   0.00000  Uiso   1.00
C373   C     0.73444   0.05310   0.45905   0.00000  Uiso   1.00
C374   C     0.77977   0.44600   0.53049   0.00000  Uiso   1.00
C375   C     0.74988   0.25000   0.40690   0.00000  Uiso   1.00
C376   C     0.75012   0.25000   0.59310   0.00000  Uiso   1.00
Cu377  Cu    0.75000   0.29822   0.50000   0.00000  Uiso   1.00
Cu378  Cu    0.75000   0.20179   0.50000   0.00000  Uiso   1.00
N379   N     0.75000   0.12935   0.50000   0.00000  Uiso   1.00
N380   N     0.75000   0.37066   0.50000   0.00000  Uiso   1.00
C381   C     0.75000   0.02673   0.50000   0.00000  Uiso   1.00
C382   C     0.75000   0.47241   0.50000   0.00000  Uiso   1.00
C383   C     0.74996   0.24999   0.35518   0.00000  Uiso   1.00
C384   C     0.75004   0.24999   0.64482   0.00000  Uiso   1.00
C385   C     0.54856   0.29352   0.51827   0.00000  Uiso   1.00
C386   C     0.95418   0.21298   0.51384   0.00000  Uiso   1.00
C387   C     0.95144   0.29353   0.48177   0.00000  Uiso   1.00
C388   C     0.54581   0.21299   0.48615   0.00000  Uiso   1.00
H389   H     0.53170   0.32480   0.53144   0.00000  Uiso   1.00
H390   H     0.97291   0.18228   0.52734   0.00000  Uiso   1.00
H391   H     0.96831   0.32481   0.46863   0.00000  Uiso   1.00
H392   H     0.52708   0.18229   0.47263   0.00000  Uiso   1.00
C393   C     0.59457   0.29152   0.52236   0.00000  Uiso   1.00
C394   C     0.90875   0.20911   0.50853   0.00000  Uiso   1.00
C395   C     0.90543   0.29153   0.47766   0.00000  Uiso   1.00
C396   C     0.59124   0.20912   0.49144   0.00000  Uiso   1.00
C397   C     0.61666   0.24975   0.50647   0.00000  Uiso   1.00
C398   C     0.88334   0.24976   0.49352   0.00000  Uiso   1.00
C399   C     0.52416   0.25441   0.50024   0.00000  Uiso   1.00
C400   C     0.97585   0.25441   0.49979   0.00000  Uiso   1.00
C401   C     0.76668   0.10364   0.54031   0.00000  Uiso   1.00
C402   C     0.72110   0.39556   0.46920   0.00000  Uiso   1.00
C403   C     0.73333   0.10363   0.45969   0.00000  Uiso   1.00
C404   C     0.77890   0.39556   0.53080   0.00000  Uiso   1.00
H405   H     0.77741   0.03479   0.57401   0.00000  Uiso   1.00
H406   H     0.69585   0.46397   0.44585   0.00000  Uiso   1.00
H407   H     0.72259   0.03478   0.42600   0.00000  Uiso   1.00
H408   H     0.80415   0.46397   0.55416   0.00000  Uiso   1.00
N409   N     0.78579   0.12678   0.58314   0.00000  Uiso   1.00
O410   O     0.77573   0.11211   0.62643   0.00000  Uiso   1.00
O411   O     0.82005   0.15396   0.57977   0.00000  Uiso   1.00
N412   N     0.69155   0.37096   0.43555   0.00000  Uiso   1.00
O413   O     0.70234   0.36597   0.39026   0.00000  Uiso   1.00
O414   O     0.65021   0.36855   0.44503   0.00000  Uiso   1.00
N415   N     0.71422   0.12677   0.41686   0.00000  Uiso   1.00
O416   O     0.72427   0.11209   0.37356   0.00000  Uiso   1.00
O417   O     0.67996   0.15396   0.42022   0.00000  Uiso   1.00
N418   N     0.80845   0.37096   0.56446   0.00000  Uiso   1.00
O419   O     0.79764   0.36598   0.60975   0.00000  Uiso   1.00
O420   O     0.84979   0.36855   0.55498   0.00000  Uiso   1.00
N421   N     0.61788   0.33047   0.54643   0.00000  Uiso   1.00
O422   O     0.64760   0.32165   0.58131   0.00000  Uiso   1.00
O423   O     0.60376   0.37419   0.54047   0.00000  Uiso   1.00
N424   N     0.88996   0.16262   0.51550   0.00000  Uiso   1.00
O425   O     0.86925   0.14164   0.47843   0.00000  Uiso   1.00
O426   O     0.90464   0.13628   0.55223   0.00000  Uiso   1.00
N427   N     0.88213   0.33050   0.45362   0.00000  Uiso   1.00
O428   O     0.85242   0.32168   0.41872   0.00000  Uiso   1.00
O429   O     0.89626   0.37421   0.45959   0.00000  Uiso   1.00
N430   N     0.61003   0.16264   0.48442   0.00000  Uiso   1.00
O431   O     0.63073   0.14162   0.52146   0.00000  Uiso   1.00
O432   O     0.59535   0.13634   0.44766   0.00000  Uiso   1.00
O433   O     0.18573   0.79072   0.50000   0.00000  Uiso   1.00
O434   O     0.31427   0.70929   0.50000   0.00000  Uiso   1.00
O435   O     0.31427   0.79072   0.50000   0.00000  Uiso   1.00
O436   O     0.18573   0.70929   0.50000   0.00000  Uiso   1.00
C437   C     0.16505   0.74989   0.50252   0.00000  Uiso   1.00
C438   C     0.33495   0.74989   0.49747   0.00000  Uiso   1.00
O439   O     0.25000   0.79071   0.42946   0.00000  Uiso   1.00
O440   O     0.25000   0.70929   0.57054   0.00000  Uiso   1.00
O441   O     0.25000   0.79071   0.57054   0.00000  Uiso   1.00
O442   O     0.25000   0.70929   0.42946   0.00000  Uiso   1.00
C443   C     0.26556   0.55311   0.54095   0.00000  Uiso   1.00
C444   C     0.22023   0.94600   0.46952   0.00000  Uiso   1.00
C445   C     0.23444   0.55310   0.45905   0.00000  Uiso   1.00
C446   C     0.27977   0.94600   0.53049   0.00000  Uiso   1.00
C447   C     0.24988   0.75000   0.40690   0.00000  Uiso   1.00
C448   C     0.25012   0.75000   0.59310   0.00000  Uiso   1.00
Cu449  Cu    0.25000   0.79822   0.50000   0.00000  Uiso   1.00
Cu450  Cu    0.25000   0.70179   0.50000   0.00000  Uiso   1.00
N451   N     0.25000   0.62935   0.50000   0.00000  Uiso   1.00
N452   N     0.25000   0.87066   0.50000   0.00000  Uiso   1.00
C453   C     0.25000   0.52673   0.50000   0.00000  Uiso   1.00
C454   C     0.25000   0.97241   0.50000   0.00000  Uiso   1.00
C455   C     0.24996   0.74999   0.35518   0.00000  Uiso   1.00
C456   C     0.25004   0.74999   0.64482   0.00000  Uiso   1.00
C457   C     0.04856   0.79352   0.51827   0.00000  Uiso   1.00
C458   C     0.45418   0.71298   0.51384   0.00000  Uiso   1.00
C459   C     0.45144   0.79353   0.48177   0.00000  Uiso   1.00
C460   C     0.04581   0.71299   0.48615   0.00000  Uiso   1.00
H461   H     0.03170   0.82480   0.53144   0.00000  Uiso   1.00
H462   H     0.47291   0.68228   0.52734   0.00000  Uiso   1.00
H463   H     0.46831   0.82481   0.46863   0.00000  Uiso   1.00
H464   H     0.02708   0.68229   0.47263   0.00000  Uiso   1.00
C465   C     0.09457   0.79152   0.52236   0.00000  Uiso   1.00
C466   C     0.40875   0.70911   0.50853   0.00000  Uiso   1.00
C467   C     0.40543   0.79153   0.47766   0.00000  Uiso   1.00
C468   C     0.09124   0.70912   0.49144   0.00000  Uiso   1.00
C469   C     0.11666   0.74975   0.50647   0.00000  Uiso   1.00
C470   C     0.38334   0.74976   0.49352   0.00000  Uiso   1.00
C471   C     0.02416   0.75441   0.50024   0.00000  Uiso   1.00
C472   C     0.47585   0.75441   0.49979   0.00000  Uiso   1.00
C473   C     0.26668   0.60364   0.54031   0.00000  Uiso   1.00
C474   C     0.22110   0.89556   0.46920   0.00000  Uiso   1.00
C475   C     0.23333   0.60363   0.45969   0.00000  Uiso   1.00
C476   C     0.27890   0.89556   0.53080   0.00000  Uiso   1.00
H477   H     0.27741   0.53479   0.57401   0.00000  Uiso   1.00
H478   H     0.19585   0.96397   0.44585   0.00000  Uiso   1.00
H479   H     0.22259   0.53478   0.42600   0.00000  Uiso   1.00
H480   H     0.30415   0.96397   0.55416   0.00000  Uiso   1.00
N481   N     0.28579   0.62678   0.58314   0.00000  Uiso   1.00
O482   O     0.27573   0.61211   0.62643   0.00000  Uiso   1.00
O483   O     0.32005   0.65396   0.57977   0.00000  Uiso   1.00
N484   N     0.19155   0.87096   0.43555   0.00000  Uiso   1.00
O485   O     0.20234   0.86597   0.39026   0.00000  Uiso   1.00
O486   O     0.15021   0.86855   0.44503   0.00000  Uiso   1.00
N487   N     0.21422   0.62677   0.41686   0.00000  Uiso   1.00
O488   O     0.22427   0.61209   0.37356   0.00000  Uiso   1.00
O489   O     0.17996   0.65396   0.42022   0.00000  Uiso   1.00
N490   N     0.30845   0.87096   0.56446   0.00000  Uiso   1.00
O491   O     0.29764   0.86598   0.60975   0.00000  Uiso   1.00
O492   O     0.34979   0.86855   0.55498   0.00000  Uiso   1.00
N493   N     0.11788   0.83047   0.54643   0.00000  Uiso   1.00
O494   O     0.14760   0.82165   0.58131   0.00000  Uiso   1.00
O495   O     0.10376   0.87419   0.54047   0.00000  Uiso   1.00
N496   N     0.38996   0.66262   0.51550   0.00000  Uiso   1.00
O497   O     0.36925   0.64164   0.47843   0.00000  Uiso   1.00
O498   O     0.40464   0.63628   0.55223   0.00000  Uiso   1.00
N499   N     0.38213   0.83050   0.45362   0.00000  Uiso   1.00
O500   O     0.35242   0.82168   0.41872   0.00000  Uiso   1.00
O501   O     0.39626   0.87421   0.45959   0.00000  Uiso   1.00
N502   N     0.11003   0.66264   0.48442   0.00000  Uiso   1.00
O503   O     0.13073   0.64162   0.52146   0.00000  Uiso   1.00
O504   O     0.09535   0.63634   0.44766   0.00000  Uiso   1.00
O505   O     0.68573   0.79072   0.50000   0.00000  Uiso   1.00
O506   O     0.81427   0.70929   0.50000   0.00000  Uiso   1.00
O507   O     0.81427   0.79072   0.50000   0.00000  Uiso   1.00
O508   O     0.68573   0.70929   0.50000   0.00000  Uiso   1.00
C509   C     0.66505   0.74989   0.50252   0.00000  Uiso   1.00
C510   C     0.83495   0.74989   0.49747   0.00000  Uiso   1.00
O511   O     0.75000   0.79071   0.42946   0.00000  Uiso   1.00
O512   O     0.75000   0.70929   0.57054   0.00000  Uiso   1.00
O513   O     0.75000   0.79071   0.57054   0.00000  Uiso   1.00
O514   O     0.75000   0.70929   0.42946   0.00000  Uiso   1.00
C515   C     0.76556   0.55311   0.54095   0.00000  Uiso   1.00
C516   C     0.72023   0.94600   0.46952   0.00000  Uiso   1.00
C517   C     0.73444   0.55310   0.45905   0.00000  Uiso   1.00
C518   C     0.77977   0.94600   0.53049   0.00000  Uiso   1.00
C519   C     0.74988   0.75000   0.40690   0.00000  Uiso   1.00
C520   C     0.75012   0.75000   0.59310   0.00000  Uiso   1.00
Cu521  Cu    0.75000   0.79822   0.50000   0.00000  Uiso   1.00
Cu522  Cu    0.75000   0.70179   0.50000   0.00000  Uiso   1.00
N523   N     0.75000   0.62935   0.50000   0.00000  Uiso   1.00
N524   N     0.75000   0.87066   0.50000   0.00000  Uiso   1.00
C525   C     0.75000   0.52673   0.50000   0.00000  Uiso   1.00
C526   C     0.75000   0.97241   0.50000   0.00000  Uiso   1.00
C527   C     0.74996   0.74999   0.35518   0.00000  Uiso   1.00
C528   C     0.75004   0.74999   0.64482   0.00000  Uiso   1.00
C529   C     0.54856   0.79352   0.51827   0.00000  Uiso   1.00
C530   C     0.95418   0.71298   0.51384   0.00000  Uiso   1.00
C531   C     0.95144   0.79353   0.48177   0.00000  Uiso   1.00
C532   C     0.54581   0.71299   0.48615   0.00000  Uiso   1.00
H533   H     0.53170   0.82480   0.53144   0.00000  Uiso   1.00
H534   H     0.97291   0.68228   0.52734   0.00000  Uiso   1.00
H535   H     0.96831   0.82481   0.46863   0.00000  Uiso   1.00
H536   H     0.52708   0.68229   0.47263   0.00000  Uiso   1.00
C537   C     0.59457   0.79152   0.52236   0.00000  Uiso   1.00
C538   C     0.90875   0.70911   0.50853   0.00000  Uiso   1.00
C539   C     0.90543   0.79153   0.47766   0.00000  Uiso   1.00
C540   C     0.59124   0.70912   0.49144   0.00000  Uiso   1.00
C541   C     0.61666   0.74975   0.50647   0.00000  Uiso   1.00
C542   C     0.88334   0.74976   0.49352   0.00000  Uiso   1.00
C543   C     0.52416   0.75441   0.50024   0.00000  Uiso   1.00
C544   C     0.97585   0.75441   0.49979   0.00000  Uiso   1.00
C545   C     0.76668   0.60364   0.54031   0.00000  Uiso   1.00
C546   C     0.72110   0.89556   0.46920   0.00000  Uiso   1.00
C547   C     0.73333   0.60363   0.45969   0.00000  Uiso   1.00
C548   C     0.77890   0.89556   0.53080   0.00000  Uiso   1.00
H549   H     0.77741   0.53479   0.57401   0.00000  Uiso   1.00
H550   H     0.69585   0.96397   0.44585   0.00000  Uiso   1.00
H551   H     0.72259   0.53478   0.42600   0.00000  Uiso   1.00
H552   H     0.80415   0.96397   0.55416   0.00000  Uiso   1.00
N553   N     0.78579   0.62678   0.58314   0.00000  Uiso   1.00
O554   O     0.77573   0.61211   0.62643   0.00000  Uiso   1.00
O555   O     0.82005   0.65396   0.57977   0.00000  Uiso   1.00
N556   N     0.69155   0.87096   0.43555   0.00000  Uiso   1.00
O557   O     0.70234   0.86597   0.39026   0.00000  Uiso   1.00
O558   O     0.65021   0.86855   0.44503   0.00000  Uiso   1.00
N559   N     0.71422   0.62677   0.41686   0.00000  Uiso   1.00
O560   O     0.72427   0.61209   0.37356   0.00000  Uiso   1.00
O561   O     0.67996   0.65396   0.42022   0.00000  Uiso   1.00
N562   N     0.80845   0.87096   0.56446   0.00000  Uiso   1.00
O563   O     0.79764   0.86598   0.60975   0.00000  Uiso   1.00
O564   O     0.84979   0.86855   0.55498   0.00000  Uiso   1.00
N565   N     0.61788   0.83047   0.54643   0.00000  Uiso   1.00
O566   O     0.64760   0.82165   0.58131   0.00000  Uiso   1.00
O567   O     0.60376   0.87419   0.54047   0.00000  Uiso   1.00
N568   N     0.88996   0.66262   0.51550   0.00000  Uiso   1.00
O569   O     0.86925   0.64164   0.47843   0.00000  Uiso   1.00
O570   O     0.90464   0.63628   0.55223   0.00000  Uiso   1.00
N571   N     0.88213   0.83050   0.45362   0.00000  Uiso   1.00
O572   O     0.85242   0.82168   0.41872   0.00000  Uiso   1.00
O573   O     0.89626   0.87421   0.45959   0.00000  Uiso   1.00
N574   N     0.61003   0.66264   0.48442   0.00000  Uiso   1.00
O575   O     0.63073   0.64162   0.52146   0.00000  Uiso   1.00
O576   O     0.59535   0.63634   0.44766   0.00000  Uiso   1.00
O577   O     0.18573   0.29072   0.83334   0.00000  Uiso   1.00
O578   O     0.31427   0.20929   0.83333   0.00000  Uiso   1.00
O579   O     0.31427   0.29072   0.83333   0.00000  Uiso   1.00
O580   O     0.18573   0.20929   0.83334   0.00000  Uiso   1.00
C581   C     0.16505   0.24989   0.83586   0.00000  Uiso   1.00
C582   C     0.33495   0.24989   0.83081   0.00000  Uiso   1.00
O583   O     0.25000   0.29071   0.76280   0.00000  Uiso   1.00
O584   O     0.25000   0.20929   0.90387   0.00000  Uiso   1.00
O585   O     0.25000   0.29071   0.90387   0.00000  Uiso   1.00
O586   O     0.25000   0.20929   0.76280   0.00000  Uiso   1.00
C587   C     0.26556   0.05311   0.87428   0.00000  Uiso   1.00
C588   C     0.22023   0.44600   0.80285   0.00000  Uiso   1.00
C589   C     0.23444   0.05310   0.79239   0.00000  Uiso   1.00
C590   C     0.27977   0.44600   0.86382   0.00000  Uiso   1.00
C591   C     0.24988   0.25000   0.74024   0.00000  Uiso   1.00
C592   C     0.25012   0.25000   0.92643   0.00000  Uiso   1.00
Cu593  Cu    0.25000   0.29822   0.83333   0.00000  Uiso   1.00
Cu594  Cu    0.25000   0.20179   0.83333   0.00000  Uiso   1.00
N595   N     0.25000   0.12935   0.83333   0.00000  Uiso   1.00
N596   N     0.25000   0.37066   0.83333   0.00000  Uiso   1.00
C597   C     0.25000   0.02673   0.83334   0.00000  Uiso   1.00
C598   C     0.25000   0.47241   0.83334   0.00000  Uiso   1.00
C599   C     0.24996   0.24999   0.68852   0.00000  Uiso   1.00
C600   C     0.25004   0.24999   0.97815   0.00000  Uiso   1.00
C601   C     0.04856   0.29352   0.85160   0.00000  Uiso   1.00
C602   C     0.45418   0.21298   0.84717   0.00000  Uiso   1.00
C603   C     0.45144   0.29353   0.81511   0.00000  Uiso   1.00
C604   C     0.04581   0.21299   0.81948   0.00000  Uiso   1.00
H605   H     0.03170   0.32480   0.86477   0.00000  Uiso   1.00
H606   H     0.47291   0.18228   0.86068   0.00000  Uiso   1.00
H607   H     0.46831   0.32481   0.80196   0.00000  Uiso   1.00
H608   H     0.02708   0.18229   0.80596   0.00000  Uiso   1.00
C609   C     0.09457   0.29152   0.85570   0.00000  Uiso   1.00
C610   C     0.40875   0.20911   0.84187   0.00000  Uiso   1.00
C611   C     0.40543   0.29153   0.81100   0.00000  Uiso   1.00
C612   C     0.09124   0.20912   0.82477   0.00000  Uiso   1.00
C613   C     0.11666   0.24975   0.83981   0.00000  Uiso   1.00
C614   C     0.38334   0.24976   0.82686   0.00000  Uiso   1.00
C615   C     0.02416   0.25441   0.83357   0.00000  Uiso   1.00
C616   C     0.47585   0.25441   0.83312   0.00000  Uiso   1.00
C617   C     0.26668   0.10364   0.87364   0.00000  Uiso   1.00
C618   C     0.22110   0.39556   0.80253   0.00000  Uiso   1.00
C619   C     0.23333   0.10363   0.79303   0.00000  Uiso   1.00
C620   C     0.27890   0.39556   0.86413   0.00000  Uiso   1.00
H621   H     0.27741   0.03479   0.90734   0.00000  Uiso   1.00
H622   H     0.19585   0.46397   0.77918   0.00000  Uiso   1.00
H623   H     0.22259   0.03478   0.75933   0.00000  Uiso   1.00
H624   H     0.30415   0.46397   0.88749   0.00000  Uiso   1.00
N625   N     0.28579   0.12678   0.91647   0.00000  Uiso   1.00
O626   O     0.27573   0.11211   0.95977   0.00000  Uiso   1.00
O627   O     0.32005   0.15396   0.91311   0.00000  Uiso   1.00
N628   N     0.19155   0.37096   0.76888   0.00000  Uiso   1.00
O629   O     0.20234   0.36597   0.72359   0.00000  Uiso   1.00
O630   O     0.15021   0.36855   0.77836   0.00000  Uiso   1.00
N631   N     0.21422   0.12677   0.75019   0.00000  Uiso   1.00
O632   O     0.22427   0.11209   0.70690   0.00000  Uiso   1.00
O633   O     0.17996   0.15396   0.75355   0.00000  Uiso   1.00
N634   N     0.30845   0.37096   0.89779   0.00000  Uiso   1.00
O635   O     0.29764   0.36598   0.94308   0.00000  Uiso   1.00
O636   O     0.34979   0.36855   0.88832   0.00000  Uiso   1.00
N637   N     0.11788   0.33047   0.87976   0.00000  Uiso   1.00
O638   O     0.14760   0.32165   0.91465   0.00000  Uiso   1.00
O639   O     0.10376   0.37419   0.87380   0.00000  Uiso   1.00
N640   N     0.38996   0.16262   0.84883   0.00000  Uiso   1.00
O641   O     0.36925   0.14164   0.81177   0.00000  Uiso   1.00
O642   O     0.40464   0.13628   0.88556   0.00000  Uiso   1.00
N643   N     0.38213   0.33050   0.78695   0.00000  Uiso   1.00
O644   O     0.35242   0.32168   0.75205   0.00000  Uiso   1.00
O645   O     0.39626   0.37421   0.79293   0.00000  Uiso   1.00
N646   N     0.11003   0.16264   0.81776   0.00000  Uiso   1.00
O647   O     0.13073   0.14162   0.85480   0.00000  Uiso   1.00
O648   O     0.09535   0.13634   0.78100   0.00000  Uiso   1.00
O649   O     0.68573   0.29072   0.83334   0.00000  Uiso   1.00
O650   O     0.81427   0.20929   0.83333   0.00000  Uiso   1.00
O651   O     0.81427   0.29072   0.83333   0.00000  Uiso   1.00
O652   O     0.68573   0.20929   0.83334   0.00000  Uiso   1.00
C653   C     0.66505   0.24989   0.83586   0.00000  Uiso   1.00
C654   C     0.83495   0.24989   0.83081   0.00000  Uiso   1.00
O655   O     0.75000   0.29071   0.76280   0.00000  Uiso   1.00
O656   O     0.75000   0.20929   0.90387   0.00000  Uiso   1.00
O657   O     0.75000   0.29071   0.90387   0.00000  Uiso   1.00
O658   O     0.75000   0.20929   0.76280   0.00000  Uiso   1.00
C659   C     0.76556   0.05311   0.87428   0.00000  Uiso   1.00
C660   C     0.72023   0.44600   0.80285   0.00000  Uiso   1.00
C661   C     0.73444   0.05310   0.79239   0.00000  Uiso   1.00
C662   C     0.77977   0.44600   0.86382   0.00000  Uiso   1.00
C663   C     0.74988   0.25000   0.74024   0.00000  Uiso   1.00
C664   C     0.75012   0.25000   0.92643   0.00000  Uiso   1.00
Cu665  Cu    0.75000   0.29822   0.83333   0.00000  Uiso   1.00
Cu666  Cu    0.75000   0.20179   0.83333   0.00000  Uiso   1.00
N667   N     0.75000   0.12935   0.83333   0.00000  Uiso   1.00
N668   N     0.75000   0.37066   0.83333   0.00000  Uiso   1.00
C669   C     0.75000   0.02673   0.83334   0.00000  Uiso   1.00
C670   C     0.75000   0.47241   0.83334   0.00000  Uiso   1.00
C671   C     0.74996   0.24999   0.68852   0.00000  Uiso   1.00
C672   C     0.75004   0.24999   0.97815   0.00000  Uiso   1.00
C673   C     0.54856   0.29352   0.85160   0.00000  Uiso   1.00
C674   C     0.95418   0.21298   0.84717   0.00000  Uiso   1.00
C675   C     0.95144   0.29353   0.81511   0.00000  Uiso   1.00
C676   C     0.54581   0.21299   0.81948   0.00000  Uiso   1.00
H677   H     0.53170   0.32480   0.86477   0.00000  Uiso   1.00
H678   H     0.97291   0.18228   0.86068   0.00000  Uiso   1.00
H679   H     0.96831   0.32481   0.80196   0.00000  Uiso   1.00
H680   H     0.52708   0.18229   0.80596   0.00000  Uiso   1.00
C681   C     0.59457   0.29152   0.85570   0.00000  Uiso   1.00
C682   C     0.90875   0.20911   0.84187   0.00000  Uiso   1.00
C683   C     0.90543   0.29153   0.81100   0.00000  Uiso   1.00
C684   C     0.59124   0.20912   0.82477   0.00000  Uiso   1.00
C685   C     0.61666   0.24975   0.83981   0.00000  Uiso   1.00
C686   C     0.88334   0.24976   0.82686   0.00000  Uiso   1.00
C687   C     0.52416   0.25441   0.83357   0.00000  Uiso   1.00
C688   C     0.97585   0.25441   0.83312   0.00000  Uiso   1.00
C689   C     0.76668   0.10364   0.87364   0.00000  Uiso   1.00
C690   C     0.72110   0.39556   0.80253   0.00000  Uiso   1.00
C691   C     0.73333   0.10363   0.79303   0.00000  Uiso   1.00
C692   C     0.77890   0.39556   0.86413   0.00000  Uiso   1.00
H693   H     0.77741   0.03479   0.90734   0.00000  Uiso   1.00
H694   H     0.69585   0.46397   0.77918   0.00000  Uiso   1.00
H695   H     0.72259   0.03478   0.75933   0.00000  Uiso   1.00
H696   H     0.80415   0.46397   0.88749   0.00000  Uiso   1.00
N697   N     0.78579   0.12678   0.91647   0.00000  Uiso   1.00
O698   O     0.77573   0.11211   0.95977   0.00000  Uiso   1.00
O699   O     0.82005   0.15396   0.91311   0.00000  Uiso   1.00
N700   N     0.69155   0.37096   0.76888   0.00000  Uiso   1.00
O701   O     0.70234   0.36597   0.72359   0.00000  Uiso   1.00
O702   O     0.65021   0.36855   0.77836   0.00000  Uiso   1.00
N703   N     0.71422   0.12677   0.75019   0.00000  Uiso   1.00
O704   O     0.72427   0.11209   0.70690   0.00000  Uiso   1.00
O705   O     0.67996   0.15396   0.75355   0.00000  Uiso   1.00
N706   N     0.80845   0.37096   0.89779   0.00000  Uiso   1.00
O707   O     0.79764   0.36598   0.94308   0.00000  Uiso   1.00
O708   O     0.84979   0.36855   0.88832   0.00000  Uiso   1.00
N709   N     0.61788   0.33047   0.87976   0.00000  Uiso   1.00
O710   O     0.64760   0.32165   0.91465   0.00000  Uiso   1.00
O711   O     0.60376   0.37419   0.87380   0.00000  Uiso   1.00
N712   N     0.88996   0.16262   0.84883   0.00000  Uiso   1.00
O713   O     0.86925   0.14164   0.81177   0.00000  Uiso   1.00
O714   O     0.90464   0.13628   0.88556   0.00000  Uiso   1.00
N715   N     0.88213   0.33050   0.78695   0.00000  Uiso   1.00
O716   O     0.85242   0.32168   0.75205   0.00000  Uiso   1.00
O717   O     0.89626   0.37421   0.79293   0.00000  Uiso   1.00
N718   N     0.61003   0.16264   0.81776   0.00000  Uiso   1.00
O719   O     0.63073   0.14162   0.85480   0.00000  Uiso   1.00
O720   O     0.59535   0.13634   0.78100   0.00000  Uiso   1.00
O721   O     0.18573   0.79072   0.83334   0.00000  Uiso   1.00
O722   O     0.31427   0.70929   0.83333   0.00000  Uiso   1.00
O723   O     0.31427   0.79072   0.83333   0.00000  Uiso   1.00
O724   O     0.18573   0.70929   0.83334   0.00000  Uiso   1.00
C725   C     0.16505   0.74989   0.83586   0.00000  Uiso   1.00
C726   C     0.33495   0.74989   0.83081   0.00000  Uiso   1.00
O727   O     0.25000   0.79071   0.76280   0.00000  Uiso   1.00
O728   O     0.25000   0.70929   0.90387   0.00000  Uiso   1.00
O729   O     0.25000   0.79071   0.90387   0.00000  Uiso   1.00
O730   O     0.25000   0.70929   0.76280   0.00000  Uiso   1.00
C731   C     0.26556   0.55311   0.87428   0.00000  Uiso   1.00
C732   C     0.22023   0.94600   0.80285   0.00000  Uiso   1.00
C733   C     0.23444   0.55310   0.79239   0.00000  Uiso   1.00
C734   C     0.27977   0.94600   0.86382   0.00000  Uiso   1.00
C735   C     0.24988   0.75000   0.74024   0.00000  Uiso   1.00
C736   C     0.25012   0.75000   0.92643   0.00000  Uiso   1.00
Cu737  Cu    0.25000   0.79822   0.83333   0.00000  Uiso   1.00
Cu738  Cu    0.25000   0.70179   0.83333   0.00000  Uiso   1.00
N739   N     0.25000   0.62935   0.83333   0.00000  Uiso   1.00
N740   N     0.25000   0.87066   0.83333   0.00000  Uiso   1.00
C741   C     0.25000   0.52673   0.83334   0.00000  Uiso   1.00
C742   C     0.25000   0.97241   0.83334   0.00000  Uiso   1.00
C743   C     0.24996   0.74999   0.68852   0.00000  Uiso   1.00
C744   C     0.25004   0.74999   0.97815   0.00000  Uiso   1.00
C745   C     0.04856   0.79352   0.85160   0.00000  Uiso   1.00
C746   C     0.45418   0.71298   0.84717   0.00000  Uiso   1.00
C747   C     0.45144   0.79353   0.81511   0.00000  Uiso   1.00
C748   C     0.04581   0.71299   0.81948   0.00000  Uiso   1.00
H749   H     0.03170   0.82480   0.86477   0.00000  Uiso   1.00
H750   H     0.47291   0.68228   0.86068   0.00000  Uiso   1.00
H751   H     0.46831   0.82481   0.80196   0.00000  Uiso   1.00
H752   H     0.02708   0.68229   0.80596   0.00000  Uiso   1.00
C753   C     0.09457   0.79152   0.85570   0.00000  Uiso   1.00
C754   C     0.40875   0.70911   0.84187   0.00000  Uiso   1.00
C755   C     0.40543   0.79153   0.81100   0.00000  Uiso   1.00
C756   C     0.09124   0.70912   0.82477   0.00000  Uiso   1.00
C757   C     0.11666   0.74975   0.83981   0.00000  Uiso   1.00
C758   C     0.38334   0.74976   0.82686   0.00000  Uiso   1.00
C759   C     0.02416   0.75441   0.83357   0.00000  Uiso   1.00
C760   C     0.47585   0.75441   0.83312   0.00000  Uiso   1.00
C761   C     0.26668   0.60364   0.87364   0.00000  Uiso   1.00
C762   C     0.22110   0.89556   0.80253   0.00000  Uiso   1.00
C763   C     0.23333   0.60363   0.79303   0.00000  Uiso   1.00
C764   C     0.27890   0.89556   0.86413   0.00000  Uiso   1.00
H765   H     0.27741   0.53479   0.90734   0.00000  Uiso   1.00
H766   H     0.19585   0.96397   0.77918   0.00000  Uiso   1.00
H767   H     0.22259   0.53478   0.75933   0.00000  Uiso   1.00
H768   H     0.30415   0.96397   0.88749   0.00000  Uiso   1.00
N769   N     0.28579   0.62678   0.91647   0.00000  Uiso   1.00
O770   O     0.27573   0.61211   0.95977   0.00000  Uiso   1.00
O771   O     0.32005   0.65396   0.91311   0.00000  Uiso   1.00
N772   N     0.19155   0.87096   0.76888   0.00000  Uiso   1.00
O773   O     0.20234   0.86597   0.72359   0.00000  Uiso   1.00
O774   O     0.15021   0.86855   0.77836   0.00000  Uiso   1.00
N775   N     0.21422   0.62677   0.75019   0.00000  Uiso   1.00
O776   O     0.22427   0.61209   0.70690   0.00000  Uiso   1.00
O777   O     0.17996   0.65396   0.75355   0.00000  Uiso   1.00
N778   N     0.30845   0.87096   0.89779   0.00000  Uiso   1.00
O779   O     0.29764   0.86598   0.94308   0.00000  Uiso   1.00
O780   O     0.34979   0.86855   0.88832   0.00000  Uiso   1.00
N781   N     0.11788   0.83047   0.87976   0.00000  Uiso   1.00
O782   O     0.14760   0.82165   0.91465   0.00000  Uiso   1.00
O783   O     0.10376   0.87419   0.87380   0.00000  Uiso   1.00
N784   N     0.38996   0.66262   0.84883   0.00000  Uiso   1.00
O785   O     0.36925   0.64164   0.81177   0.00000  Uiso   1.00
O786   O     0.40464   0.63628   0.88556   0.00000  Uiso   1.00
N787   N     0.38213   0.83050   0.78695   0.00000  Uiso   1.00
O788   O     0.35242   0.82168   0.75205   0.00000  Uiso   1.00
O789   O     0.39626   0.87421   0.79293   0.00000  Uiso   1.00
N790   N     0.11003   0.66264   0.81776   0.00000  Uiso   1.00
O791   O     0.13073   0.64162   0.85480   0.00000  Uiso   1.00
O792   O     0.09535   0.63634   0.78100   0.00000  Uiso   1.00
O793   O     0.68573   0.79072   0.83334   0.00000  Uiso   1.00
O794   O     0.81427   0.70929   0.83333   0.00000  Uiso   1.00
O795   O     0.81427   0.79072   0.83333   0.00000  Uiso   1.00
O796   O     0.68573   0.70929   0.83334   0.00000  Uiso   1.00
C797   C     0.66505   0.74989   0.83586   0.00000  Uiso   1.00
C798   C     0.83495   0.74989   0.83081   0.00000  Uiso   1.00
O799   O     0.75000   0.79071   0.76280   0.00000  Uiso   1.00
O800   O     0.75000   0.70929   0.90387   0.00000  Uiso   1.00
O801   O     0.75000   0.79071   0.90387   0.00000  Uiso   1.00
O802   O     0.75000   0.70929   0.76280   0.00000  Uiso   1.00
C803   C     0.76556   0.55311   0.87428   0.00000  Uiso   1.00
C804   C     0.72023   0.94600   0.80285   0.00000  Uiso   1.00
C805   C     0.73444   0.55310   0.79239   0.00000  Uiso   1.00
C806   C     0.77977   0.94600   0.86382   0.00000  Uiso   1.00
C807   C     0.74988   0.75000   0.74024   0.00000  Uiso   1.00
C808   C     0.75012   0.75000   0.92643   0.00000  Uiso   1.00
Cu809  Cu    0.75000   0.79822   0.83333   0.00000  Uiso   1.00
Cu810  Cu    0.75000   0.70179   0.83333   0.00000  Uiso   1.00
N811   N     0.75000   0.62935   0.83333   0.00000  Uiso   1.00
N812   N     0.75000   0.87066   0.83333   0.00000  Uiso   1.00
C813   C     0.75000   0.52673   0.83334   0.00000  Uiso   1.00
C814   C     0.75000   0.97241   0.83334   0.00000  Uiso   1.00
C815   C     0.74996   0.74999   0.68852   0.00000  Uiso   1.00
C816   C     0.75004   0.74999   0.97815   0.00000  Uiso   1.00
C817   C     0.54856   0.79352   0.85160   0.00000  Uiso   1.00
C818   C     0.95418   0.71298   0.84717   0.00000  Uiso   1.00
C819   C     0.95144   0.79353   0.81511   0.00000  Uiso   1.00
C820   C     0.54581   0.71299   0.81948   0.00000  Uiso   1.00
H821   H     0.53170   0.82480   0.86477   0.00000  Uiso   1.00
H822   H     0.97291   0.68228   0.86068   0.00000  Uiso   1.00
H823   H     0.96831   0.82481   0.80196   0.00000  Uiso   1.00
H824   H     0.52708   0.68229   0.80596   0.00000  Uiso   1.00
C825   C     0.59457   0.79152   0.85570   0.00000  Uiso   1.00
C826   C     0.90875   0.70911   0.84187   0.00000  Uiso   1.00
C827   C     0.90543   0.79153   0.81100   0.00000  Uiso   1.00
C828   C     0.59124   0.70912   0.82477   0.00000  Uiso   1.00
C829   C     0.61666   0.74975   0.83981   0.00000  Uiso   1.00
C830   C     0.88334   0.74976   0.82686   0.00000  Uiso   1.00
C831   C     0.52416   0.75441   0.83357   0.00000  Uiso   1.00
C832   C     0.97585   0.75441   0.83312   0.00000  Uiso   1.00
C833   C     0.76668   0.60364   0.87364   0.00000  Uiso   1.00
C834   C     0.72110   0.89556   0.80253   0.00000  Uiso   1.00
C835   C     0.73333   0.60363   0.79303   0.00000  Uiso   1.00
C836   C     0.77890   0.89556   0.86413   0.00000  Uiso   1.00
H837   H     0.77741   0.53479   0.90734   0.00000  Uiso   1.00
H838   H     0.69585   0.96397   0.77918   0.00000  Uiso   1.00
H839   H     0.72259   0.53478   0.75933   0.00000  Uiso   1.00
H840   H     0.80415   0.96397   0.88749   0.00000  Uiso   1.00
N841   N     0.78579   0.62678   0.91647   0.00000  Uiso   1.00
O842   O     0.77573   0.61211   0.95977   0.00000  Uiso   1.00
O843   O     0.82005   0.65396   0.91311   0.00000  Uiso   1.00
N844   N     0.69155   0.87096   0.76888   0.00000  Uiso   1.00
O845   O     0.70234   0.86597   0.72359   0.00000  Uiso   1.00
O846   O     0.65021   0.86855   0.77836   0.00000  Uiso   1.00
N847   N     0.71422   0.62677   0.75019   0.00000  Uiso   1.00
O848   O     0.72427   0.61209   0.70690   0.00000  Uiso   1.00
O849   O     0.67996   0.65396   0.75355   0.00000  Uiso   1.00
N850   N     0.80845   0.87096   0.89779   0.00000  Uiso   1.00
O851   O     0.79764   0.86598   0.94308   0.00000  Uiso   1.00
O852   O     0.84979   0.86855   0.88832   0.00000  Uiso   1.00
N853   N     0.61788   0.83047   0.87976   0.00000  Uiso   1.00
O854   O     0.64760   0.82165   0.91465   0.00000  Uiso   1.00
O855   O     0.60376   0.87419   0.87380   0.00000  Uiso   1.00
N856   N     0.88996   0.66262   0.84883   0.00000  Uiso   1.00
O857   O     0.86925   0.64164   0.81177   0.00000  Uiso   1.00
O858   O     0.90464   0.63628   0.88556   0.00000  Uiso   1.00
N859   N     0.88213   0.83050   0.78695   0.00000  Uiso   1.00
O860   O     0.85242   0.82168   0.75205   0.00000  Uiso   1.00
O861   O     0.89626   0.87421   0.79293   0.00000  Uiso   1.00
N862   N     0.61003   0.66264   0.81776   0.00000  Uiso   1.00
O863   O     0.63073   0.64162   0.85480   0.00000  Uiso   1.00
O864   O     0.59535   0.63634   0.78100   0.00000  Uiso   1.00
loop_
_geom_bond_atom_site_label_1
_geom_bond_atom_site_label_2
_geom_bond_distance
_geom_bond_site_symmetry_2
_ccdc_geom_bond_type
O1     Cu17    1.969   .     S
O1     C5      1.306   .     A
O2     Cu18    1.969   .     S
O2     C6      1.300   .     A
O3     Cu17    1.969   .     S
O3     C6      1.306   .     A
O4     Cu18    1.969   .     S
O4     C5      1.300   .     A
C5     C37     1.483   .     S
C6     C38     1.483   .     S
O7     Cu17    1.933   .     S
O7     C15     1.292   .     A
O8     C16     1.292   .     A
O8     Cu18    1.933   .     S
O9     Cu17    1.933   .     S
O9     C16     1.292   .     A
O10    Cu18    1.933   .     S
O10    C15     1.292   .     A
C11    H45     1.081   .     S
C11    C41     1.411   .     A
C11    C21     1.399   .     A
C12    C42     1.408   .     A
C12    C22     1.406   .     A
C12    H46     1.081   .     S
C13    C21     1.399   .     A
C13    C43     1.411   .     A
C13    H47     1.081   .     S
C14    C22     1.406   .     A
C14    C44     1.408   .     A
C14    H48     1.081   .     S
C15    C23     1.409   .     S
C16    C24     1.409   .     S
Cu17   Cu18    2.692   .     S
Cu17   N20     2.022   .     S
Cu18   N19     2.022   .     S
N19    C41     1.386   .     A
N19    C43     1.386   .     A
N20    C42     1.373   .     A
N20    C44     1.373   .     A
C21    C166    1.517   1_545 S
C22    C165    1.517   .     S
C23    C600    1.190   1_554 S
C24    C311    1.190   .     S
C25    C39     1.396   .     A
C25    H29     1.083   .     S
C25    C33     1.401   .     A
C26    C34     1.388   .     A
C26    H30     1.083   .     S
C26    C40     1.395   .     A
C27    C40     1.396   .     A
C27    C35     1.401   .     A
C27    H31     1.083   .     S
C28    H32     1.083   .     S
C28    C36     1.388   .     A
C28    C39     1.395   .     A
C33    N61     1.438   .     S
C33    C37     1.425   .     A
C34    N64     1.435   .     S
C34    C38     1.422   .     A
C35    N67     1.438   .     S
C35    C38     1.425   .     A
C36    C37     1.422   .     A
C36    N70     1.435   .     S
C39    C112    1.471   1_455 S
C40    C111    1.471   .     S
C41    N49     1.431   .     S
C42    N52     1.427   .     S
C43    N55     1.431   .     S
C44    N58     1.427   .     S
N49    O50     1.300   .     A
N49    O51     1.297   .     A
N52    O54     1.300   .     A
N52    O53     1.301   .     A
N55    O56     1.300   .     A
N55    O57     1.297   .     A
N58    O60     1.300   .     A
N58    O59     1.301   .     A
N61    O62     1.302   .     A
N61    O63     1.301   .     A
N64    O65     1.302   .     A
N64    O66     1.302   .     A
N67    O69     1.301   .     A
N67    O68     1.302   .     A
N70    O71     1.302   .     A
N70    O72     1.302   .     A
O73    Cu89    1.969   .     S
O73    C77     1.306   .     A
O74    Cu90    1.969   .     S
O74    C78     1.300   .     A
O75    Cu89    1.969   .     S
O75    C78     1.306   .     A
O76    Cu90    1.969   .     S
O76    C77     1.300   .     A
C77    C109    1.483   .     S
C78    C110    1.483   .     S
O79    Cu89    1.933   .     S
O79    C87     1.292   .     A
O80    C88     1.292   .     A
O80    Cu90    1.933   .     S
O81    Cu89    1.933   .     S
O81    C88     1.292   .     A
O82    Cu90    1.933   .     S
O82    C87     1.292   .     A
C83    H117    1.081   .     S
C83    C113    1.411   .     A
C83    C93     1.399   .     A
C84    C114    1.408   .     A
C84    C94     1.406   .     A
C84    H118    1.081   .     S
C85    C93     1.399   .     A
C85    C115    1.411   .     A
C85    H119    1.081   .     S
C86    C94     1.406   .     A
C86    C116    1.408   .     A
C86    H120    1.081   .     S
C87    C95     1.409   .     S
C88    C96     1.409   .     S
Cu89   Cu90    2.692   .     S
Cu89   N92     2.022   .     S
Cu90   N91     2.022   .     S
N91    C113    1.386   .     A
N91    C115    1.386   .     A
N92    C114    1.373   .     A
N92    C116    1.373   .     A
C93    C238    1.517   1_545 S
C94    C237    1.517   .     S
C95    C672    1.190   1_554 S
C96    C383    1.190   .     S
C97    C111    1.396   .     A
C97    H101    1.083   .     S
C97    C105    1.401   .     A
C98    C106    1.388   .     A
C98    H102    1.083   .     S
C98    C112    1.395   .     A
C99    C112    1.396   .     A
C99    C107    1.401   .     A
C99    H103    1.083   .     S
C100   H104    1.083   .     S
C100   C108    1.388   .     A
C100   C111    1.395   .     A
C105   N133    1.438   .     S
C105   C109    1.425   .     A
C106   N136    1.435   .     S
C106   C110    1.422   .     A
C107   N139    1.438   .     S
C107   C110    1.425   .     A
C108   C109    1.422   .     A
C108   N142    1.435   .     S
C112   C39     1.471   1_655 S
C113   N121    1.431   .     S
C114   N124    1.427   .     S
C115   N127    1.431   .     S
C116   N130    1.427   .     S
N121   O122    1.300   .     A
N121   O123    1.297   .     A
N124   O126    1.300   .     A
N124   O125    1.301   .     A
N127   O128    1.300   .     A
N127   O129    1.297   .     A
N130   O132    1.300   .     A
N130   O131    1.301   .     A
N133   O134    1.302   .     A
N133   O135    1.301   .     A
N136   O137    1.302   .     A
N136   O138    1.302   .     A
N139   O141    1.301   .     A
N139   O140    1.302   .     A
N142   O143    1.302   .     A
N142   O144    1.302   .     A
O145   Cu161   1.969   .     S
O145   C149    1.306   .     A
O146   Cu162   1.969   .     S
O146   C150    1.300   .     A
O147   Cu161   1.969   .     S
O147   C150    1.306   .     A
O148   Cu162   1.969   .     S
O148   C149    1.300   .     A
C149   C181    1.483   .     S
C150   C182    1.483   .     S
O151   Cu161   1.933   .     S
O151   C159    1.292   .     A
O152   C160    1.292   .     A
O152   Cu162   1.933   .     S
O153   Cu161   1.933   .     S
O153   C160    1.292   .     A
O154   Cu162   1.933   .     S
O154   C159    1.292   .     A
C155   H189    1.081   .     S
C155   C185    1.411   .     A
C155   C165    1.399   .     A
C156   C186    1.408   .     A
C156   C166    1.406   .     A
C156   H190    1.081   .     S
C157   C165    1.399   .     A
C157   C187    1.411   .     A
C157   H191    1.081   .     S
C158   C166    1.406   .     A
C158   C188    1.408   .     A
C158   H192    1.081   .     S
C159   C167    1.409   .     S
C160   C168    1.409   .     S
Cu161  Cu162   2.692   .     S
Cu161  N164    2.022   .     S
Cu162  N163    2.022   .     S
N163   C185    1.386   .     A
N163   C187    1.386   .     A
N164   C186    1.373   .     A
N164   C188    1.373   .     A
C166   C21     1.517   1_565 S
C167   C744    1.190   1_554 S
C168   C455    1.190   .     S
C169   C183    1.396   .     A
C169   H173    1.083   .     S
C169   C177    1.401   .     A
C170   C178    1.388   .     A
C170   H174    1.083   .     S
C170   C184    1.395   .     A
C171   C184    1.396   .     A
C171   C179    1.401   .     A
C171   H175    1.083   .     S
C172   H176    1.083   .     S
C172   C180    1.388   .     A
C172   C183    1.395   .     A
C177   N205    1.438   .     S
C177   C181    1.425   .     A
C178   N208    1.435   .     S
C178   C182    1.422   .     A
C179   N211    1.438   .     S
C179   C182    1.425   .     A
C180   C181    1.422   .     A
C180   N214    1.435   .     S
C183   C256    1.471   1_455 S
C184   C255    1.471   .     S
C185   N193    1.431   .     S
C186   N196    1.427   .     S
C187   N199    1.431   .     S
C188   N202    1.427   .     S
N193   O194    1.300   .     A
N193   O195    1.297   .     A
N196   O198    1.300   .     A
N196   O197    1.301   .     A
N199   O200    1.300   .     A
N199   O201    1.297   .     A
N202   O204    1.300   .     A
N202   O203    1.301   .     A
N205   O206    1.302   .     A
N205   O207    1.301   .     A
N208   O209    1.302   .     A
N208   O210    1.302   .     A
N211   O213    1.301   .     A
N211   O212    1.302   .     A
N214   O215    1.302   .     A
N214   O216    1.302   .     A
O217   Cu233   1.969   .     S
O217   C221    1.306   .     A
O218   Cu234   1.969   .     S
O218   C222    1.300   .     A
O219   Cu233   1.969   .     S
O219   C222    1.306   .     A
O220   Cu234   1.969   .     S
O220   C221    1.300   .     A
C221   C253    1.483   .     S
C222   C254    1.483   .     S
O223   Cu233   1.933   .     S
O223   C231    1.292   .     A
O224   C232    1.292   .     A
O224   Cu234   1.933   .     S
O225   Cu233   1.933   .     S
O225   C232    1.292   .     A
O226   Cu234   1.933   .     S
O226   C231    1.292   .     A
C227   H261    1.081   .     S
C227   C257    1.411   .     A
C227   C237    1.399   .     A
C228   C258    1.408   .     A
C228   C238    1.406   .     A
C228   H262    1.081   .     S
C229   C237    1.399   .     A
C229   C259    1.411   .     A
C229   H263    1.081   .     S
C230   C238    1.406   .     A
C230   C260    1.408   .     A
C230   H264    1.081   .     S
C231   C239    1.409   .     S
C232   C240    1.409   .     S
Cu233  Cu234   2.692   .     S
Cu233  N236    2.022   .     S
Cu234  N235    2.022   .     S
N235   C257    1.386   .     A
N235   C259    1.386   .     A
N236   C258    1.373   .     A
N236   C260    1.373   .     A
C238   C93     1.517   1_565 S
C239   C816    1.190   1_554 S
C240   C527    1.190   .     S
C241   C255    1.396   .     A
C241   H245    1.083   .     S
C241   C249    1.401   .     A
C242   C250    1.388   .     A
C242   H246    1.083   .     S
C242   C256    1.395   .     A
C243   C256    1.396   .     A
C243   C251    1.401   .     A
C243   H247    1.083   .     S
C244   H248    1.083   .     S
C244   C252    1.388   .     A
C244   C255    1.395   .     A
C249   N277    1.438   .     S
C249   C253    1.425   .     A
C250   N280    1.435   .     S
C250   C254    1.422   .     A
C251   N283    1.438   .     S
C251   C254    1.425   .     A
C252   C253    1.422   .     A
C252   N286    1.435   .     S
C256   C183    1.471   1_655 S
C257   N265    1.431   .     S
C258   N268    1.427   .     S
C259   N271    1.431   .     S
C260   N274    1.427   .     S
N265   O266    1.300   .     A
N265   O267    1.297   .     A
N268   O270    1.300   .     A
N268   O269    1.301   .     A
N271   O272    1.300   .     A
N271   O273    1.297   .     A
N274   O276    1.300   .     A
N274   O275    1.301   .     A
N277   O278    1.302   .     A
N277   O279    1.301   .     A
N280   O281    1.302   .     A
N280   O282    1.302   .     A
N283   O285    1.301   .     A
N283   O284    1.302   .     A
N286   O287    1.302   .     A
N286   O288    1.302   .     A
O289   Cu305   1.969   .     S
O289   C293    1.306   .     A
O290   Cu306   1.969   .     S
O290   C294    1.300   .     A
O291   Cu305   1.969   .     S
O291   C294    1.306   .     A
O292   Cu306   1.969   .     S
O292   C293    1.300   .     A
C293   C325    1.483   .     S
C294   C326    1.483   .     S
O295   Cu305   1.933   .     S
O295   C303    1.292   .     A
O296   C304    1.292   .     A
O296   Cu306   1.933   .     S
O297   Cu305   1.933   .     S
O297   C304    1.292   .     A
O298   Cu306   1.933   .     S
O298   C303    1.292   .     A
C299   H333    1.081   .     S
C299   C329    1.411   .     A
C299   C309    1.399   .     A
C300   C330    1.408   .     A
C300   C310    1.406   .     A
C300   H334    1.081   .     S
C301   C309    1.399   .     A
C301   C331    1.411   .     A
C301   H335    1.081   .     S
C302   C310    1.406   .     A
C302   C332    1.408   .     A
C302   H336    1.081   .     S
C303   C311    1.409   .     S
C304   C312    1.409   .     S
Cu305  Cu306   2.692   .     S
Cu305  N308    2.022   .     S
Cu306  N307    2.022   .     S
N307   C329    1.386   .     A
N307   C331    1.386   .     A
N308   C330    1.373   .     A
N308   C332    1.373   .     A
C309   C454    1.517   1_545 S
C310   C453    1.517   .     S
C312   C599    1.190   .     S
C313   C327    1.396   .     A
C313   H317    1.083   .     S
C313   C321    1.401   .     A
C314   C322    1.388   .     A
C314   H318    1.083   .     S
C314   C328    1.395   .     A
C315   C328    1.396   .     A
C315   C323    1.401   .     A
C315   H319    1.083   .     S
C316   H320    1.083   .     S
C316   C324    1.388   .     A
C316   C327    1.395   .     A
C321   N349    1.438   .     S
C321   C325    1.425   .     A
C322   N352    1.435   .     S
C322   C326    1.422   .     A
C323   N355    1.438   .     S
C323   C326    1.425   .     A
C324   C325    1.422   .     A
C324   N358    1.435   .     S
C327   C400    1.471   1_455 S
C328   C399    1.471   .     S
C329   N337    1.431   .     S
C330   N340    1.427   .     S
C331   N343    1.431   .     S
C332   N346    1.427   .     S
N337   O338    1.300   .     A
N337   O339    1.297   .     A
N340   O342    1.300   .     A
N340   O341    1.301   .     A
N343   O344    1.300   .     A
N343   O345    1.297   .     A
N346   O348    1.300   .     A
N346   O347    1.301   .     A
N349   O350    1.302   .     A
N349   O351    1.301   .     A
N352   O353    1.302   .     A
N352   O354    1.302   .     A
N355   O357    1.301   .     A
N355   O356    1.302   .     A
N358   O359    1.302   .     A
N358   O360    1.302   .     A
O361   Cu377   1.969   .     S
O361   C365    1.306   .     A
O362   Cu378   1.969   .     S
O362   C366    1.300   .     A
O363   Cu377   1.969   .     S
O363   C366    1.306   .     A
O364   Cu378   1.969   .     S
O364   C365    1.300   .     A
C365   C397    1.483   .     S
C366   C398    1.483   .     S
O367   Cu377   1.933   .     S
O367   C375    1.292   .     A
O368   C376    1.292   .     A
O368   Cu378   1.933   .     S
O369   Cu377   1.933   .     S
O369   C376    1.292   .     A
O370   Cu378   1.933   .     S
O370   C375    1.292   .     A
C371   H405    1.081   .     S
C371   C401    1.411   .     A
C371   C381    1.399   .     A
C372   C402    1.408   .     A
C372   C382    1.406   .     A
C372   H406    1.081   .     S
C373   C381    1.399   .     A
C373   C403    1.411   .     A
C373   H407    1.081   .     S
C374   C382    1.406   .     A
C374   C404    1.408   .     A
C374   H408    1.081   .     S
C375   C383    1.409   .     S
C376   C384    1.409   .     S
Cu377  Cu378   2.692   .     S
Cu377  N380    2.022   .     S
Cu378  N379    2.022   .     S
N379   C401    1.386   .     A
N379   C403    1.386   .     A
N380   C402    1.373   .     A
N380   C404    1.373   .     A
C381   C526    1.517   1_545 S
C382   C525    1.517   .     S
C384   C671    1.190   .     S
C385   C399    1.396   .     A
C385   H389    1.083   .     S
C385   C393    1.401   .     A
C386   C394    1.388   .     A
C386   H390    1.083   .     S
C386   C400    1.395   .     A
C387   C400    1.396   .     A
C387   C395    1.401   .     A
C387   H391    1.083   .     S
C388   H392    1.083   .     S
C388   C396    1.388   .     A
C388   C399    1.395   .     A
C393   N421    1.438   .     S
C393   C397    1.425   .     A
C394   N424    1.435   .     S
C394   C398    1.422   .     A
C395   N427    1.438   .     S
C395   C398    1.425   .     A
C396   C397    1.422   .     A
C396   N430    1.435   .     S
C400   C327    1.471   1_655 S
C401   N409    1.431   .     S
C402   N412    1.427   .     S
C403   N415    1.431   .     S
C404   N418    1.427   .     S
N409   O410    1.300   .     A
N409   O411    1.297   .     A
N412   O414    1.300   .     A
N412   O413    1.301   .     A
N415   O416    1.300   .     A
N415   O417    1.297   .     A
N418   O420    1.300   .     A
N418   O419    1.301   .     A
N421   O422    1.302   .     A
N421   O423    1.301   .     A
N424   O425    1.302   .     A
N424   O426    1.302   .     A
N427   O429    1.301   .     A
N427   O428    1.302   .     A
N430   O431    1.302   .     A
N430   O432    1.302   .     A
O433   Cu449   1.969   .     S
O433   C437    1.306   .     A
O434   Cu450   1.969   .     S
O434   C438    1.300   .     A
O435   Cu449   1.969   .     S
O435   C438    1.306   .     A
O436   Cu450   1.969   .     S
O436   C437    1.300   .     A
C437   C469    1.483   .     S
C438   C470    1.483   .     S
O439   Cu449   1.933   .     S
O439   C447    1.292   .     A
O440   C448    1.292   .     A
O440   Cu450   1.933   .     S
O441   Cu449   1.933   .     S
O441   C448    1.292   .     A
O442   Cu450   1.933   .     S
O442   C447    1.292   .     A
C443   H477    1.081   .     S
C443   C473    1.411   .     A
C443   C453    1.399   .     A
C444   C474    1.408   .     A
C444   C454    1.406   .     A
C444   H478    1.081   .     S
C445   C453    1.399   .     A
C445   C475    1.411   .     A
C445   H479    1.081   .     S
C446   C454    1.406   .     A
C446   C476    1.408   .     A
C446   H480    1.081   .     S
C447   C455    1.409   .     S
C448   C456    1.409   .     S
Cu449  Cu450   2.692   .     S
Cu449  N452    2.022   .     S
Cu450  N451    2.022   .     S
N451   C473    1.386   .     A
N451   C475    1.386   .     A
N452   C474    1.373   .     A
N452   C476    1.373   .     A
C454   C309    1.517   1_565 S
C456   C743    1.190   .     S
C457   C471    1.396   .     A
C457   H461    1.083   .     S
C457   C465    1.401   .     A
C458   C466    1.388   .     A
C458   H462    1.083   .     S
C458   C472    1.395   .     A
C459   C472    1.396   .     A
C459   C467    1.401   .     A
C459   H463    1.083   .     S
C460   H464    1.083   .     S
C460   C468    1.388   .     A
C460   C471    1.395   .     A
C465   N493    1.438   .     S
C465   C469    1.425   .     A
C466   N496    1.435   .     S
C466   C470    1.422   .     A
C467   N499    1.438   .     S
C467   C470    1.425   .     A
C468   C469    1.422   .     A
C468   N502    1.435   .     S
C471   C544    1.471   1_455 S
C472   C543    1.471   .     S
C473   N481    1.431   .     S
C474   N484    1.427   .     S
C475   N487    1.431   .     S
C476   N490    1.427   .     S
N481   O482    1.300   .     A
N481   O483    1.297   .     A
N484   O486    1.300   .     A
N484   O485    1.301   .     A
N487   O488    1.300   .     A
N487   O489    1.297   .     A
N490   O492    1.300   .     A
N490   O491    1.301   .     A
N493   O494    1.302   .     A
N493   O495    1.301   .     A
N496   O497    1.302   .     A
N496   O498    1.302   .     A
N499   O501    1.301   .     A
N499   O500    1.302   .     A
N502   O503    1.302   .     A
N502   O504    1.302   .     A
O505   Cu521   1.969   .     S
O505   C509    1.306   .     A
O506   Cu522   1.969   .     S
O506   C510    1.300   .     A
O507   Cu521   1.969   .     S
O507   C510    1.306   .     A
O508   Cu522   1.969   .     S
O508   C509    1.300   .     A
C509   C541    1.483   .     S
C510   C542    1.483   .     S
O511   Cu521   1.933   .     S
O511   C519    1.292   .     A
O512   C520    1.292   .     A
O512   Cu522   1.933   .     S
O513   Cu521   1.933   .     S
O513   C520    1.292   .     A
O514   Cu522   1.933   .     S
O514   C519    1.292   .     A
C515   H549    1.081   .     S
C515   C545    1.411   .     A
C515   C525    1.399   .     A
C516   C546    1.408   .     A
C516   C526    1.406   .     A
C516   H550    1.081   .     S
C517   C525    1.399   .     A
C517   C547    1.411   .     A
C517   H551    1.081   .     S
C518   C526    1.406   .     A
C518   C548    1.408   .     A
C518   H552    1.081   .     S
C519   C527    1.409   .     S
C520   C528    1.409   .     S
Cu521  Cu522   2.692   .     S
Cu521  N524    2.022   .     S
Cu522  N523    2.022   .     S
N523   C545    1.386   .     A
N523   C547    1.386   .     A
N524   C546    1.373   .     A
N524   C548    1.373   .     A
C526   C381    1.517   1_565 S
C528   C815    1.190   .     S
C529   C543    1.396   .     A
C529   H533    1.083   .     S
C529   C537    1.401   .     A
C530   C538    1.388   .     A
C530   H534    1.083   .     S
C530   C544    1.395   .     A
C531   C544    1.396   .     A
C531   C539    1.401   .     A
C531   H535    1.083   .     S
C532   H536    1.083   .     S
C532   C540    1.388   .     A
C532   C543    1.395   .     A
C537   N565    1.438   .     S
C537   C541    1.425   .     A
C538   N568    1.435   .     S
C538   C542    1.422   .     A
C539   N571    1.438   .     S
C539   C542    1.425   .     A
C540   C541    1.422   .     A
C540   N574    1.435   .     S
C544   C471    1.471   1_655 S
C545   N553    1.431   .     S
C546   N556    1.427   .     S
C547   N559    1.431   .     S
C548   N562    1.427   .     S
N553   O554    1.300   .     A
N553   O555    1.297   .     A
N556   O558    1.300   .     A
N556   O557    1.301   .     A
N559   O560    1.300   .     A
N559   O561    1.297   .     A
N562   O564    1.300   .     A
N562   O563    1.301   .     A
N565   O566    1.302   .     A
N565   O567    1.301   .     A
N568   O569    1.302   .     A
N568   O570    1.302   .     A
N571   O573    1.301   .     A
N571   O572    1.302   .     A
N574   O575    1.302   .     A
N574   O576    1.302   .     A
O577   Cu593   1.969   .     S
O577   C581    1.306   .     A
O578   Cu594   1.969   .     S
O578   C582    1.300   .     A
O579   Cu593   1.969   .     S
O579   C582    1.306   .     A
O580   Cu594   1.969   .     S
O580   C581    1.300   .     A
C581   C613    1.483   .     S
C582   C614    1.483   .     S
O583   Cu593   1.933   .     S
O583   C591    1.292   .     A
O584   C592    1.292   .     A
O584   Cu594   1.933   .     S
O585   Cu593   1.933   .     S
O585   C592    1.292   .     A
O586   Cu594   1.933   .     S
O586   C591    1.292   .     A
C587   H621    1.081   .     S
C587   C617    1.411   .     A
C587   C597    1.399   .     A
C588   C618    1.408   .     A
C588   C598    1.406   .     A
C588   H622    1.081   .     S
C589   C597    1.399   .     A
C589   C619    1.411   .     A
C589   H623    1.081   .     S
C590   C598    1.406   .     A
C590   C620    1.408   .     A
C590   H624    1.081   .     S
C591   C599    1.409   .     S
C592   C600    1.409   .     S
Cu593  Cu594   2.692   .     S
Cu593  N596    2.022   .     S
Cu594  N595    2.022   .     S
N595   C617    1.386   .     A
N595   C619    1.386   .     A
N596   C618    1.373   .     A
N596   C620    1.373   .     A
C597   C742    1.517   1_545 S
C598   C741    1.517   .     S
C600   C23     1.190   1_556 S
C601   C615    1.396   .     A
C601   H605    1.083   .     S
C601   C609    1.401   .     A
C602   C610    1.388   .     A
C602   H606    1.083   .     S
C602   C616    1.395   .     A
C603   C616    1.396   .     A
C603   C611    1.401   .     A
C603   H607    1.083   .     S
C604   H608    1.083   .     S
C604   C612    1.388   .     A
C604   C615    1.395   .     A
C609   N637    1.438   .     S
C609   C613    1.425   .     A
C610   N640    1.435   .     S
C610   C614    1.422   .     A
C611   N643    1.438   .     S
C611   C614    1.425   .     A
C612   C613    1.422   .     A
C612   N646    1.435   .     S
C615   C688    1.471   1_455 S
C616   C687    1.471   .     S
C617   N625    1.431   .     S
C618   N628    1.427   .     S
C619   N631    1.431   .     S
C620   N634    1.427   .     S
N625   O626    1.300   .     A
N625   O627    1.297   .     A
N628   O630    1.300   .     A
N628   O629    1.301   .     A
N631   O632    1.300   .     A
N631   O633    1.297   .     A
N634   O636    1.300   .     A
N634   O635    1.301   .     A
N637   O638    1.302   .     A
N637   O639    1.301   .     A
N640   O641    1.302   .     A
N640   O642    1.302   .     A
N643   O645    1.301   .     A
N643   O644    1.302   .     A
N646   O647    1.302   .     A
N646   O648    1.302   .     A
O649   Cu665   1.969   .     S
O649   C653    1.306   .     A
O650   Cu666   1.969   .     S
O650   C654    1.300   .     A
O651   Cu665   1.969   .     S
O651   C654    1.306   .     A
O652   Cu666   1.969   .     S
O652   C653    1.300   .     A
C653   C685    1.483   .     S
C654   C686    1.483   .     S
O655   Cu665   1.933   .     S
O655   C663    1.292   .     A
O656   C664    1.292   .     A
O656   Cu666   1.933   .     S
O657   Cu665   1.933   .     S
O657   C664    1.292   .     A
O658   Cu666   1.933   .     S
O658   C663    1.292   .     A
C659   H693    1.081   .     S
C659   C689    1.411   .     A
C659   C669    1.399   .     A
C660   C690    1.408   .     A
C660   C670    1.406   .     A
C660   H694    1.081   .     S
C661   C669    1.399   .     A
C661   C691    1.411   .     A
C661   H695    1.081   .     S
C662   C670    1.406   .     A
C662   C692    1.408   .     A
C662   H696    1.081   .     S
C663   C671    1.409   .     S
C664   C672    1.409   .     S
Cu665  Cu666   2.692   .     S
Cu665  N668    2.022   .     S
Cu666  N667    2.022   .     S
N667   C689    1.386   .     A
N667   C691    1.386   .     A
N668   C690    1.373   .     A
N668   C692    1.373   .     A
C669   C814    1.517   1_545 S
C670   C813    1.517   .     S
C672   C95     1.190   1_556 S
C673   C687    1.396   .     A
C673   H677    1.083   .     S
C673   C681    1.401   .     A
C674   C682    1.388   .     A
C674   H678    1.083   .     S
C674   C688    1.395   .     A
C675   C688    1.396   .     A
C675   C683    1.401   .     A
C675   H679    1.083   .     S
C676   H680    1.083   .     S
C676   C684    1.388   .     A
C676   C687    1.395   .     A
C681   N709    1.438   .     S
C681   C685    1.425   .     A
C682   N712    1.435   .     S
C682   C686    1.422   .     A
C683   N715    1.438   .     S
C683   C686    1.425   .     A
C684   C685    1.422   .     A
C684   N718    1.435   .     S
C688   C615    1.471   1_655 S
C689   N697    1.431   .     S
C690   N700    1.427   .     S
C691   N703    1.431   .     S
C692   N706    1.427   .     S
N697   O698    1.300   .     A
N697   O699    1.297   .     A
N700   O702    1.300   .     A
N700   O701    1.301   .     A
N703   O704    1.300   .     A
N703   O705    1.297   .     A
N706   O708    1.300   .     A
N706   O707    1.301   .     A
N709   O710    1.302   .     A
N709   O711    1.301   .     A
N712   O713    1.302   .     A
N712   O714    1.302   .     A
N715   O717    1.301   .     A
N715   O716    1.302   .     A
N718   O719    1.302   .     A
N718   O720    1.302   .     A
O721   Cu737   1.969   .     S
O721   C725    1.306   .     A
O722   Cu738   1.969   .     S
O722   C726    1.300   .     A
O723   Cu737   1.969   .     S
O723   C726    1.306   .     A
O724   Cu738   1.969   .     S
O724   C725    1.300   .     A
C725   C757    1.483   .     S
C726   C758    1.483   .     S
O727   Cu737   1.933   .     S
O727   C735    1.292   .     A
O728   C736    1.292   .     A
O728   Cu738   1.933   .     S
O729   Cu737   1.933   .     S
O729   C736    1.292   .     A
O730   Cu738   1.933   .     S
O730   C735    1.292   .     A
C731   H765    1.081   .     S
C731   C761    1.411   .     A
C731   C741    1.399   .     A
C732   C762    1.408   .     A
C732   C742    1.406   .     A
C732   H766    1.081   .     S
C733   C741    1.399   .     A
C733   C763    1.411   .     A
C733   H767    1.081   .     S
C734   C742    1.406   .     A
C734   C764    1.408   .     A
C734   H768    1.081   .     S
C735   C743    1.409   .     S
C736   C744    1.409   .     S
Cu737  Cu738   2.692   .     S
Cu737  N740    2.022   .     S
Cu738  N739    2.022   .     S
N739   C761    1.386   .     A
N739   C763    1.386   .     A
N740   C762    1.373   .     A
N740   C764    1.373   .     A
C742   C597    1.517   1_565 S
C744   C167    1.190   1_556 S
C745   C759    1.396   .     A
C745   H749    1.083   .     S
C745   C753    1.401   .     A
C746   C754    1.388   .     A
C746   H750    1.083   .     S
C746   C760    1.395   .     A
C747   C760    1.396   .     A
C747   C755    1.401   .     A
C747   H751    1.083   .     S
C748   H752    1.083   .     S
C748   C756    1.388   .     A
C748   C759    1.395   .     A
C753   N781    1.438   .     S
C753   C757    1.425   .     A
C754   N784    1.435   .     S
C754   C758    1.422   .     A
C755   N787    1.438   .     S
C755   C758    1.425   .     A
C756   C757    1.422   .     A
C756   N790    1.435   .     S
C759   C832    1.471   1_455 S
C760   C831    1.471   .     S
C761   N769    1.431   .     S
C762   N772    1.427   .     S
C763   N775    1.431   .     S
C764   N778    1.427   .     S
N769   O770    1.300   .     A
N769   O771    1.297   .     A
N772   O774    1.300   .     A
N772   O773    1.301   .     A
N775   O776    1.300   .     A
N775   O777    1.297   .     A
N778   O780    1.300   .     A
N778   O779    1.301   .     A
N781   O782    1.302   .     A
N781   O783    1.301   .     A
N784   O785    1.302   .     A
N784   O786    1.302   .     A
N787   O789    1.301   .     A
N787   O788    1.302   .     A
N790   O791    1.302   .     A
N790   O792    1.302   .     A
O793   Cu809   1.969   .     S
O793   C797    1.306   .     A
O794   Cu810   1.969   .     S
O794   C798    1.300   .     A
O795   Cu809   1.969   .     S
O795   C798    1.306   .     A
O796   Cu810   1.969   .     S
O796   C797    1.300   .     A
C797   C829    1.483   .     S
C798   C830    1.483   .     S
O799   Cu809   1.933   .     S
O799   C807    1.292   .     A
O800   C808    1.292   .     A
O800   Cu810   1.933   .     S
O801   Cu809   1.933   .     S
O801   C808    1.292   .     A
O802   Cu810   1.933   .     S
O802   C807    1.292   .     A
C803   H837    1.081   .     S
C803   C833    1.411   .     A
C803   C813    1.399   .     A
C804   C834    1.408   .     A
C804   C814    1.406   .     A
C804   H838    1.081   .     S
C805   C813    1.399   .     A
C805   C835    1.411   .     A
C805   H839    1.081   .     S
C806   C814    1.406   .     A
C806   C836    1.408   .     A
C806   H840    1.081   .     S
C807   C815    1.409   .     S
C808   C816    1.409   .     S
Cu809  Cu810   2.692   .     S
Cu809  N812    2.022   .     S
Cu810  N811    2.022   .     S
N811   C833    1.386   .     A
N811   C835    1.386   .     A
N812   C834    1.373   .     A
N812   C836    1.373   .     A
C814   C669    1.517   1_565 S
C816   C239    1.190   1_556 S
C817   C831    1.396   .     A
C817   H821    1.083   .     S
C817   C825    1.401   .     A
C818   C826    1.388   .     A
C818   H822    1.083   .     S
C818   C832    1.395   .     A
C819   C832    1.396   .     A
C819   C827    1.401   .     A
C819   H823    1.083   .     S
C820   H824    1.083   .     S
C820   C828    1.388   .     A
C820   C831    1.395   .     A
C825   N853    1.438   .     S
C825   C829    1.425   .     A
C826   N856    1.435   .     S
C826   C830    1.422   .     A
C827   N859    1.438   .     S
C827   C830    1.425   .     A
C828   C829    1.422   .     A
C828   N862    1.435   .     S
C832   C759    1.471   1_655 S
C833   N841    1.431   .     S
C834   N844    1.427   .     S
C835   N847    1.431   .     S
C836   N850    1.427   .     S
N841   O842    1.300   .     A
N841   O843    1.297   .     A
N844   O846    1.300   .     A
N844   O845    1.301   .     A
N847   O848    1.300   .     A
N847   O849    1.297   .     A
N850   O852    1.300   .     A
N850   O851    1.301   .     A
N853   O854    1.302   .     A
N853   O855    1.301   .     A
N856   O857    1.302   .     A
N856   O858    1.302   .     A
N859   O861    1.301   .     A
N859   O860    1.302   .     A
N862   O863    1.302   .     A
N862   O864    1.302   .     A
