data_str_m2_o1_o17_pcu_sym.52
_audit_creation_date              2020-01-03
_audit_creation_method            'Materials Studio'
_symmetry_space_group_name_H-M    'P1'
_symmetry_Int_Tables_number       1
_symmetry_cell_setting            triclinic
loop_
_symmetry_equiv_pos_as_xyz
  x,y,z
_cell_length_a                    32.5263
_cell_length_b                    29.0103
_cell_length_c                    30.1029
_cell_angle_alpha                 90.0000
_cell_angle_beta                  91.9384
_cell_angle_gamma                 90.0000
loop_
_atom_site_label
_atom_site_type_symbol
_atom_site_fract_x
_atom_site_fract_y
_atom_site_fract_z
_atom_site_U_iso_or_equiv
_atom_site_adp_type
_atom_site_occupancy
Br1    Br    0.08050   0.15341   0.36955   0.00000  Uiso   1.00
Br2    Br    0.25284   0.15341   0.13045   0.00000  Uiso   1.00
Br3    Br    0.10248   0.05436   0.18219   0.00000  Uiso   1.00
Br4    Br    0.23046   0.27705   0.31835   0.00000  Uiso   1.00
Br5    Br    0.23086   0.05436   0.31781   0.00000  Uiso   1.00
Br6    Br    0.10287   0.27705   0.18165   0.00000  Uiso   1.00
C7     C     0.08751   0.16668   0.25037   0.00000  Uiso   1.00
C8     C     0.04280   0.16669   0.25043   0.00000  Uiso   1.00
C9     C     0.14050   0.02435   0.22224   0.00000  Uiso   1.00
C10    C     0.19281   0.30855   0.27788   0.00000  Uiso   1.00
C11    C     0.19283   0.02435   0.27776   0.00000  Uiso   1.00
C12    C     0.14053   0.30855   0.22212   0.00000  Uiso   1.00
C13    C     0.16573   0.16691   0.16460   0.00000  Uiso   1.00
C14    C     0.16760   0.16691   0.33540   0.00000  Uiso   1.00
C15    C     0.20442   0.17652   0.40826   0.00000  Uiso   1.00
C16    C     0.12892   0.17652   0.09174   0.00000  Uiso   1.00
C17    C     0.16746   0.16835   0.38378   0.00000  Uiso   1.00
C18    C     0.24582   0.16668   0.24963   0.00000  Uiso   1.00
C19    C     0.16588   0.16835   0.11622   0.00000  Uiso   1.00
C20    C     0.12965   0.16721   0.40505   0.00000  Uiso   1.00
C21    C     0.20369   0.16721   0.09495   0.00000  Uiso   1.00
C22    C     0.12881   0.17409   0.45151   0.00000  Uiso   1.00
C23    C     0.20452   0.17409   0.04849   0.00000  Uiso   1.00
C24    C     0.16657   0.17459   0.47654   0.00000  Uiso   1.00
C25    C     0.16676   0.17459   0.02346   0.00000  Uiso   1.00
C26    C     0.20419   0.17685   0.45474   0.00000  Uiso   1.00
C27    C     0.12915   0.17685   0.04526   0.00000  Uiso   1.00
C28    C     0.09191   0.18207   0.47392   0.00000  Uiso   1.00
C29    C     0.09231   0.18170   0.02028   0.00000  Uiso   1.00
C30    C     0.24143   0.18207   0.02608   0.00000  Uiso   1.00
C31    C     0.25998   0.14975   0.37156   0.00000  Uiso   1.00
C32    C     0.30580   0.15873   0.36952   0.00000  Uiso   1.00
C33    C     0.07335   0.14975   0.12844   0.00000  Uiso   1.00
C34    C     0.02754   0.15873   0.13048   0.00000  Uiso   1.00
C35    C     0.05198   0.24270   0.45247   0.00000  Uiso   1.00
C36    C     0.01606   0.25793   0.42234   0.00000  Uiso   1.00
C37    C     0.28134   0.24271   0.04754   0.00000  Uiso   1.00
C38    C     0.31727   0.25793   0.07766   0.00000  Uiso   1.00
C39    C     0.24103   0.18170   0.47972   0.00000  Uiso   1.00
C40    C     0.02129   0.12484   0.25027   0.00000  Uiso   1.00
C41    C     0.31205   0.20854   0.24971   0.00000  Uiso   1.00
C42    C     0.31205   0.12484   0.24973   0.00000  Uiso   1.00
C43    C     0.02129   0.20854   0.25030   0.00000  Uiso   1.00
C44    C     0.29053   0.16669   0.24957   0.00000  Uiso   1.00
Cu45   Cu    0.16667   0.21355   0.25000   0.00000  Uiso   1.00
Cu46   Cu    0.16667   0.11978   0.25000   0.00000  Uiso   1.00
H47    H     0.06336   0.18615   0.03646   0.00000  Uiso   1.00
H48    H     0.32088   0.12894   0.35361   0.00000  Uiso   1.00
H49    H     0.31144   0.19014   0.34956   0.00000  Uiso   1.00
H50    H     0.08485   0.14325   0.16271   0.00000  Uiso   1.00
H51    H     0.07773   0.11860   0.10730   0.00000  Uiso   1.00
H52    H     0.01406   0.16306   0.09642   0.00000  Uiso   1.00
H53    H     0.01245   0.12894   0.14639   0.00000  Uiso   1.00
H54    H     0.02189   0.19014   0.15044   0.00000  Uiso   1.00
H55    H     0.08024   0.25998   0.44062   0.00000  Uiso   1.00
H56    H     0.04601   0.25457   0.48683   0.00000  Uiso   1.00
H57    H     0.32040   0.24212   0.43334   0.00000  Uiso   1.00
H58    H     0.26997   0.18615   0.46354   0.00000  Uiso   1.00
H59    H     0.01290   0.29601   0.42374   0.00000  Uiso   1.00
H60    H     0.02156   0.24771   0.38751   0.00000  Uiso   1.00
H61    H     0.25308   0.25998   0.05940   0.00000  Uiso   1.00
H62    H     0.28731   0.25458   0.01318   0.00000  Uiso   1.00
H63    H     0.01293   0.24212   0.06665   0.00000  Uiso   1.00
H64    H     0.32043   0.29601   0.07627   0.00000  Uiso   1.00
H65    H     0.31178   0.24770   0.11249   0.00000  Uiso   1.00
H66    H     0.03723   0.09208   0.25049   0.00000  Uiso   1.00
H67    H     0.29610   0.24131   0.24946   0.00000  Uiso   1.00
H68    H     0.29611   0.09208   0.24951   0.00000  Uiso   1.00
H69    H     0.03723   0.24131   0.25054   0.00000  Uiso   1.00
H70    H     0.24848   0.14326   0.33729   0.00000  Uiso   1.00
H71    H     0.25561   0.11860   0.39270   0.00000  Uiso   1.00
H72    H     0.31928   0.16306   0.40359   0.00000  Uiso   1.00
N73    N     0.16667   0.28402   0.25000   0.00000  Uiso   1.00
N74    N     0.16667   0.04931   0.25000   0.00000  Uiso   1.00
O75    O     0.10655   0.20625   0.25000   0.00000  Uiso   1.00
O76    O     0.09331   0.18923   0.11262   0.00000  Uiso   1.00
O77    O     0.05584   0.19411   0.45117   0.00000  Uiso   1.00
O78    O     0.27749   0.19411   0.04883   0.00000  Uiso   1.00
O79    O     0.22679   0.12709   0.25001   0.00000  Uiso   1.00
O80    O     0.22679   0.20625   0.25001   0.00000  Uiso   1.00
O81    O     0.10655   0.12709   0.25000   0.00000  Uiso   1.00
O82    O     0.16666   0.20627   0.18513   0.00000  Uiso   1.00
O83    O     0.16668   0.12707   0.31487   0.00000  Uiso   1.00
O84    O     0.16668   0.20627   0.31487   0.00000  Uiso   1.00
O85    O     0.16666   0.12707   0.18513   0.00000  Uiso   1.00
O86    O     0.24002   0.18923   0.38738   0.00000  Uiso   1.00
Br87   Br    0.41383   0.15341   0.36955   0.00000  Uiso   1.00
Br88   Br    0.58617   0.15341   0.13045   0.00000  Uiso   1.00
Br89   Br    0.43581   0.05436   0.18219   0.00000  Uiso   1.00
Br90   Br    0.56379   0.27705   0.31835   0.00000  Uiso   1.00
Br91   Br    0.56419   0.05436   0.31781   0.00000  Uiso   1.00
Br92   Br    0.43621   0.27705   0.18165   0.00000  Uiso   1.00
C93    C     0.42084   0.16668   0.25037   0.00000  Uiso   1.00
C94    C     0.37614   0.16669   0.25043   0.00000  Uiso   1.00
C95    C     0.47383   0.02435   0.22224   0.00000  Uiso   1.00
C96    C     0.52614   0.30855   0.27788   0.00000  Uiso   1.00
C97    C     0.52617   0.02435   0.27776   0.00000  Uiso   1.00
C98    C     0.47386   0.30855   0.22212   0.00000  Uiso   1.00
C99    C     0.49907   0.16691   0.16460   0.00000  Uiso   1.00
C100   C     0.50093   0.16691   0.33540   0.00000  Uiso   1.00
C101   C     0.53775   0.17652   0.40826   0.00000  Uiso   1.00
C102   C     0.46225   0.17652   0.09174   0.00000  Uiso   1.00
C103   C     0.50079   0.16835   0.38378   0.00000  Uiso   1.00
C104   C     0.57916   0.16668   0.24963   0.00000  Uiso   1.00
C105   C     0.49921   0.16835   0.11622   0.00000  Uiso   1.00
C106   C     0.46298   0.16721   0.40505   0.00000  Uiso   1.00
C107   C     0.53702   0.16721   0.09495   0.00000  Uiso   1.00
C108   C     0.46214   0.17409   0.45151   0.00000  Uiso   1.00
C109   C     0.53786   0.17409   0.04849   0.00000  Uiso   1.00
C110   C     0.49991   0.17459   0.47654   0.00000  Uiso   1.00
C111   C     0.50009   0.17459   0.02346   0.00000  Uiso   1.00
C112   C     0.53752   0.17685   0.45474   0.00000  Uiso   1.00
C113   C     0.46248   0.17685   0.04526   0.00000  Uiso   1.00
C114   C     0.42524   0.18207   0.47392   0.00000  Uiso   1.00
C115   C     0.42564   0.18170   0.02028   0.00000  Uiso   1.00
C116   C     0.57476   0.18207   0.02608   0.00000  Uiso   1.00
C117   C     0.59331   0.14975   0.37156   0.00000  Uiso   1.00
C118   C     0.63913   0.15873   0.36952   0.00000  Uiso   1.00
C119   C     0.40669   0.14975   0.12844   0.00000  Uiso   1.00
C120   C     0.36087   0.15873   0.13048   0.00000  Uiso   1.00
C121   C     0.38532   0.24270   0.45247   0.00000  Uiso   1.00
C122   C     0.34940   0.25793   0.42234   0.00000  Uiso   1.00
C123   C     0.61467   0.24271   0.04754   0.00000  Uiso   1.00
C124   C     0.65060   0.25793   0.07766   0.00000  Uiso   1.00
C125   C     0.57436   0.18170   0.47972   0.00000  Uiso   1.00
C126   C     0.35462   0.12484   0.25027   0.00000  Uiso   1.00
C127   C     0.64538   0.20854   0.24971   0.00000  Uiso   1.00
C128   C     0.64538   0.12484   0.24973   0.00000  Uiso   1.00
C129   C     0.35462   0.20854   0.25030   0.00000  Uiso   1.00
C130   C     0.62386   0.16669   0.24957   0.00000  Uiso   1.00
Cu131  Cu    0.50000   0.21355   0.25000   0.00000  Uiso   1.00
Cu132  Cu    0.50000   0.11978   0.25000   0.00000  Uiso   1.00
H133   H     0.39669   0.18615   0.03646   0.00000  Uiso   1.00
H134   H     0.65422   0.12894   0.35361   0.00000  Uiso   1.00
H135   H     0.64478   0.19014   0.34956   0.00000  Uiso   1.00
H136   H     0.41819   0.14325   0.16271   0.00000  Uiso   1.00
H137   H     0.41106   0.11860   0.10730   0.00000  Uiso   1.00
H138   H     0.34739   0.16306   0.09642   0.00000  Uiso   1.00
H139   H     0.34578   0.12894   0.14639   0.00000  Uiso   1.00
H140   H     0.35522   0.19014   0.15044   0.00000  Uiso   1.00
H141   H     0.41358   0.25998   0.44062   0.00000  Uiso   1.00
H142   H     0.37934   0.25457   0.48683   0.00000  Uiso   1.00
H143   H     0.65373   0.24212   0.43334   0.00000  Uiso   1.00
H144   H     0.60331   0.18615   0.46354   0.00000  Uiso   1.00
H145   H     0.34623   0.29601   0.42374   0.00000  Uiso   1.00
H146   H     0.35490   0.24771   0.38751   0.00000  Uiso   1.00
H147   H     0.58642   0.25998   0.05940   0.00000  Uiso   1.00
H148   H     0.62064   0.25458   0.01318   0.00000  Uiso   1.00
H149   H     0.34626   0.24212   0.06665   0.00000  Uiso   1.00
H150   H     0.65377   0.29601   0.07627   0.00000  Uiso   1.00
H151   H     0.64511   0.24770   0.11249   0.00000  Uiso   1.00
H152   H     0.37056   0.09208   0.25049   0.00000  Uiso   1.00
H153   H     0.62944   0.24131   0.24946   0.00000  Uiso   1.00
H154   H     0.62944   0.09208   0.24951   0.00000  Uiso   1.00
H155   H     0.37056   0.24131   0.25054   0.00000  Uiso   1.00
H156   H     0.58181   0.14326   0.33729   0.00000  Uiso   1.00
H157   H     0.58894   0.11860   0.39270   0.00000  Uiso   1.00
H158   H     0.65261   0.16306   0.40359   0.00000  Uiso   1.00
N159   N     0.50000   0.28402   0.25000   0.00000  Uiso   1.00
N160   N     0.50000   0.04931   0.25000   0.00000  Uiso   1.00
O161   O     0.43988   0.20625   0.25000   0.00000  Uiso   1.00
O162   O     0.42665   0.18923   0.11262   0.00000  Uiso   1.00
O163   O     0.38917   0.19411   0.45117   0.00000  Uiso   1.00
O164   O     0.61083   0.19411   0.04883   0.00000  Uiso   1.00
O165   O     0.56012   0.12709   0.25001   0.00000  Uiso   1.00
O166   O     0.56012   0.20625   0.25001   0.00000  Uiso   1.00
O167   O     0.43988   0.12709   0.25000   0.00000  Uiso   1.00
O168   O     0.49999   0.20627   0.18513   0.00000  Uiso   1.00
O169   O     0.50001   0.12707   0.31487   0.00000  Uiso   1.00
O170   O     0.50001   0.20627   0.31487   0.00000  Uiso   1.00
O171   O     0.49999   0.12707   0.18513   0.00000  Uiso   1.00
O172   O     0.57335   0.18923   0.38738   0.00000  Uiso   1.00
Br173  Br    0.74716   0.15341   0.36955   0.00000  Uiso   1.00
Br174  Br    0.91950   0.15341   0.13045   0.00000  Uiso   1.00
Br175  Br    0.76914   0.05436   0.18219   0.00000  Uiso   1.00
Br176  Br    0.89713   0.27705   0.31835   0.00000  Uiso   1.00
Br177  Br    0.89752   0.05436   0.31781   0.00000  Uiso   1.00
Br178  Br    0.76954   0.27705   0.18165   0.00000  Uiso   1.00
C179   C     0.75418   0.16668   0.25037   0.00000  Uiso   1.00
C180   C     0.70947   0.16669   0.25043   0.00000  Uiso   1.00
C181   C     0.80717   0.02435   0.22224   0.00000  Uiso   1.00
C182   C     0.85947   0.30855   0.27788   0.00000  Uiso   1.00
C183   C     0.85950   0.02435   0.27776   0.00000  Uiso   1.00
C184   C     0.80719   0.30855   0.22212   0.00000  Uiso   1.00
C185   C     0.83240   0.16691   0.16460   0.00000  Uiso   1.00
C186   C     0.83427   0.16691   0.33540   0.00000  Uiso   1.00
C187   C     0.87108   0.17652   0.40826   0.00000  Uiso   1.00
C188   C     0.79558   0.17652   0.09174   0.00000  Uiso   1.00
C189   C     0.83412   0.16835   0.38378   0.00000  Uiso   1.00
C190   C     0.91249   0.16668   0.24963   0.00000  Uiso   1.00
C191   C     0.83254   0.16835   0.11622   0.00000  Uiso   1.00
C192   C     0.79631   0.16721   0.40505   0.00000  Uiso   1.00
C193   C     0.87035   0.16721   0.09495   0.00000  Uiso   1.00
C194   C     0.79548   0.17409   0.45151   0.00000  Uiso   1.00
C195   C     0.87119   0.17409   0.04849   0.00000  Uiso   1.00
C196   C     0.83324   0.17459   0.47654   0.00000  Uiso   1.00
C197   C     0.83343   0.17459   0.02346   0.00000  Uiso   1.00
C198   C     0.87085   0.17685   0.45474   0.00000  Uiso   1.00
C199   C     0.79581   0.17685   0.04526   0.00000  Uiso   1.00
C200   C     0.75857   0.18207   0.47392   0.00000  Uiso   1.00
C201   C     0.75897   0.18170   0.02028   0.00000  Uiso   1.00
C202   C     0.90809   0.18207   0.02608   0.00000  Uiso   1.00
C203   C     0.92665   0.14975   0.37156   0.00000  Uiso   1.00
C204   C     0.97246   0.15873   0.36952   0.00000  Uiso   1.00
C205   C     0.74002   0.14975   0.12844   0.00000  Uiso   1.00
C206   C     0.69420   0.15873   0.13048   0.00000  Uiso   1.00
C207   C     0.71865   0.24270   0.45247   0.00000  Uiso   1.00
C208   C     0.68273   0.25793   0.42234   0.00000  Uiso   1.00
C209   C     0.94801   0.24271   0.04754   0.00000  Uiso   1.00
C210   C     0.98394   0.25793   0.07766   0.00000  Uiso   1.00
C211   C     0.90769   0.18170   0.47972   0.00000  Uiso   1.00
C212   C     0.68795   0.12484   0.25027   0.00000  Uiso   1.00
C213   C     0.97871   0.20854   0.24971   0.00000  Uiso   1.00
C214   C     0.97871   0.12484   0.24973   0.00000  Uiso   1.00
C215   C     0.68796   0.20854   0.25030   0.00000  Uiso   1.00
C216   C     0.95720   0.16669   0.24957   0.00000  Uiso   1.00
Cu217  Cu    0.83333   0.21355   0.25000   0.00000  Uiso   1.00
Cu218  Cu    0.83333   0.11978   0.25000   0.00000  Uiso   1.00
H219   H     0.73003   0.18615   0.03646   0.00000  Uiso   1.00
H220   H     0.98755   0.12894   0.35361   0.00000  Uiso   1.00
H221   H     0.97811   0.19014   0.34956   0.00000  Uiso   1.00
H222   H     0.75152   0.14325   0.16271   0.00000  Uiso   1.00
H223   H     0.74439   0.11860   0.10730   0.00000  Uiso   1.00
H224   H     0.68072   0.16306   0.09642   0.00000  Uiso   1.00
H225   H     0.67912   0.12894   0.14639   0.00000  Uiso   1.00
H226   H     0.68856   0.19014   0.15044   0.00000  Uiso   1.00
H227   H     0.74691   0.25998   0.44062   0.00000  Uiso   1.00
H228   H     0.71267   0.25457   0.48683   0.00000  Uiso   1.00
H229   H     0.98707   0.24212   0.43334   0.00000  Uiso   1.00
H230   H     0.93664   0.18615   0.46354   0.00000  Uiso   1.00
H231   H     0.67956   0.29601   0.42374   0.00000  Uiso   1.00
H232   H     0.68823   0.24771   0.38751   0.00000  Uiso   1.00
H233   H     0.91975   0.25998   0.05940   0.00000  Uiso   1.00
H234   H     0.95398   0.25458   0.01318   0.00000  Uiso   1.00
H235   H     0.67960   0.24212   0.06665   0.00000  Uiso   1.00
H236   H     0.98710   0.29601   0.07627   0.00000  Uiso   1.00
H237   H     0.97844   0.24770   0.11249   0.00000  Uiso   1.00
H238   H     0.70389   0.09208   0.25049   0.00000  Uiso   1.00
H239   H     0.96277   0.24131   0.24946   0.00000  Uiso   1.00
H240   H     0.96277   0.09208   0.24951   0.00000  Uiso   1.00
H241   H     0.70390   0.24131   0.25054   0.00000  Uiso   1.00
H242   H     0.91515   0.14326   0.33729   0.00000  Uiso   1.00
H243   H     0.92227   0.11860   0.39270   0.00000  Uiso   1.00
H244   H     0.98594   0.16306   0.40359   0.00000  Uiso   1.00
N245   N     0.83333   0.28402   0.25000   0.00000  Uiso   1.00
N246   N     0.83333   0.04931   0.25000   0.00000  Uiso   1.00
O247   O     0.77321   0.20625   0.25000   0.00000  Uiso   1.00
O248   O     0.75998   0.18923   0.11262   0.00000  Uiso   1.00
O249   O     0.72251   0.19411   0.45117   0.00000  Uiso   1.00
O250   O     0.94416   0.19411   0.04883   0.00000  Uiso   1.00
O251   O     0.89345   0.12709   0.25001   0.00000  Uiso   1.00
O252   O     0.89345   0.20625   0.25001   0.00000  Uiso   1.00
O253   O     0.77321   0.12709   0.25000   0.00000  Uiso   1.00
O254   O     0.83332   0.20627   0.18513   0.00000  Uiso   1.00
O255   O     0.83334   0.12707   0.31487   0.00000  Uiso   1.00
O256   O     0.83334   0.20627   0.31487   0.00000  Uiso   1.00
O257   O     0.83332   0.12707   0.18513   0.00000  Uiso   1.00
O258   O     0.90669   0.18923   0.38738   0.00000  Uiso   1.00
Br259  Br    0.08050   0.48674   0.36955   0.00000  Uiso   1.00
Br260  Br    0.25284   0.48674   0.13045   0.00000  Uiso   1.00
Br261  Br    0.10248   0.38769   0.18219   0.00000  Uiso   1.00
Br262  Br    0.23046   0.61039   0.31835   0.00000  Uiso   1.00
Br263  Br    0.23086   0.38769   0.31781   0.00000  Uiso   1.00
Br264  Br    0.10287   0.61039   0.18165   0.00000  Uiso   1.00
C265   C     0.08751   0.50001   0.25037   0.00000  Uiso   1.00
C266   C     0.04280   0.50003   0.25043   0.00000  Uiso   1.00
C267   C     0.14050   0.35768   0.22224   0.00000  Uiso   1.00
C268   C     0.19281   0.64188   0.27788   0.00000  Uiso   1.00
C269   C     0.19283   0.35768   0.27776   0.00000  Uiso   1.00
C270   C     0.14053   0.64188   0.22212   0.00000  Uiso   1.00
C271   C     0.16573   0.50024   0.16460   0.00000  Uiso   1.00
C272   C     0.16760   0.50024   0.33540   0.00000  Uiso   1.00
C273   C     0.20442   0.50985   0.40826   0.00000  Uiso   1.00
C274   C     0.12892   0.50985   0.09174   0.00000  Uiso   1.00
C275   C     0.16746   0.50169   0.38378   0.00000  Uiso   1.00
C276   C     0.24582   0.50001   0.24963   0.00000  Uiso   1.00
C277   C     0.16588   0.50169   0.11622   0.00000  Uiso   1.00
C278   C     0.12965   0.50054   0.40505   0.00000  Uiso   1.00
C279   C     0.20369   0.50054   0.09495   0.00000  Uiso   1.00
C280   C     0.12881   0.50742   0.45151   0.00000  Uiso   1.00
C281   C     0.20452   0.50742   0.04849   0.00000  Uiso   1.00
C282   C     0.16657   0.50792   0.47654   0.00000  Uiso   1.00
C283   C     0.16676   0.50792   0.02346   0.00000  Uiso   1.00
C284   C     0.20419   0.51018   0.45474   0.00000  Uiso   1.00
C285   C     0.12915   0.51018   0.04526   0.00000  Uiso   1.00
C286   C     0.09191   0.51541   0.47392   0.00000  Uiso   1.00
C287   C     0.09231   0.51504   0.02028   0.00000  Uiso   1.00
C288   C     0.24143   0.51541   0.02608   0.00000  Uiso   1.00
C289   C     0.25998   0.48308   0.37156   0.00000  Uiso   1.00
C290   C     0.30580   0.49206   0.36952   0.00000  Uiso   1.00
C291   C     0.07335   0.48308   0.12844   0.00000  Uiso   1.00
C292   C     0.02754   0.49207   0.13048   0.00000  Uiso   1.00
C293   C     0.05198   0.57604   0.45247   0.00000  Uiso   1.00
C294   C     0.01606   0.59127   0.42234   0.00000  Uiso   1.00
C295   C     0.28134   0.57604   0.04754   0.00000  Uiso   1.00
C296   C     0.31727   0.59127   0.07766   0.00000  Uiso   1.00
C297   C     0.24103   0.51504   0.47972   0.00000  Uiso   1.00
C298   C     0.02129   0.45818   0.25027   0.00000  Uiso   1.00
C299   C     0.31205   0.54188   0.24971   0.00000  Uiso   1.00
C300   C     0.31205   0.45818   0.24973   0.00000  Uiso   1.00
C301   C     0.02129   0.54188   0.25030   0.00000  Uiso   1.00
C302   C     0.29053   0.50003   0.24957   0.00000  Uiso   1.00
Cu303  Cu    0.16667   0.54689   0.25000   0.00000  Uiso   1.00
Cu304  Cu    0.16667   0.45311   0.25000   0.00000  Uiso   1.00
H305   H     0.06336   0.51949   0.03646   0.00000  Uiso   1.00
H306   H     0.32088   0.46227   0.35361   0.00000  Uiso   1.00
H307   H     0.31144   0.52347   0.34956   0.00000  Uiso   1.00
H308   H     0.08485   0.47659   0.16271   0.00000  Uiso   1.00
H309   H     0.07773   0.45193   0.10730   0.00000  Uiso   1.00
H310   H     0.01406   0.49640   0.09642   0.00000  Uiso   1.00
H311   H     0.01245   0.46227   0.14639   0.00000  Uiso   1.00
H312   H     0.02189   0.52347   0.15044   0.00000  Uiso   1.00
H313   H     0.08024   0.59332   0.44062   0.00000  Uiso   1.00
H314   H     0.04601   0.58790   0.48683   0.00000  Uiso   1.00
H315   H     0.32040   0.57545   0.43334   0.00000  Uiso   1.00
H316   H     0.26997   0.51949   0.46354   0.00000  Uiso   1.00
H317   H     0.01290   0.62934   0.42374   0.00000  Uiso   1.00
H318   H     0.02156   0.58104   0.38751   0.00000  Uiso   1.00
H319   H     0.25308   0.59331   0.05940   0.00000  Uiso   1.00
H320   H     0.28731   0.58791   0.01318   0.00000  Uiso   1.00
H321   H     0.01293   0.57546   0.06665   0.00000  Uiso   1.00
H322   H     0.32043   0.62935   0.07627   0.00000  Uiso   1.00
H323   H     0.31178   0.58104   0.11249   0.00000  Uiso   1.00
H324   H     0.03723   0.42541   0.25049   0.00000  Uiso   1.00
H325   H     0.29610   0.57464   0.24946   0.00000  Uiso   1.00
H326   H     0.29611   0.42541   0.24951   0.00000  Uiso   1.00
H327   H     0.03723   0.57464   0.25054   0.00000  Uiso   1.00
H328   H     0.24848   0.47659   0.33729   0.00000  Uiso   1.00
H329   H     0.25561   0.45193   0.39270   0.00000  Uiso   1.00
H330   H     0.31928   0.49639   0.40359   0.00000  Uiso   1.00
N331   N     0.16667   0.61736   0.25000   0.00000  Uiso   1.00
N332   N     0.16667   0.38264   0.25000   0.00000  Uiso   1.00
O333   O     0.10655   0.53958   0.25000   0.00000  Uiso   1.00
O334   O     0.09331   0.52257   0.11262   0.00000  Uiso   1.00
O335   O     0.05584   0.52744   0.45117   0.00000  Uiso   1.00
O336   O     0.27749   0.52744   0.04883   0.00000  Uiso   1.00
O337   O     0.22679   0.46042   0.25001   0.00000  Uiso   1.00
O338   O     0.22679   0.53958   0.25001   0.00000  Uiso   1.00
O339   O     0.10655   0.46042   0.25000   0.00000  Uiso   1.00
O340   O     0.16666   0.53960   0.18513   0.00000  Uiso   1.00
O341   O     0.16668   0.46040   0.31487   0.00000  Uiso   1.00
O342   O     0.16668   0.53960   0.31487   0.00000  Uiso   1.00
O343   O     0.16666   0.46040   0.18513   0.00000  Uiso   1.00
O344   O     0.24002   0.52257   0.38738   0.00000  Uiso   1.00
Br345  Br    0.41383   0.48674   0.36955   0.00000  Uiso   1.00
Br346  Br    0.58617   0.48674   0.13045   0.00000  Uiso   1.00
Br347  Br    0.43581   0.38769   0.18219   0.00000  Uiso   1.00
Br348  Br    0.56379   0.61039   0.31835   0.00000  Uiso   1.00
Br349  Br    0.56419   0.38769   0.31781   0.00000  Uiso   1.00
Br350  Br    0.43621   0.61039   0.18165   0.00000  Uiso   1.00
C351   C     0.42084   0.50001   0.25037   0.00000  Uiso   1.00
C352   C     0.37614   0.50003   0.25043   0.00000  Uiso   1.00
C353   C     0.47383   0.35768   0.22224   0.00000  Uiso   1.00
C354   C     0.52614   0.64188   0.27788   0.00000  Uiso   1.00
C355   C     0.52617   0.35768   0.27776   0.00000  Uiso   1.00
C356   C     0.47386   0.64188   0.22212   0.00000  Uiso   1.00
C357   C     0.49907   0.50024   0.16460   0.00000  Uiso   1.00
C358   C     0.50093   0.50024   0.33540   0.00000  Uiso   1.00
C359   C     0.53775   0.50985   0.40826   0.00000  Uiso   1.00
C360   C     0.46225   0.50985   0.09174   0.00000  Uiso   1.00
C361   C     0.50079   0.50169   0.38378   0.00000  Uiso   1.00
C362   C     0.57916   0.50001   0.24963   0.00000  Uiso   1.00
C363   C     0.49921   0.50169   0.11622   0.00000  Uiso   1.00
C364   C     0.46298   0.50054   0.40505   0.00000  Uiso   1.00
C365   C     0.53702   0.50054   0.09495   0.00000  Uiso   1.00
C366   C     0.46214   0.50742   0.45151   0.00000  Uiso   1.00
C367   C     0.53786   0.50742   0.04849   0.00000  Uiso   1.00
C368   C     0.49991   0.50792   0.47654   0.00000  Uiso   1.00
C369   C     0.50009   0.50792   0.02346   0.00000  Uiso   1.00
C370   C     0.53752   0.51018   0.45474   0.00000  Uiso   1.00
C371   C     0.46248   0.51018   0.04526   0.00000  Uiso   1.00
C372   C     0.42524   0.51541   0.47392   0.00000  Uiso   1.00
C373   C     0.42564   0.51504   0.02028   0.00000  Uiso   1.00
C374   C     0.57476   0.51541   0.02608   0.00000  Uiso   1.00
C375   C     0.59331   0.48308   0.37156   0.00000  Uiso   1.00
C376   C     0.63913   0.49206   0.36952   0.00000  Uiso   1.00
C377   C     0.40669   0.48308   0.12844   0.00000  Uiso   1.00
C378   C     0.36087   0.49207   0.13048   0.00000  Uiso   1.00
C379   C     0.38532   0.57604   0.45247   0.00000  Uiso   1.00
C380   C     0.34940   0.59127   0.42234   0.00000  Uiso   1.00
C381   C     0.61467   0.57604   0.04754   0.00000  Uiso   1.00
C382   C     0.65060   0.59127   0.07766   0.00000  Uiso   1.00
C383   C     0.57436   0.51504   0.47972   0.00000  Uiso   1.00
C384   C     0.35462   0.45818   0.25027   0.00000  Uiso   1.00
C385   C     0.64538   0.54188   0.24971   0.00000  Uiso   1.00
C386   C     0.64538   0.45818   0.24973   0.00000  Uiso   1.00
C387   C     0.35462   0.54188   0.25030   0.00000  Uiso   1.00
C388   C     0.62386   0.50003   0.24957   0.00000  Uiso   1.00
Cu389  Cu    0.50000   0.54689   0.25000   0.00000  Uiso   1.00
Cu390  Cu    0.50000   0.45311   0.25000   0.00000  Uiso   1.00
H391   H     0.39669   0.51949   0.03646   0.00000  Uiso   1.00
H392   H     0.65422   0.46227   0.35361   0.00000  Uiso   1.00
H393   H     0.64478   0.52347   0.34956   0.00000  Uiso   1.00
H394   H     0.41819   0.47659   0.16271   0.00000  Uiso   1.00
H395   H     0.41106   0.45193   0.10730   0.00000  Uiso   1.00
H396   H     0.34739   0.49640   0.09642   0.00000  Uiso   1.00
H397   H     0.34578   0.46227   0.14639   0.00000  Uiso   1.00
H398   H     0.35522   0.52347   0.15044   0.00000  Uiso   1.00
H399   H     0.41358   0.59332   0.44062   0.00000  Uiso   1.00
H400   H     0.37934   0.58790   0.48683   0.00000  Uiso   1.00
H401   H     0.65373   0.57545   0.43334   0.00000  Uiso   1.00
H402   H     0.60331   0.51949   0.46354   0.00000  Uiso   1.00
H403   H     0.34623   0.62934   0.42374   0.00000  Uiso   1.00
H404   H     0.35490   0.58104   0.38751   0.00000  Uiso   1.00
H405   H     0.58642   0.59331   0.05940   0.00000  Uiso   1.00
H406   H     0.62064   0.58791   0.01318   0.00000  Uiso   1.00
H407   H     0.34626   0.57546   0.06665   0.00000  Uiso   1.00
H408   H     0.65377   0.62935   0.07627   0.00000  Uiso   1.00
H409   H     0.64511   0.58104   0.11249   0.00000  Uiso   1.00
H410   H     0.37056   0.42541   0.25049   0.00000  Uiso   1.00
H411   H     0.62944   0.57464   0.24946   0.00000  Uiso   1.00
H412   H     0.62944   0.42541   0.24951   0.00000  Uiso   1.00
H413   H     0.37056   0.57464   0.25054   0.00000  Uiso   1.00
H414   H     0.58181   0.47659   0.33729   0.00000  Uiso   1.00
H415   H     0.58894   0.45193   0.39270   0.00000  Uiso   1.00
H416   H     0.65261   0.49639   0.40359   0.00000  Uiso   1.00
N417   N     0.50000   0.61736   0.25000   0.00000  Uiso   1.00
N418   N     0.50000   0.38264   0.25000   0.00000  Uiso   1.00
O419   O     0.43988   0.53958   0.25000   0.00000  Uiso   1.00
O420   O     0.42665   0.52257   0.11262   0.00000  Uiso   1.00
O421   O     0.38917   0.52744   0.45117   0.00000  Uiso   1.00
O422   O     0.61083   0.52744   0.04883   0.00000  Uiso   1.00
O423   O     0.56012   0.46042   0.25001   0.00000  Uiso   1.00
O424   O     0.56012   0.53958   0.25001   0.00000  Uiso   1.00
O425   O     0.43988   0.46042   0.25000   0.00000  Uiso   1.00
O426   O     0.49999   0.53960   0.18513   0.00000  Uiso   1.00
O427   O     0.50001   0.46040   0.31487   0.00000  Uiso   1.00
O428   O     0.50001   0.53960   0.31487   0.00000  Uiso   1.00
O429   O     0.49999   0.46040   0.18513   0.00000  Uiso   1.00
O430   O     0.57335   0.52257   0.38738   0.00000  Uiso   1.00
Br431  Br    0.74716   0.48674   0.36955   0.00000  Uiso   1.00
Br432  Br    0.91950   0.48674   0.13045   0.00000  Uiso   1.00
Br433  Br    0.76914   0.38769   0.18219   0.00000  Uiso   1.00
Br434  Br    0.89713   0.61039   0.31835   0.00000  Uiso   1.00
Br435  Br    0.89752   0.38769   0.31781   0.00000  Uiso   1.00
Br436  Br    0.76954   0.61039   0.18165   0.00000  Uiso   1.00
C437   C     0.75418   0.50001   0.25037   0.00000  Uiso   1.00
C438   C     0.70947   0.50003   0.25043   0.00000  Uiso   1.00
C439   C     0.80717   0.35768   0.22224   0.00000  Uiso   1.00
C440   C     0.85947   0.64188   0.27788   0.00000  Uiso   1.00
C441   C     0.85950   0.35768   0.27776   0.00000  Uiso   1.00
C442   C     0.80719   0.64188   0.22212   0.00000  Uiso   1.00
C443   C     0.83240   0.50024   0.16460   0.00000  Uiso   1.00
C444   C     0.83427   0.50024   0.33540   0.00000  Uiso   1.00
C445   C     0.87108   0.50985   0.40826   0.00000  Uiso   1.00
C446   C     0.79558   0.50985   0.09174   0.00000  Uiso   1.00
C447   C     0.83412   0.50169   0.38378   0.00000  Uiso   1.00
C448   C     0.91249   0.50001   0.24963   0.00000  Uiso   1.00
C449   C     0.83254   0.50169   0.11622   0.00000  Uiso   1.00
C450   C     0.79631   0.50054   0.40505   0.00000  Uiso   1.00
C451   C     0.87035   0.50054   0.09495   0.00000  Uiso   1.00
C452   C     0.79548   0.50742   0.45151   0.00000  Uiso   1.00
C453   C     0.87119   0.50742   0.04849   0.00000  Uiso   1.00
C454   C     0.83324   0.50792   0.47654   0.00000  Uiso   1.00
C455   C     0.83343   0.50792   0.02346   0.00000  Uiso   1.00
C456   C     0.87085   0.51018   0.45474   0.00000  Uiso   1.00
C457   C     0.79581   0.51018   0.04526   0.00000  Uiso   1.00
C458   C     0.75857   0.51541   0.47392   0.00000  Uiso   1.00
C459   C     0.75897   0.51504   0.02028   0.00000  Uiso   1.00
C460   C     0.90809   0.51541   0.02608   0.00000  Uiso   1.00
C461   C     0.92665   0.48308   0.37156   0.00000  Uiso   1.00
C462   C     0.97246   0.49206   0.36952   0.00000  Uiso   1.00
C463   C     0.74002   0.48308   0.12844   0.00000  Uiso   1.00
C464   C     0.69420   0.49207   0.13048   0.00000  Uiso   1.00
C465   C     0.71865   0.57604   0.45247   0.00000  Uiso   1.00
C466   C     0.68273   0.59127   0.42234   0.00000  Uiso   1.00
C467   C     0.94801   0.57604   0.04754   0.00000  Uiso   1.00
C468   C     0.98394   0.59127   0.07766   0.00000  Uiso   1.00
C469   C     0.90769   0.51504   0.47972   0.00000  Uiso   1.00
C470   C     0.68795   0.45818   0.25027   0.00000  Uiso   1.00
C471   C     0.97871   0.54188   0.24971   0.00000  Uiso   1.00
C472   C     0.97871   0.45818   0.24973   0.00000  Uiso   1.00
C473   C     0.68796   0.54188   0.25030   0.00000  Uiso   1.00
C474   C     0.95720   0.50003   0.24957   0.00000  Uiso   1.00
Cu475  Cu    0.83333   0.54689   0.25000   0.00000  Uiso   1.00
Cu476  Cu    0.83333   0.45311   0.25000   0.00000  Uiso   1.00
H477   H     0.73003   0.51949   0.03646   0.00000  Uiso   1.00
H478   H     0.98755   0.46227   0.35361   0.00000  Uiso   1.00
H479   H     0.97811   0.52347   0.34956   0.00000  Uiso   1.00
H480   H     0.75152   0.47659   0.16271   0.00000  Uiso   1.00
H481   H     0.74439   0.45193   0.10730   0.00000  Uiso   1.00
H482   H     0.68072   0.49640   0.09642   0.00000  Uiso   1.00
H483   H     0.67912   0.46227   0.14639   0.00000  Uiso   1.00
H484   H     0.68856   0.52347   0.15044   0.00000  Uiso   1.00
H485   H     0.74691   0.59332   0.44062   0.00000  Uiso   1.00
H486   H     0.71267   0.58790   0.48683   0.00000  Uiso   1.00
H487   H     0.98707   0.57545   0.43334   0.00000  Uiso   1.00
H488   H     0.93664   0.51949   0.46354   0.00000  Uiso   1.00
H489   H     0.67956   0.62934   0.42374   0.00000  Uiso   1.00
H490   H     0.68823   0.58104   0.38751   0.00000  Uiso   1.00
H491   H     0.91975   0.59331   0.05940   0.00000  Uiso   1.00
H492   H     0.95398   0.58791   0.01318   0.00000  Uiso   1.00
H493   H     0.67960   0.57546   0.06665   0.00000  Uiso   1.00
H494   H     0.98710   0.62935   0.07627   0.00000  Uiso   1.00
H495   H     0.97844   0.58104   0.11249   0.00000  Uiso   1.00
H496   H     0.70389   0.42541   0.25049   0.00000  Uiso   1.00
H497   H     0.96277   0.57464   0.24946   0.00000  Uiso   1.00
H498   H     0.96277   0.42541   0.24951   0.00000  Uiso   1.00
H499   H     0.70390   0.57464   0.25054   0.00000  Uiso   1.00
H500   H     0.91515   0.47659   0.33729   0.00000  Uiso   1.00
H501   H     0.92227   0.45193   0.39270   0.00000  Uiso   1.00
H502   H     0.98594   0.49639   0.40359   0.00000  Uiso   1.00
N503   N     0.83333   0.61736   0.25000   0.00000  Uiso   1.00
N504   N     0.83333   0.38264   0.25000   0.00000  Uiso   1.00
O505   O     0.77321   0.53958   0.25000   0.00000  Uiso   1.00
O506   O     0.75998   0.52257   0.11262   0.00000  Uiso   1.00
O507   O     0.72251   0.52744   0.45117   0.00000  Uiso   1.00
O508   O     0.94416   0.52744   0.04883   0.00000  Uiso   1.00
O509   O     0.89345   0.46042   0.25001   0.00000  Uiso   1.00
O510   O     0.89345   0.53958   0.25001   0.00000  Uiso   1.00
O511   O     0.77321   0.46042   0.25000   0.00000  Uiso   1.00
O512   O     0.83332   0.53960   0.18513   0.00000  Uiso   1.00
O513   O     0.83334   0.46040   0.31487   0.00000  Uiso   1.00
O514   O     0.83334   0.53960   0.31487   0.00000  Uiso   1.00
O515   O     0.83332   0.46040   0.18513   0.00000  Uiso   1.00
O516   O     0.90669   0.52257   0.38738   0.00000  Uiso   1.00
Br517  Br    0.08050   0.82007   0.36955   0.00000  Uiso   1.00
Br518  Br    0.25284   0.82007   0.13045   0.00000  Uiso   1.00
Br519  Br    0.10248   0.72103   0.18219   0.00000  Uiso   1.00
Br520  Br    0.23046   0.94372   0.31835   0.00000  Uiso   1.00
Br521  Br    0.23086   0.72103   0.31781   0.00000  Uiso   1.00
Br522  Br    0.10287   0.94372   0.18165   0.00000  Uiso   1.00
C523   C     0.08751   0.83335   0.25037   0.00000  Uiso   1.00
C524   C     0.04280   0.83336   0.25043   0.00000  Uiso   1.00
C525   C     0.14050   0.69101   0.22224   0.00000  Uiso   1.00
C526   C     0.19281   0.97522   0.27788   0.00000  Uiso   1.00
C527   C     0.19283   0.69101   0.27776   0.00000  Uiso   1.00
C528   C     0.14053   0.97522   0.22212   0.00000  Uiso   1.00
C529   C     0.16573   0.83358   0.16460   0.00000  Uiso   1.00
C530   C     0.16760   0.83358   0.33540   0.00000  Uiso   1.00
C531   C     0.20442   0.84318   0.40826   0.00000  Uiso   1.00
C532   C     0.12892   0.84318   0.09174   0.00000  Uiso   1.00
C533   C     0.16746   0.83502   0.38378   0.00000  Uiso   1.00
C534   C     0.24582   0.83335   0.24963   0.00000  Uiso   1.00
C535   C     0.16588   0.83502   0.11622   0.00000  Uiso   1.00
C536   C     0.12965   0.83388   0.40505   0.00000  Uiso   1.00
C537   C     0.20369   0.83388   0.09495   0.00000  Uiso   1.00
C538   C     0.12881   0.84076   0.45151   0.00000  Uiso   1.00
C539   C     0.20452   0.84076   0.04849   0.00000  Uiso   1.00
C540   C     0.16657   0.84126   0.47654   0.00000  Uiso   1.00
C541   C     0.16676   0.84126   0.02346   0.00000  Uiso   1.00
C542   C     0.20419   0.84352   0.45474   0.00000  Uiso   1.00
C543   C     0.12915   0.84352   0.04526   0.00000  Uiso   1.00
C544   C     0.09191   0.84874   0.47392   0.00000  Uiso   1.00
C545   C     0.09231   0.84837   0.02028   0.00000  Uiso   1.00
C546   C     0.24143   0.84874   0.02608   0.00000  Uiso   1.00
C547   C     0.25998   0.81642   0.37156   0.00000  Uiso   1.00
C548   C     0.30580   0.82540   0.36952   0.00000  Uiso   1.00
C549   C     0.07335   0.81642   0.12844   0.00000  Uiso   1.00
C550   C     0.02754   0.82540   0.13048   0.00000  Uiso   1.00
C551   C     0.05198   0.90937   0.45247   0.00000  Uiso   1.00
C552   C     0.01606   0.92460   0.42234   0.00000  Uiso   1.00
C553   C     0.28134   0.90937   0.04754   0.00000  Uiso   1.00
C554   C     0.31727   0.92460   0.07766   0.00000  Uiso   1.00
C555   C     0.24103   0.84837   0.47972   0.00000  Uiso   1.00
C556   C     0.02129   0.79151   0.25027   0.00000  Uiso   1.00
C557   C     0.31205   0.87521   0.24971   0.00000  Uiso   1.00
C558   C     0.31205   0.79151   0.24973   0.00000  Uiso   1.00
C559   C     0.02129   0.87521   0.25030   0.00000  Uiso   1.00
C560   C     0.29053   0.83336   0.24957   0.00000  Uiso   1.00
Cu561  Cu    0.16667   0.88022   0.25000   0.00000  Uiso   1.00
Cu562  Cu    0.16667   0.78645   0.25000   0.00000  Uiso   1.00
H563   H     0.06336   0.85282   0.03646   0.00000  Uiso   1.00
H564   H     0.32088   0.79560   0.35361   0.00000  Uiso   1.00
H565   H     0.31144   0.85680   0.34956   0.00000  Uiso   1.00
H566   H     0.08485   0.80992   0.16271   0.00000  Uiso   1.00
H567   H     0.07773   0.78526   0.10730   0.00000  Uiso   1.00
H568   H     0.01406   0.82973   0.09642   0.00000  Uiso   1.00
H569   H     0.01245   0.79560   0.14639   0.00000  Uiso   1.00
H570   H     0.02189   0.85680   0.15044   0.00000  Uiso   1.00
H571   H     0.08024   0.92665   0.44062   0.00000  Uiso   1.00
H572   H     0.04601   0.92123   0.48683   0.00000  Uiso   1.00
H573   H     0.32040   0.90879   0.43334   0.00000  Uiso   1.00
H574   H     0.26997   0.85282   0.46354   0.00000  Uiso   1.00
H575   H     0.01290   0.96268   0.42374   0.00000  Uiso   1.00
H576   H     0.02156   0.91438   0.38751   0.00000  Uiso   1.00
H577   H     0.25308   0.92664   0.05940   0.00000  Uiso   1.00
H578   H     0.28731   0.92125   0.01318   0.00000  Uiso   1.00
H579   H     0.01293   0.90879   0.06665   0.00000  Uiso   1.00
H580   H     0.32043   0.96268   0.07627   0.00000  Uiso   1.00
H581   H     0.31178   0.91437   0.11249   0.00000  Uiso   1.00
H582   H     0.03723   0.75875   0.25049   0.00000  Uiso   1.00
H583   H     0.29610   0.90798   0.24946   0.00000  Uiso   1.00
H584   H     0.29611   0.75875   0.24951   0.00000  Uiso   1.00
H585   H     0.03723   0.90798   0.25054   0.00000  Uiso   1.00
H586   H     0.24848   0.80992   0.33729   0.00000  Uiso   1.00
H587   H     0.25561   0.78526   0.39270   0.00000  Uiso   1.00
H588   H     0.31928   0.82973   0.40359   0.00000  Uiso   1.00
N589   N     0.16667   0.95069   0.25000   0.00000  Uiso   1.00
N590   N     0.16667   0.71598   0.25000   0.00000  Uiso   1.00
O591   O     0.10655   0.87291   0.25000   0.00000  Uiso   1.00
O592   O     0.09331   0.85590   0.11262   0.00000  Uiso   1.00
O593   O     0.05584   0.86078   0.45117   0.00000  Uiso   1.00
O594   O     0.27749   0.86078   0.04883   0.00000  Uiso   1.00
O595   O     0.22679   0.79375   0.25001   0.00000  Uiso   1.00
O596   O     0.22679   0.87291   0.25001   0.00000  Uiso   1.00
O597   O     0.10655   0.79375   0.25000   0.00000  Uiso   1.00
O598   O     0.16666   0.87293   0.18513   0.00000  Uiso   1.00
O599   O     0.16668   0.79373   0.31487   0.00000  Uiso   1.00
O600   O     0.16668   0.87293   0.31487   0.00000  Uiso   1.00
O601   O     0.16666   0.79373   0.18513   0.00000  Uiso   1.00
O602   O     0.24002   0.85590   0.38738   0.00000  Uiso   1.00
Br603  Br    0.41383   0.82007   0.36955   0.00000  Uiso   1.00
Br604  Br    0.58617   0.82007   0.13045   0.00000  Uiso   1.00
Br605  Br    0.43581   0.72103   0.18219   0.00000  Uiso   1.00
Br606  Br    0.56379   0.94372   0.31835   0.00000  Uiso   1.00
Br607  Br    0.56419   0.72103   0.31781   0.00000  Uiso   1.00
Br608  Br    0.43621   0.94372   0.18165   0.00000  Uiso   1.00
C609   C     0.42084   0.83335   0.25037   0.00000  Uiso   1.00
C610   C     0.37614   0.83336   0.25043   0.00000  Uiso   1.00
C611   C     0.47383   0.69101   0.22224   0.00000  Uiso   1.00
C612   C     0.52614   0.97522   0.27788   0.00000  Uiso   1.00
C613   C     0.52617   0.69101   0.27776   0.00000  Uiso   1.00
C614   C     0.47386   0.97522   0.22212   0.00000  Uiso   1.00
C615   C     0.49907   0.83358   0.16460   0.00000  Uiso   1.00
C616   C     0.50093   0.83358   0.33540   0.00000  Uiso   1.00
C617   C     0.53775   0.84318   0.40826   0.00000  Uiso   1.00
C618   C     0.46225   0.84318   0.09174   0.00000  Uiso   1.00
C619   C     0.50079   0.83502   0.38378   0.00000  Uiso   1.00
C620   C     0.57916   0.83335   0.24963   0.00000  Uiso   1.00
C621   C     0.49921   0.83502   0.11622   0.00000  Uiso   1.00
C622   C     0.46298   0.83388   0.40505   0.00000  Uiso   1.00
C623   C     0.53702   0.83388   0.09495   0.00000  Uiso   1.00
C624   C     0.46214   0.84076   0.45151   0.00000  Uiso   1.00
C625   C     0.53786   0.84076   0.04849   0.00000  Uiso   1.00
C626   C     0.49991   0.84126   0.47654   0.00000  Uiso   1.00
C627   C     0.50009   0.84126   0.02346   0.00000  Uiso   1.00
C628   C     0.53752   0.84352   0.45474   0.00000  Uiso   1.00
C629   C     0.46248   0.84352   0.04526   0.00000  Uiso   1.00
C630   C     0.42524   0.84874   0.47392   0.00000  Uiso   1.00
C631   C     0.42564   0.84837   0.02028   0.00000  Uiso   1.00
C632   C     0.57476   0.84874   0.02608   0.00000  Uiso   1.00
C633   C     0.59331   0.81642   0.37156   0.00000  Uiso   1.00
C634   C     0.63913   0.82540   0.36952   0.00000  Uiso   1.00
C635   C     0.40669   0.81642   0.12844   0.00000  Uiso   1.00
C636   C     0.36087   0.82540   0.13048   0.00000  Uiso   1.00
C637   C     0.38532   0.90937   0.45247   0.00000  Uiso   1.00
C638   C     0.34940   0.92460   0.42234   0.00000  Uiso   1.00
C639   C     0.61467   0.90937   0.04754   0.00000  Uiso   1.00
C640   C     0.65060   0.92460   0.07766   0.00000  Uiso   1.00
C641   C     0.57436   0.84837   0.47972   0.00000  Uiso   1.00
C642   C     0.35462   0.79151   0.25027   0.00000  Uiso   1.00
C643   C     0.64538   0.87521   0.24971   0.00000  Uiso   1.00
C644   C     0.64538   0.79151   0.24973   0.00000  Uiso   1.00
C645   C     0.35462   0.87521   0.25030   0.00000  Uiso   1.00
C646   C     0.62386   0.83336   0.24957   0.00000  Uiso   1.00
Cu647  Cu    0.50000   0.88022   0.25000   0.00000  Uiso   1.00
Cu648  Cu    0.50000   0.78645   0.25000   0.00000  Uiso   1.00
H649   H     0.39669   0.85282   0.03646   0.00000  Uiso   1.00
H650   H     0.65422   0.79560   0.35361   0.00000  Uiso   1.00
H651   H     0.64478   0.85680   0.34956   0.00000  Uiso   1.00
H652   H     0.41819   0.80992   0.16271   0.00000  Uiso   1.00
H653   H     0.41106   0.78526   0.10730   0.00000  Uiso   1.00
H654   H     0.34739   0.82973   0.09642   0.00000  Uiso   1.00
H655   H     0.34578   0.79560   0.14639   0.00000  Uiso   1.00
H656   H     0.35522   0.85680   0.15044   0.00000  Uiso   1.00
H657   H     0.41358   0.92665   0.44062   0.00000  Uiso   1.00
H658   H     0.37934   0.92123   0.48683   0.00000  Uiso   1.00
H659   H     0.65373   0.90879   0.43334   0.00000  Uiso   1.00
H660   H     0.60331   0.85282   0.46354   0.00000  Uiso   1.00
H661   H     0.34623   0.96268   0.42374   0.00000  Uiso   1.00
H662   H     0.35490   0.91438   0.38751   0.00000  Uiso   1.00
H663   H     0.58642   0.92664   0.05940   0.00000  Uiso   1.00
H664   H     0.62064   0.92125   0.01318   0.00000  Uiso   1.00
H665   H     0.34626   0.90879   0.06665   0.00000  Uiso   1.00
H666   H     0.65377   0.96268   0.07627   0.00000  Uiso   1.00
H667   H     0.64511   0.91437   0.11249   0.00000  Uiso   1.00
H668   H     0.37056   0.75875   0.25049   0.00000  Uiso   1.00
H669   H     0.62944   0.90798   0.24946   0.00000  Uiso   1.00
H670   H     0.62944   0.75875   0.24951   0.00000  Uiso   1.00
H671   H     0.37056   0.90798   0.25054   0.00000  Uiso   1.00
H672   H     0.58181   0.80992   0.33729   0.00000  Uiso   1.00
H673   H     0.58894   0.78526   0.39270   0.00000  Uiso   1.00
H674   H     0.65261   0.82973   0.40359   0.00000  Uiso   1.00
N675   N     0.50000   0.95069   0.25000   0.00000  Uiso   1.00
N676   N     0.50000   0.71598   0.25000   0.00000  Uiso   1.00
O677   O     0.43988   0.87291   0.25000   0.00000  Uiso   1.00
O678   O     0.42665   0.85590   0.11262   0.00000  Uiso   1.00
O679   O     0.38917   0.86078   0.45117   0.00000  Uiso   1.00
O680   O     0.61083   0.86078   0.04883   0.00000  Uiso   1.00
O681   O     0.56012   0.79375   0.25001   0.00000  Uiso   1.00
O682   O     0.56012   0.87291   0.25001   0.00000  Uiso   1.00
O683   O     0.43988   0.79375   0.25000   0.00000  Uiso   1.00
O684   O     0.49999   0.87293   0.18513   0.00000  Uiso   1.00
O685   O     0.50001   0.79373   0.31487   0.00000  Uiso   1.00
O686   O     0.50001   0.87293   0.31487   0.00000  Uiso   1.00
O687   O     0.49999   0.79373   0.18513   0.00000  Uiso   1.00
O688   O     0.57335   0.85590   0.38738   0.00000  Uiso   1.00
Br689  Br    0.74716   0.82007   0.36955   0.00000  Uiso   1.00
Br690  Br    0.91950   0.82007   0.13045   0.00000  Uiso   1.00
Br691  Br    0.76914   0.72103   0.18219   0.00000  Uiso   1.00
Br692  Br    0.89713   0.94372   0.31835   0.00000  Uiso   1.00
Br693  Br    0.89752   0.72103   0.31781   0.00000  Uiso   1.00
Br694  Br    0.76954   0.94372   0.18165   0.00000  Uiso   1.00
C695   C     0.75418   0.83335   0.25037   0.00000  Uiso   1.00
C696   C     0.70947   0.83336   0.25043   0.00000  Uiso   1.00
C697   C     0.80717   0.69101   0.22224   0.00000  Uiso   1.00
C698   C     0.85947   0.97522   0.27788   0.00000  Uiso   1.00
C699   C     0.85950   0.69101   0.27776   0.00000  Uiso   1.00
C700   C     0.80719   0.97522   0.22212   0.00000  Uiso   1.00
C701   C     0.83240   0.83358   0.16460   0.00000  Uiso   1.00
C702   C     0.83427   0.83358   0.33540   0.00000  Uiso   1.00
C703   C     0.87108   0.84318   0.40826   0.00000  Uiso   1.00
C704   C     0.79558   0.84318   0.09174   0.00000  Uiso   1.00
C705   C     0.83412   0.83502   0.38378   0.00000  Uiso   1.00
C706   C     0.91249   0.83335   0.24963   0.00000  Uiso   1.00
C707   C     0.83254   0.83502   0.11622   0.00000  Uiso   1.00
C708   C     0.79631   0.83388   0.40505   0.00000  Uiso   1.00
C709   C     0.87035   0.83388   0.09495   0.00000  Uiso   1.00
C710   C     0.79548   0.84076   0.45151   0.00000  Uiso   1.00
C711   C     0.87119   0.84076   0.04849   0.00000  Uiso   1.00
C712   C     0.83324   0.84126   0.47654   0.00000  Uiso   1.00
C713   C     0.83343   0.84126   0.02346   0.00000  Uiso   1.00
C714   C     0.87085   0.84352   0.45474   0.00000  Uiso   1.00
C715   C     0.79581   0.84352   0.04526   0.00000  Uiso   1.00
C716   C     0.75857   0.84874   0.47392   0.00000  Uiso   1.00
C717   C     0.75897   0.84837   0.02028   0.00000  Uiso   1.00
C718   C     0.90809   0.84874   0.02608   0.00000  Uiso   1.00
C719   C     0.92665   0.81642   0.37156   0.00000  Uiso   1.00
C720   C     0.97246   0.82540   0.36952   0.00000  Uiso   1.00
C721   C     0.74002   0.81642   0.12844   0.00000  Uiso   1.00
C722   C     0.69420   0.82540   0.13048   0.00000  Uiso   1.00
C723   C     0.71865   0.90937   0.45247   0.00000  Uiso   1.00
C724   C     0.68273   0.92460   0.42234   0.00000  Uiso   1.00
C725   C     0.94801   0.90937   0.04754   0.00000  Uiso   1.00
C726   C     0.98394   0.92460   0.07766   0.00000  Uiso   1.00
C727   C     0.90769   0.84837   0.47972   0.00000  Uiso   1.00
C728   C     0.68795   0.79151   0.25027   0.00000  Uiso   1.00
C729   C     0.97871   0.87521   0.24971   0.00000  Uiso   1.00
C730   C     0.97871   0.79151   0.24973   0.00000  Uiso   1.00
C731   C     0.68796   0.87521   0.25030   0.00000  Uiso   1.00
C732   C     0.95720   0.83336   0.24957   0.00000  Uiso   1.00
Cu733  Cu    0.83333   0.88022   0.25000   0.00000  Uiso   1.00
Cu734  Cu    0.83333   0.78645   0.25000   0.00000  Uiso   1.00
H735   H     0.73003   0.85282   0.03646   0.00000  Uiso   1.00
H736   H     0.98755   0.79560   0.35361   0.00000  Uiso   1.00
H737   H     0.97811   0.85680   0.34956   0.00000  Uiso   1.00
H738   H     0.75152   0.80992   0.16271   0.00000  Uiso   1.00
H739   H     0.74439   0.78526   0.10730   0.00000  Uiso   1.00
H740   H     0.68072   0.82973   0.09642   0.00000  Uiso   1.00
H741   H     0.67912   0.79560   0.14639   0.00000  Uiso   1.00
H742   H     0.68856   0.85680   0.15044   0.00000  Uiso   1.00
H743   H     0.74691   0.92665   0.44062   0.00000  Uiso   1.00
H744   H     0.71267   0.92123   0.48683   0.00000  Uiso   1.00
H745   H     0.98707   0.90879   0.43334   0.00000  Uiso   1.00
H746   H     0.93664   0.85282   0.46354   0.00000  Uiso   1.00
H747   H     0.67956   0.96268   0.42374   0.00000  Uiso   1.00
H748   H     0.68823   0.91438   0.38751   0.00000  Uiso   1.00
H749   H     0.91975   0.92664   0.05940   0.00000  Uiso   1.00
H750   H     0.95398   0.92125   0.01318   0.00000  Uiso   1.00
H751   H     0.67960   0.90879   0.06665   0.00000  Uiso   1.00
H752   H     0.98710   0.96268   0.07627   0.00000  Uiso   1.00
H753   H     0.97844   0.91437   0.11249   0.00000  Uiso   1.00
H754   H     0.70389   0.75875   0.25049   0.00000  Uiso   1.00
H755   H     0.96277   0.90798   0.24946   0.00000  Uiso   1.00
H756   H     0.96277   0.75875   0.24951   0.00000  Uiso   1.00
H757   H     0.70390   0.90798   0.25054   0.00000  Uiso   1.00
H758   H     0.91515   0.80992   0.33729   0.00000  Uiso   1.00
H759   H     0.92227   0.78526   0.39270   0.00000  Uiso   1.00
H760   H     0.98594   0.82973   0.40359   0.00000  Uiso   1.00
N761   N     0.83333   0.95069   0.25000   0.00000  Uiso   1.00
N762   N     0.83333   0.71598   0.25000   0.00000  Uiso   1.00
O763   O     0.77321   0.87291   0.25000   0.00000  Uiso   1.00
O764   O     0.75998   0.85590   0.11262   0.00000  Uiso   1.00
O765   O     0.72251   0.86078   0.45117   0.00000  Uiso   1.00
O766   O     0.94416   0.86078   0.04883   0.00000  Uiso   1.00
O767   O     0.89345   0.79375   0.25001   0.00000  Uiso   1.00
O768   O     0.89345   0.87291   0.25001   0.00000  Uiso   1.00
O769   O     0.77321   0.79375   0.25000   0.00000  Uiso   1.00
O770   O     0.83332   0.87293   0.18513   0.00000  Uiso   1.00
O771   O     0.83334   0.79373   0.31487   0.00000  Uiso   1.00
O772   O     0.83334   0.87293   0.31487   0.00000  Uiso   1.00
O773   O     0.83332   0.79373   0.18513   0.00000  Uiso   1.00
O774   O     0.90669   0.85590   0.38738   0.00000  Uiso   1.00
Br775  Br    0.08050   0.15341   0.86955   0.00000  Uiso   1.00
Br776  Br    0.25284   0.15341   0.63045   0.00000  Uiso   1.00
Br777  Br    0.10248   0.05436   0.68219   0.00000  Uiso   1.00
Br778  Br    0.23046   0.27705   0.81835   0.00000  Uiso   1.00
Br779  Br    0.23086   0.05436   0.81781   0.00000  Uiso   1.00
Br780  Br    0.10287   0.27705   0.68165   0.00000  Uiso   1.00
C781   C     0.08751   0.16668   0.75037   0.00000  Uiso   1.00
C782   C     0.04280   0.16669   0.75043   0.00000  Uiso   1.00
C783   C     0.14050   0.02435   0.72224   0.00000  Uiso   1.00
C784   C     0.19281   0.30855   0.77788   0.00000  Uiso   1.00
C785   C     0.19283   0.02435   0.77776   0.00000  Uiso   1.00
C786   C     0.14053   0.30855   0.72212   0.00000  Uiso   1.00
C787   C     0.16573   0.16691   0.66460   0.00000  Uiso   1.00
C788   C     0.16760   0.16691   0.83540   0.00000  Uiso   1.00
C789   C     0.20442   0.17652   0.90826   0.00000  Uiso   1.00
C790   C     0.12892   0.17652   0.59174   0.00000  Uiso   1.00
C791   C     0.16746   0.16835   0.88378   0.00000  Uiso   1.00
C792   C     0.24582   0.16668   0.74963   0.00000  Uiso   1.00
C793   C     0.16588   0.16835   0.61622   0.00000  Uiso   1.00
C794   C     0.12965   0.16721   0.90505   0.00000  Uiso   1.00
C795   C     0.20369   0.16721   0.59495   0.00000  Uiso   1.00
C796   C     0.12881   0.17409   0.95151   0.00000  Uiso   1.00
C797   C     0.20452   0.17409   0.54849   0.00000  Uiso   1.00
C798   C     0.16657   0.17459   0.97654   0.00000  Uiso   1.00
C799   C     0.16676   0.17459   0.52346   0.00000  Uiso   1.00
C800   C     0.20419   0.17685   0.95474   0.00000  Uiso   1.00
C801   C     0.12915   0.17685   0.54526   0.00000  Uiso   1.00
C802   C     0.09191   0.18207   0.97392   0.00000  Uiso   1.00
C803   C     0.09231   0.18170   0.52028   0.00000  Uiso   1.00
C804   C     0.24143   0.18207   0.52608   0.00000  Uiso   1.00
C805   C     0.25998   0.14975   0.87156   0.00000  Uiso   1.00
C806   C     0.30580   0.15873   0.86952   0.00000  Uiso   1.00
C807   C     0.07335   0.14975   0.62844   0.00000  Uiso   1.00
C808   C     0.02754   0.15873   0.63048   0.00000  Uiso   1.00
C809   C     0.05198   0.24270   0.95247   0.00000  Uiso   1.00
C810   C     0.01606   0.25793   0.92234   0.00000  Uiso   1.00
C811   C     0.28134   0.24271   0.54754   0.00000  Uiso   1.00
C812   C     0.31727   0.25793   0.57766   0.00000  Uiso   1.00
C813   C     0.24103   0.18170   0.97972   0.00000  Uiso   1.00
C814   C     0.02129   0.12484   0.75027   0.00000  Uiso   1.00
C815   C     0.31205   0.20854   0.74971   0.00000  Uiso   1.00
C816   C     0.31205   0.12484   0.74973   0.00000  Uiso   1.00
C817   C     0.02129   0.20854   0.75030   0.00000  Uiso   1.00
C818   C     0.29053   0.16669   0.74957   0.00000  Uiso   1.00
Cu819  Cu    0.16667   0.21355   0.75000   0.00000  Uiso   1.00
Cu820  Cu    0.16667   0.11978   0.75000   0.00000  Uiso   1.00
H821   H     0.06336   0.18615   0.53646   0.00000  Uiso   1.00
H822   H     0.32088   0.12894   0.85361   0.00000  Uiso   1.00
H823   H     0.31144   0.19014   0.84956   0.00000  Uiso   1.00
H824   H     0.08485   0.14325   0.66271   0.00000  Uiso   1.00
H825   H     0.07773   0.11860   0.60730   0.00000  Uiso   1.00
H826   H     0.01406   0.16306   0.59642   0.00000  Uiso   1.00
H827   H     0.01245   0.12894   0.64639   0.00000  Uiso   1.00
H828   H     0.02189   0.19014   0.65044   0.00000  Uiso   1.00
H829   H     0.08024   0.25998   0.94062   0.00000  Uiso   1.00
H830   H     0.04601   0.25457   0.98683   0.00000  Uiso   1.00
H831   H     0.32040   0.24212   0.93334   0.00000  Uiso   1.00
H832   H     0.26997   0.18615   0.96354   0.00000  Uiso   1.00
H833   H     0.01290   0.29601   0.92374   0.00000  Uiso   1.00
H834   H     0.02156   0.24771   0.88751   0.00000  Uiso   1.00
H835   H     0.25308   0.25998   0.55940   0.00000  Uiso   1.00
H836   H     0.28731   0.25458   0.51318   0.00000  Uiso   1.00
H837   H     0.01293   0.24212   0.56665   0.00000  Uiso   1.00
H838   H     0.32043   0.29601   0.57627   0.00000  Uiso   1.00
H839   H     0.31178   0.24770   0.61249   0.00000  Uiso   1.00
H840   H     0.03723   0.09208   0.75049   0.00000  Uiso   1.00
H841   H     0.29610   0.24131   0.74946   0.00000  Uiso   1.00
H842   H     0.29611   0.09208   0.74951   0.00000  Uiso   1.00
H843   H     0.03723   0.24131   0.75054   0.00000  Uiso   1.00
H844   H     0.24848   0.14326   0.83729   0.00000  Uiso   1.00
H845   H     0.25561   0.11860   0.89270   0.00000  Uiso   1.00
H846   H     0.31928   0.16306   0.90359   0.00000  Uiso   1.00
N847   N     0.16667   0.28402   0.75000   0.00000  Uiso   1.00
N848   N     0.16667   0.04931   0.75000   0.00000  Uiso   1.00
O849   O     0.10655   0.20625   0.75000   0.00000  Uiso   1.00
O850   O     0.09331   0.18923   0.61262   0.00000  Uiso   1.00
O851   O     0.05584   0.19411   0.95117   0.00000  Uiso   1.00
O852   O     0.27749   0.19411   0.54883   0.00000  Uiso   1.00
O853   O     0.22679   0.12709   0.75001   0.00000  Uiso   1.00
O854   O     0.22679   0.20625   0.75001   0.00000  Uiso   1.00
O855   O     0.10655   0.12709   0.75000   0.00000  Uiso   1.00
O856   O     0.16666   0.20627   0.68513   0.00000  Uiso   1.00
O857   O     0.16668   0.12707   0.81487   0.00000  Uiso   1.00
O858   O     0.16668   0.20627   0.81487   0.00000  Uiso   1.00
O859   O     0.16666   0.12707   0.68513   0.00000  Uiso   1.00
O860   O     0.24002   0.18923   0.88738   0.00000  Uiso   1.00
Br861  Br    0.41383   0.15341   0.86955   0.00000  Uiso   1.00
Br862  Br    0.58617   0.15341   0.63045   0.00000  Uiso   1.00
Br863  Br    0.43581   0.05436   0.68219   0.00000  Uiso   1.00
Br864  Br    0.56379   0.27705   0.81835   0.00000  Uiso   1.00
Br865  Br    0.56419   0.05436   0.81781   0.00000  Uiso   1.00
Br866  Br    0.43621   0.27705   0.68165   0.00000  Uiso   1.00
C867   C     0.42084   0.16668   0.75037   0.00000  Uiso   1.00
C868   C     0.37614   0.16669   0.75043   0.00000  Uiso   1.00
C869   C     0.47383   0.02435   0.72224   0.00000  Uiso   1.00
C870   C     0.52614   0.30855   0.77788   0.00000  Uiso   1.00
C871   C     0.52617   0.02435   0.77776   0.00000  Uiso   1.00
C872   C     0.47386   0.30855   0.72212   0.00000  Uiso   1.00
C873   C     0.49907   0.16691   0.66460   0.00000  Uiso   1.00
C874   C     0.50093   0.16691   0.83540   0.00000  Uiso   1.00
C875   C     0.53775   0.17652   0.90826   0.00000  Uiso   1.00
C876   C     0.46225   0.17652   0.59174   0.00000  Uiso   1.00
C877   C     0.50079   0.16835   0.88378   0.00000  Uiso   1.00
C878   C     0.57916   0.16668   0.74963   0.00000  Uiso   1.00
C879   C     0.49921   0.16835   0.61622   0.00000  Uiso   1.00
C880   C     0.46298   0.16721   0.90505   0.00000  Uiso   1.00
C881   C     0.53702   0.16721   0.59495   0.00000  Uiso   1.00
C882   C     0.46214   0.17409   0.95151   0.00000  Uiso   1.00
C883   C     0.53786   0.17409   0.54849   0.00000  Uiso   1.00
C884   C     0.49991   0.17459   0.97654   0.00000  Uiso   1.00
C885   C     0.50009   0.17459   0.52346   0.00000  Uiso   1.00
C886   C     0.53752   0.17685   0.95474   0.00000  Uiso   1.00
C887   C     0.46248   0.17685   0.54526   0.00000  Uiso   1.00
C888   C     0.42524   0.18207   0.97392   0.00000  Uiso   1.00
C889   C     0.42564   0.18170   0.52028   0.00000  Uiso   1.00
C890   C     0.57476   0.18207   0.52608   0.00000  Uiso   1.00
C891   C     0.59331   0.14975   0.87156   0.00000  Uiso   1.00
C892   C     0.63913   0.15873   0.86952   0.00000  Uiso   1.00
C893   C     0.40669   0.14975   0.62844   0.00000  Uiso   1.00
C894   C     0.36087   0.15873   0.63048   0.00000  Uiso   1.00
C895   C     0.38532   0.24270   0.95247   0.00000  Uiso   1.00
C896   C     0.34940   0.25793   0.92234   0.00000  Uiso   1.00
C897   C     0.61467   0.24271   0.54754   0.00000  Uiso   1.00
C898   C     0.65060   0.25793   0.57766   0.00000  Uiso   1.00
C899   C     0.57436   0.18170   0.97972   0.00000  Uiso   1.00
C900   C     0.35462   0.12484   0.75027   0.00000  Uiso   1.00
C901   C     0.64538   0.20854   0.74971   0.00000  Uiso   1.00
C902   C     0.64538   0.12484   0.74973   0.00000  Uiso   1.00
C903   C     0.35462   0.20854   0.75030   0.00000  Uiso   1.00
C904   C     0.62386   0.16669   0.74957   0.00000  Uiso   1.00
Cu905  Cu    0.50000   0.21355   0.75000   0.00000  Uiso   1.00
Cu906  Cu    0.50000   0.11978   0.75000   0.00000  Uiso   1.00
H907   H     0.39669   0.18615   0.53646   0.00000  Uiso   1.00
H908   H     0.65422   0.12894   0.85361   0.00000  Uiso   1.00
H909   H     0.64478   0.19014   0.84956   0.00000  Uiso   1.00
H910   H     0.41819   0.14325   0.66271   0.00000  Uiso   1.00
H911   H     0.41106   0.11860   0.60730   0.00000  Uiso   1.00
H912   H     0.34739   0.16306   0.59642   0.00000  Uiso   1.00
H913   H     0.34578   0.12894   0.64639   0.00000  Uiso   1.00
H914   H     0.35522   0.19014   0.65044   0.00000  Uiso   1.00
H915   H     0.41358   0.25998   0.94062   0.00000  Uiso   1.00
H916   H     0.37934   0.25457   0.98683   0.00000  Uiso   1.00
H917   H     0.65373   0.24212   0.93334   0.00000  Uiso   1.00
H918   H     0.60331   0.18615   0.96354   0.00000  Uiso   1.00
H919   H     0.34623   0.29601   0.92374   0.00000  Uiso   1.00
H920   H     0.35490   0.24771   0.88751   0.00000  Uiso   1.00
H921   H     0.58642   0.25998   0.55940   0.00000  Uiso   1.00
H922   H     0.62064   0.25458   0.51318   0.00000  Uiso   1.00
H923   H     0.34626   0.24212   0.56665   0.00000  Uiso   1.00
H924   H     0.65377   0.29601   0.57627   0.00000  Uiso   1.00
H925   H     0.64511   0.24770   0.61249   0.00000  Uiso   1.00
H926   H     0.37056   0.09208   0.75049   0.00000  Uiso   1.00
H927   H     0.62944   0.24131   0.74946   0.00000  Uiso   1.00
H928   H     0.62944   0.09208   0.74951   0.00000  Uiso   1.00
H929   H     0.37056   0.24131   0.75054   0.00000  Uiso   1.00
H930   H     0.58181   0.14326   0.83729   0.00000  Uiso   1.00
H931   H     0.58894   0.11860   0.89270   0.00000  Uiso   1.00
H932   H     0.65261   0.16306   0.90359   0.00000  Uiso   1.00
N933   N     0.50000   0.28402   0.75000   0.00000  Uiso   1.00
N934   N     0.50000   0.04931   0.75000   0.00000  Uiso   1.00
O935   O     0.43988   0.20625   0.75000   0.00000  Uiso   1.00
O936   O     0.42665   0.18923   0.61262   0.00000  Uiso   1.00
O937   O     0.38917   0.19411   0.95117   0.00000  Uiso   1.00
O938   O     0.61083   0.19411   0.54883   0.00000  Uiso   1.00
O939   O     0.56012   0.12709   0.75001   0.00000  Uiso   1.00
O940   O     0.56012   0.20625   0.75001   0.00000  Uiso   1.00
O941   O     0.43988   0.12709   0.75000   0.00000  Uiso   1.00
O942   O     0.49999   0.20627   0.68513   0.00000  Uiso   1.00
O943   O     0.50001   0.12707   0.81487   0.00000  Uiso   1.00
O944   O     0.50001   0.20627   0.81487   0.00000  Uiso   1.00
O945   O     0.49999   0.12707   0.68513   0.00000  Uiso   1.00
O946   O     0.57335   0.18923   0.88738   0.00000  Uiso   1.00
Br947  Br    0.74716   0.15341   0.86955   0.00000  Uiso   1.00
Br948  Br    0.91950   0.15341   0.63045   0.00000  Uiso   1.00
Br949  Br    0.76914   0.05436   0.68219   0.00000  Uiso   1.00
Br950  Br    0.89713   0.27705   0.81835   0.00000  Uiso   1.00
Br951  Br    0.89752   0.05436   0.81781   0.00000  Uiso   1.00
Br952  Br    0.76954   0.27705   0.68165   0.00000  Uiso   1.00
C953   C     0.75418   0.16668   0.75037   0.00000  Uiso   1.00
C954   C     0.70947   0.16669   0.75043   0.00000  Uiso   1.00
C955   C     0.80717   0.02435   0.72224   0.00000  Uiso   1.00
C956   C     0.85947   0.30855   0.77788   0.00000  Uiso   1.00
C957   C     0.85950   0.02435   0.77776   0.00000  Uiso   1.00
C958   C     0.80719   0.30855   0.72212   0.00000  Uiso   1.00
C959   C     0.83240   0.16691   0.66460   0.00000  Uiso   1.00
C960   C     0.83427   0.16691   0.83540   0.00000  Uiso   1.00
C961   C     0.87108   0.17652   0.90826   0.00000  Uiso   1.00
C962   C     0.79558   0.17652   0.59174   0.00000  Uiso   1.00
C963   C     0.83412   0.16835   0.88378   0.00000  Uiso   1.00
C964   C     0.91249   0.16668   0.74963   0.00000  Uiso   1.00
C965   C     0.83254   0.16835   0.61622   0.00000  Uiso   1.00
C966   C     0.79631   0.16721   0.90505   0.00000  Uiso   1.00
C967   C     0.87035   0.16721   0.59495   0.00000  Uiso   1.00
C968   C     0.79548   0.17409   0.95151   0.00000  Uiso   1.00
C969   C     0.87119   0.17409   0.54849   0.00000  Uiso   1.00
C970   C     0.83324   0.17459   0.97654   0.00000  Uiso   1.00
C971   C     0.83343   0.17459   0.52346   0.00000  Uiso   1.00
C972   C     0.87085   0.17685   0.95474   0.00000  Uiso   1.00
C973   C     0.79581   0.17685   0.54526   0.00000  Uiso   1.00
C974   C     0.75857   0.18207   0.97392   0.00000  Uiso   1.00
C975   C     0.75897   0.18170   0.52028   0.00000  Uiso   1.00
C976   C     0.90809   0.18207   0.52608   0.00000  Uiso   1.00
C977   C     0.92665   0.14975   0.87156   0.00000  Uiso   1.00
C978   C     0.97246   0.15873   0.86952   0.00000  Uiso   1.00
C979   C     0.74002   0.14975   0.62844   0.00000  Uiso   1.00
C980   C     0.69420   0.15873   0.63048   0.00000  Uiso   1.00
C981   C     0.71865   0.24270   0.95247   0.00000  Uiso   1.00
C982   C     0.68273   0.25793   0.92234   0.00000  Uiso   1.00
C983   C     0.94801   0.24271   0.54754   0.00000  Uiso   1.00
C984   C     0.98394   0.25793   0.57766   0.00000  Uiso   1.00
C985   C     0.90769   0.18170   0.97972   0.00000  Uiso   1.00
C986   C     0.68795   0.12484   0.75027   0.00000  Uiso   1.00
C987   C     0.97871   0.20854   0.74971   0.00000  Uiso   1.00
C988   C     0.97871   0.12484   0.74973   0.00000  Uiso   1.00
C989   C     0.68796   0.20854   0.75030   0.00000  Uiso   1.00
C990   C     0.95720   0.16669   0.74957   0.00000  Uiso   1.00
Cu991  Cu    0.83333   0.21355   0.75000   0.00000  Uiso   1.00
Cu992  Cu    0.83333   0.11978   0.75000   0.00000  Uiso   1.00
H993   H     0.73003   0.18615   0.53646   0.00000  Uiso   1.00
H994   H     0.98755   0.12894   0.85361   0.00000  Uiso   1.00
H995   H     0.97811   0.19014   0.84956   0.00000  Uiso   1.00
H996   H     0.75152   0.14325   0.66271   0.00000  Uiso   1.00
H997   H     0.74439   0.11860   0.60730   0.00000  Uiso   1.00
H998   H     0.68072   0.16306   0.59642   0.00000  Uiso   1.00
H999   H     0.67912   0.12894   0.64639   0.00000  Uiso   1.00
H1000  H     0.68856   0.19014   0.65044   0.00000  Uiso   1.00
H1001  H     0.74691   0.25998   0.94062   0.00000  Uiso   1.00
H1002  H     0.71267   0.25457   0.98683   0.00000  Uiso   1.00
H1003  H     0.98707   0.24212   0.93334   0.00000  Uiso   1.00
H1004  H     0.93664   0.18615   0.96354   0.00000  Uiso   1.00
H1005  H     0.67956   0.29601   0.92374   0.00000  Uiso   1.00
H1006  H     0.68823   0.24771   0.88751   0.00000  Uiso   1.00
H1007  H     0.91975   0.25998   0.55940   0.00000  Uiso   1.00
H1008  H     0.95398   0.25458   0.51318   0.00000  Uiso   1.00
H1009  H     0.67960   0.24212   0.56665   0.00000  Uiso   1.00
H1010  H     0.98710   0.29601   0.57627   0.00000  Uiso   1.00
H1011  H     0.97844   0.24770   0.61249   0.00000  Uiso   1.00
H1012  H     0.70389   0.09208   0.75049   0.00000  Uiso   1.00
H1013  H     0.96277   0.24131   0.74946   0.00000  Uiso   1.00
H1014  H     0.96277   0.09208   0.74951   0.00000  Uiso   1.00
H1015  H     0.70390   0.24131   0.75054   0.00000  Uiso   1.00
H1016  H     0.91515   0.14326   0.83729   0.00000  Uiso   1.00
H1017  H     0.92227   0.11860   0.89270   0.00000  Uiso   1.00
H1018  H     0.98594   0.16306   0.90359   0.00000  Uiso   1.00
N1019  N     0.83333   0.28402   0.75000   0.00000  Uiso   1.00
N1020  N     0.83333   0.04931   0.75000   0.00000  Uiso   1.00
O1021  O     0.77321   0.20625   0.75000   0.00000  Uiso   1.00
O1022  O     0.75998   0.18923   0.61262   0.00000  Uiso   1.00
O1023  O     0.72251   0.19411   0.95117   0.00000  Uiso   1.00
O1024  O     0.94416   0.19411   0.54883   0.00000  Uiso   1.00
O1025  O     0.89345   0.12709   0.75001   0.00000  Uiso   1.00
O1026  O     0.89345   0.20625   0.75001   0.00000  Uiso   1.00
O1027  O     0.77321   0.12709   0.75000   0.00000  Uiso   1.00
O1028  O     0.83332   0.20627   0.68513   0.00000  Uiso   1.00
O1029  O     0.83334   0.12707   0.81487   0.00000  Uiso   1.00
O1030  O     0.83334   0.20627   0.81487   0.00000  Uiso   1.00
O1031  O     0.83332   0.12707   0.68513   0.00000  Uiso   1.00
O1032  O     0.90669   0.18923   0.88738   0.00000  Uiso   1.00
Br1033 Br    0.08050   0.48674   0.86955   0.00000  Uiso   1.00
Br1034 Br    0.25284   0.48674   0.63045   0.00000  Uiso   1.00
Br1035 Br    0.10248   0.38769   0.68219   0.00000  Uiso   1.00
Br1036 Br    0.23046   0.61039   0.81835   0.00000  Uiso   1.00
Br1037 Br    0.23086   0.38769   0.81781   0.00000  Uiso   1.00
Br1038 Br    0.10287   0.61039   0.68165   0.00000  Uiso   1.00
C1039  C     0.08751   0.50001   0.75037   0.00000  Uiso   1.00
C1040  C     0.04280   0.50003   0.75043   0.00000  Uiso   1.00
C1041  C     0.14050   0.35768   0.72224   0.00000  Uiso   1.00
C1042  C     0.19281   0.64188   0.77788   0.00000  Uiso   1.00
C1043  C     0.19283   0.35768   0.77776   0.00000  Uiso   1.00
C1044  C     0.14053   0.64188   0.72212   0.00000  Uiso   1.00
C1045  C     0.16573   0.50024   0.66460   0.00000  Uiso   1.00
C1046  C     0.16760   0.50024   0.83540   0.00000  Uiso   1.00
C1047  C     0.20442   0.50985   0.90826   0.00000  Uiso   1.00
C1048  C     0.12892   0.50985   0.59174   0.00000  Uiso   1.00
C1049  C     0.16746   0.50169   0.88378   0.00000  Uiso   1.00
C1050  C     0.24582   0.50001   0.74963   0.00000  Uiso   1.00
C1051  C     0.16588   0.50169   0.61622   0.00000  Uiso   1.00
C1052  C     0.12965   0.50054   0.90505   0.00000  Uiso   1.00
C1053  C     0.20369   0.50054   0.59495   0.00000  Uiso   1.00
C1054  C     0.12881   0.50742   0.95151   0.00000  Uiso   1.00
C1055  C     0.20452   0.50742   0.54849   0.00000  Uiso   1.00
C1056  C     0.16657   0.50792   0.97654   0.00000  Uiso   1.00
C1057  C     0.16676   0.50792   0.52346   0.00000  Uiso   1.00
C1058  C     0.20419   0.51018   0.95474   0.00000  Uiso   1.00
C1059  C     0.12915   0.51018   0.54526   0.00000  Uiso   1.00
C1060  C     0.09191   0.51541   0.97392   0.00000  Uiso   1.00
C1061  C     0.09231   0.51504   0.52028   0.00000  Uiso   1.00
C1062  C     0.24143   0.51541   0.52608   0.00000  Uiso   1.00
C1063  C     0.25998   0.48308   0.87156   0.00000  Uiso   1.00
C1064  C     0.30580   0.49206   0.86952   0.00000  Uiso   1.00
C1065  C     0.07335   0.48308   0.62844   0.00000  Uiso   1.00
C1066  C     0.02754   0.49207   0.63048   0.00000  Uiso   1.00
C1067  C     0.05198   0.57604   0.95247   0.00000  Uiso   1.00
C1068  C     0.01606   0.59127   0.92234   0.00000  Uiso   1.00
C1069  C     0.28134   0.57604   0.54754   0.00000  Uiso   1.00
C1070  C     0.31727   0.59127   0.57766   0.00000  Uiso   1.00
C1071  C     0.24103   0.51504   0.97972   0.00000  Uiso   1.00
C1072  C     0.02129   0.45818   0.75027   0.00000  Uiso   1.00
C1073  C     0.31205   0.54188   0.74971   0.00000  Uiso   1.00
C1074  C     0.31205   0.45818   0.74973   0.00000  Uiso   1.00
C1075  C     0.02129   0.54188   0.75030   0.00000  Uiso   1.00
C1076  C     0.29053   0.50003   0.74957   0.00000  Uiso   1.00
Cu1077 Cu    0.16667   0.54689   0.75000   0.00000  Uiso   1.00
Cu1078 Cu    0.16667   0.45311   0.75000   0.00000  Uiso   1.00
H1079  H     0.06336   0.51949   0.53646   0.00000  Uiso   1.00
H1080  H     0.32088   0.46227   0.85361   0.00000  Uiso   1.00
H1081  H     0.31144   0.52347   0.84956   0.00000  Uiso   1.00
H1082  H     0.08485   0.47659   0.66271   0.00000  Uiso   1.00
H1083  H     0.07773   0.45193   0.60730   0.00000  Uiso   1.00
H1084  H     0.01406   0.49640   0.59642   0.00000  Uiso   1.00
H1085  H     0.01245   0.46227   0.64639   0.00000  Uiso   1.00
H1086  H     0.02189   0.52347   0.65044   0.00000  Uiso   1.00
H1087  H     0.08024   0.59332   0.94062   0.00000  Uiso   1.00
H1088  H     0.04601   0.58790   0.98683   0.00000  Uiso   1.00
H1089  H     0.32040   0.57545   0.93334   0.00000  Uiso   1.00
H1090  H     0.26997   0.51949   0.96354   0.00000  Uiso   1.00
H1091  H     0.01290   0.62934   0.92374   0.00000  Uiso   1.00
H1092  H     0.02156   0.58104   0.88751   0.00000  Uiso   1.00
H1093  H     0.25308   0.59331   0.55940   0.00000  Uiso   1.00
H1094  H     0.28731   0.58791   0.51318   0.00000  Uiso   1.00
H1095  H     0.01293   0.57546   0.56665   0.00000  Uiso   1.00
H1096  H     0.32043   0.62935   0.57627   0.00000  Uiso   1.00
H1097  H     0.31178   0.58104   0.61249   0.00000  Uiso   1.00
H1098  H     0.03723   0.42541   0.75049   0.00000  Uiso   1.00
H1099  H     0.29610   0.57464   0.74946   0.00000  Uiso   1.00
H1100  H     0.29611   0.42541   0.74951   0.00000  Uiso   1.00
H1101  H     0.03723   0.57464   0.75054   0.00000  Uiso   1.00
H1102  H     0.24848   0.47659   0.83729   0.00000  Uiso   1.00
H1103  H     0.25561   0.45193   0.89270   0.00000  Uiso   1.00
H1104  H     0.31928   0.49639   0.90359   0.00000  Uiso   1.00
N1105  N     0.16667   0.61736   0.75000   0.00000  Uiso   1.00
N1106  N     0.16667   0.38264   0.75000   0.00000  Uiso   1.00
O1107  O     0.10655   0.53958   0.75000   0.00000  Uiso   1.00
O1108  O     0.09331   0.52257   0.61262   0.00000  Uiso   1.00
O1109  O     0.05584   0.52744   0.95117   0.00000  Uiso   1.00
O1110  O     0.27749   0.52744   0.54883   0.00000  Uiso   1.00
O1111  O     0.22679   0.46042   0.75001   0.00000  Uiso   1.00
O1112  O     0.22679   0.53958   0.75001   0.00000  Uiso   1.00
O1113  O     0.10655   0.46042   0.75000   0.00000  Uiso   1.00
O1114  O     0.16666   0.53960   0.68513   0.00000  Uiso   1.00
O1115  O     0.16668   0.46040   0.81487   0.00000  Uiso   1.00
O1116  O     0.16668   0.53960   0.81487   0.00000  Uiso   1.00
O1117  O     0.16666   0.46040   0.68513   0.00000  Uiso   1.00
O1118  O     0.24002   0.52257   0.88738   0.00000  Uiso   1.00
Br1119 Br    0.41383   0.48674   0.86955   0.00000  Uiso   1.00
Br1120 Br    0.58617   0.48674   0.63045   0.00000  Uiso   1.00
Br1121 Br    0.43581   0.38769   0.68219   0.00000  Uiso   1.00
Br1122 Br    0.56379   0.61039   0.81835   0.00000  Uiso   1.00
Br1123 Br    0.56419   0.38769   0.81781   0.00000  Uiso   1.00
Br1124 Br    0.43621   0.61039   0.68165   0.00000  Uiso   1.00
C1125  C     0.42084   0.50001   0.75037   0.00000  Uiso   1.00
C1126  C     0.37614   0.50003   0.75043   0.00000  Uiso   1.00
C1127  C     0.47383   0.35768   0.72224   0.00000  Uiso   1.00
C1128  C     0.52614   0.64188   0.77788   0.00000  Uiso   1.00
C1129  C     0.52617   0.35768   0.77776   0.00000  Uiso   1.00
C1130  C     0.47386   0.64188   0.72212   0.00000  Uiso   1.00
C1131  C     0.49907   0.50024   0.66460   0.00000  Uiso   1.00
C1132  C     0.50093   0.50024   0.83540   0.00000  Uiso   1.00
C1133  C     0.53775   0.50985   0.90826   0.00000  Uiso   1.00
C1134  C     0.46225   0.50985   0.59174   0.00000  Uiso   1.00
C1135  C     0.50079   0.50169   0.88378   0.00000  Uiso   1.00
C1136  C     0.57916   0.50001   0.74963   0.00000  Uiso   1.00
C1137  C     0.49921   0.50169   0.61622   0.00000  Uiso   1.00
C1138  C     0.46298   0.50054   0.90505   0.00000  Uiso   1.00
C1139  C     0.53702   0.50054   0.59495   0.00000  Uiso   1.00
C1140  C     0.46214   0.50742   0.95151   0.00000  Uiso   1.00
C1141  C     0.53786   0.50742   0.54849   0.00000  Uiso   1.00
C1142  C     0.49991   0.50792   0.97654   0.00000  Uiso   1.00
C1143  C     0.50009   0.50792   0.52346   0.00000  Uiso   1.00
C1144  C     0.53752   0.51018   0.95474   0.00000  Uiso   1.00
C1145  C     0.46248   0.51018   0.54526   0.00000  Uiso   1.00
C1146  C     0.42524   0.51541   0.97392   0.00000  Uiso   1.00
C1147  C     0.42564   0.51504   0.52028   0.00000  Uiso   1.00
C1148  C     0.57476   0.51541   0.52608   0.00000  Uiso   1.00
C1149  C     0.59331   0.48308   0.87156   0.00000  Uiso   1.00
C1150  C     0.63913   0.49206   0.86952   0.00000  Uiso   1.00
C1151  C     0.40669   0.48308   0.62844   0.00000  Uiso   1.00
C1152  C     0.36087   0.49207   0.63048   0.00000  Uiso   1.00
C1153  C     0.38532   0.57604   0.95247   0.00000  Uiso   1.00
C1154  C     0.34940   0.59127   0.92234   0.00000  Uiso   1.00
C1155  C     0.61467   0.57604   0.54754   0.00000  Uiso   1.00
C1156  C     0.65060   0.59127   0.57766   0.00000  Uiso   1.00
C1157  C     0.57436   0.51504   0.97972   0.00000  Uiso   1.00
C1158  C     0.35462   0.45818   0.75027   0.00000  Uiso   1.00
C1159  C     0.64538   0.54188   0.74971   0.00000  Uiso   1.00
C1160  C     0.64538   0.45818   0.74973   0.00000  Uiso   1.00
C1161  C     0.35462   0.54188   0.75030   0.00000  Uiso   1.00
C1162  C     0.62386   0.50003   0.74957   0.00000  Uiso   1.00
Cu1163 Cu    0.50000   0.54689   0.75000   0.00000  Uiso   1.00
Cu1164 Cu    0.50000   0.45311   0.75000   0.00000  Uiso   1.00
H1165  H     0.39669   0.51949   0.53646   0.00000  Uiso   1.00
H1166  H     0.65422   0.46227   0.85361   0.00000  Uiso   1.00
H1167  H     0.64478   0.52347   0.84956   0.00000  Uiso   1.00
H1168  H     0.41819   0.47659   0.66271   0.00000  Uiso   1.00
H1169  H     0.41106   0.45193   0.60730   0.00000  Uiso   1.00
H1170  H     0.34739   0.49640   0.59642   0.00000  Uiso   1.00
H1171  H     0.34578   0.46227   0.64639   0.00000  Uiso   1.00
H1172  H     0.35522   0.52347   0.65044   0.00000  Uiso   1.00
H1173  H     0.41358   0.59332   0.94062   0.00000  Uiso   1.00
H1174  H     0.37934   0.58790   0.98683   0.00000  Uiso   1.00
H1175  H     0.65373   0.57545   0.93334   0.00000  Uiso   1.00
H1176  H     0.60331   0.51949   0.96354   0.00000  Uiso   1.00
H1177  H     0.34623   0.62934   0.92374   0.00000  Uiso   1.00
H1178  H     0.35490   0.58104   0.88751   0.00000  Uiso   1.00
H1179  H     0.58642   0.59331   0.55940   0.00000  Uiso   1.00
H1180  H     0.62064   0.58791   0.51318   0.00000  Uiso   1.00
H1181  H     0.34626   0.57546   0.56665   0.00000  Uiso   1.00
H1182  H     0.65377   0.62935   0.57627   0.00000  Uiso   1.00
H1183  H     0.64511   0.58104   0.61249   0.00000  Uiso   1.00
H1184  H     0.37056   0.42541   0.75049   0.00000  Uiso   1.00
H1185  H     0.62944   0.57464   0.74946   0.00000  Uiso   1.00
H1186  H     0.62944   0.42541   0.74951   0.00000  Uiso   1.00
H1187  H     0.37056   0.57464   0.75054   0.00000  Uiso   1.00
H1188  H     0.58181   0.47659   0.83729   0.00000  Uiso   1.00
H1189  H     0.58894   0.45193   0.89270   0.00000  Uiso   1.00
H1190  H     0.65261   0.49639   0.90359   0.00000  Uiso   1.00
N1191  N     0.50000   0.61736   0.75000   0.00000  Uiso   1.00
N1192  N     0.50000   0.38264   0.75000   0.00000  Uiso   1.00
O1193  O     0.43988   0.53958   0.75000   0.00000  Uiso   1.00
O1194  O     0.42665   0.52257   0.61262   0.00000  Uiso   1.00
O1195  O     0.38917   0.52744   0.95117   0.00000  Uiso   1.00
O1196  O     0.61083   0.52744   0.54883   0.00000  Uiso   1.00
O1197  O     0.56012   0.46042   0.75001   0.00000  Uiso   1.00
O1198  O     0.56012   0.53958   0.75001   0.00000  Uiso   1.00
O1199  O     0.43988   0.46042   0.75000   0.00000  Uiso   1.00
O1200  O     0.49999   0.53960   0.68513   0.00000  Uiso   1.00
O1201  O     0.50001   0.46040   0.81487   0.00000  Uiso   1.00
O1202  O     0.50001   0.53960   0.81487   0.00000  Uiso   1.00
O1203  O     0.49999   0.46040   0.68513   0.00000  Uiso   1.00
O1204  O     0.57335   0.52257   0.88738   0.00000  Uiso   1.00
Br1205 Br    0.74716   0.48674   0.86955   0.00000  Uiso   1.00
Br1206 Br    0.91950   0.48674   0.63045   0.00000  Uiso   1.00
Br1207 Br    0.76914   0.38769   0.68219   0.00000  Uiso   1.00
Br1208 Br    0.89713   0.61039   0.81835   0.00000  Uiso   1.00
Br1209 Br    0.89752   0.38769   0.81781   0.00000  Uiso   1.00
Br1210 Br    0.76954   0.61039   0.68165   0.00000  Uiso   1.00
C1211  C     0.75418   0.50001   0.75037   0.00000  Uiso   1.00
C1212  C     0.70947   0.50003   0.75043   0.00000  Uiso   1.00
C1213  C     0.80717   0.35768   0.72224   0.00000  Uiso   1.00
C1214  C     0.85947   0.64188   0.77788   0.00000  Uiso   1.00
C1215  C     0.85950   0.35768   0.77776   0.00000  Uiso   1.00
C1216  C     0.80719   0.64188   0.72212   0.00000  Uiso   1.00
C1217  C     0.83240   0.50024   0.66460   0.00000  Uiso   1.00
C1218  C     0.83427   0.50024   0.83540   0.00000  Uiso   1.00
C1219  C     0.87108   0.50985   0.90826   0.00000  Uiso   1.00
C1220  C     0.79558   0.50985   0.59174   0.00000  Uiso   1.00
C1221  C     0.83412   0.50169   0.88378   0.00000  Uiso   1.00
C1222  C     0.91249   0.50001   0.74963   0.00000  Uiso   1.00
C1223  C     0.83254   0.50169   0.61622   0.00000  Uiso   1.00
C1224  C     0.79631   0.50054   0.90505   0.00000  Uiso   1.00
C1225  C     0.87035   0.50054   0.59495   0.00000  Uiso   1.00
C1226  C     0.79548   0.50742   0.95151   0.00000  Uiso   1.00
C1227  C     0.87119   0.50742   0.54849   0.00000  Uiso   1.00
C1228  C     0.83324   0.50792   0.97654   0.00000  Uiso   1.00
C1229  C     0.83343   0.50792   0.52346   0.00000  Uiso   1.00
C1230  C     0.87085   0.51018   0.95474   0.00000  Uiso   1.00
C1231  C     0.79581   0.51018   0.54526   0.00000  Uiso   1.00
C1232  C     0.75857   0.51541   0.97392   0.00000  Uiso   1.00
C1233  C     0.75897   0.51504   0.52028   0.00000  Uiso   1.00
C1234  C     0.90809   0.51541   0.52608   0.00000  Uiso   1.00
C1235  C     0.92665   0.48308   0.87156   0.00000  Uiso   1.00
C1236  C     0.97246   0.49206   0.86952   0.00000  Uiso   1.00
C1237  C     0.74002   0.48308   0.62844   0.00000  Uiso   1.00
C1238  C     0.69420   0.49207   0.63048   0.00000  Uiso   1.00
C1239  C     0.71865   0.57604   0.95247   0.00000  Uiso   1.00
C1240  C     0.68273   0.59127   0.92234   0.00000  Uiso   1.00
C1241  C     0.94801   0.57604   0.54754   0.00000  Uiso   1.00
C1242  C     0.98394   0.59127   0.57766   0.00000  Uiso   1.00
C1243  C     0.90769   0.51504   0.97972   0.00000  Uiso   1.00
C1244  C     0.68795   0.45818   0.75027   0.00000  Uiso   1.00
C1245  C     0.97871   0.54188   0.74971   0.00000  Uiso   1.00
C1246  C     0.97871   0.45818   0.74973   0.00000  Uiso   1.00
C1247  C     0.68796   0.54188   0.75030   0.00000  Uiso   1.00
C1248  C     0.95720   0.50003   0.74957   0.00000  Uiso   1.00
Cu1249 Cu    0.83333   0.54689   0.75000   0.00000  Uiso   1.00
Cu1250 Cu    0.83333   0.45311   0.75000   0.00000  Uiso   1.00
H1251  H     0.73003   0.51949   0.53646   0.00000  Uiso   1.00
H1252  H     0.98755   0.46227   0.85361   0.00000  Uiso   1.00
H1253  H     0.97811   0.52347   0.84956   0.00000  Uiso   1.00
H1254  H     0.75152   0.47659   0.66271   0.00000  Uiso   1.00
H1255  H     0.74439   0.45193   0.60730   0.00000  Uiso   1.00
H1256  H     0.68072   0.49640   0.59642   0.00000  Uiso   1.00
H1257  H     0.67912   0.46227   0.64639   0.00000  Uiso   1.00
H1258  H     0.68856   0.52347   0.65044   0.00000  Uiso   1.00
H1259  H     0.74691   0.59332   0.94062   0.00000  Uiso   1.00
H1260  H     0.71267   0.58790   0.98683   0.00000  Uiso   1.00
H1261  H     0.98707   0.57545   0.93334   0.00000  Uiso   1.00
H1262  H     0.93664   0.51949   0.96354   0.00000  Uiso   1.00
H1263  H     0.67956   0.62934   0.92374   0.00000  Uiso   1.00
H1264  H     0.68823   0.58104   0.88751   0.00000  Uiso   1.00
H1265  H     0.91975   0.59331   0.55940   0.00000  Uiso   1.00
H1266  H     0.95398   0.58791   0.51318   0.00000  Uiso   1.00
H1267  H     0.67960   0.57546   0.56665   0.00000  Uiso   1.00
H1268  H     0.98710   0.62935   0.57627   0.00000  Uiso   1.00
H1269  H     0.97844   0.58104   0.61249   0.00000  Uiso   1.00
H1270  H     0.70389   0.42541   0.75049   0.00000  Uiso   1.00
H1271  H     0.96277   0.57464   0.74946   0.00000  Uiso   1.00
H1272  H     0.96277   0.42541   0.74951   0.00000  Uiso   1.00
H1273  H     0.70390   0.57464   0.75054   0.00000  Uiso   1.00
H1274  H     0.91515   0.47659   0.83729   0.00000  Uiso   1.00
H1275  H     0.92227   0.45193   0.89270   0.00000  Uiso   1.00
H1276  H     0.98594   0.49639   0.90359   0.00000  Uiso   1.00
N1277  N     0.83333   0.61736   0.75000   0.00000  Uiso   1.00
N1278  N     0.83333   0.38264   0.75000   0.00000  Uiso   1.00
O1279  O     0.77321   0.53958   0.75000   0.00000  Uiso   1.00
O1280  O     0.75998   0.52257   0.61262   0.00000  Uiso   1.00
O1281  O     0.72251   0.52744   0.95117   0.00000  Uiso   1.00
O1282  O     0.94416   0.52744   0.54883   0.00000  Uiso   1.00
O1283  O     0.89345   0.46042   0.75001   0.00000  Uiso   1.00
O1284  O     0.89345   0.53958   0.75001   0.00000  Uiso   1.00
O1285  O     0.77321   0.46042   0.75000   0.00000  Uiso   1.00
O1286  O     0.83332   0.53960   0.68513   0.00000  Uiso   1.00
O1287  O     0.83334   0.46040   0.81487   0.00000  Uiso   1.00
O1288  O     0.83334   0.53960   0.81487   0.00000  Uiso   1.00
O1289  O     0.83332   0.46040   0.68513   0.00000  Uiso   1.00
O1290  O     0.90669   0.52257   0.88738   0.00000  Uiso   1.00
Br1291 Br    0.08050   0.82007   0.86955   0.00000  Uiso   1.00
Br1292 Br    0.25284   0.82007   0.63045   0.00000  Uiso   1.00
Br1293 Br    0.10248   0.72103   0.68219   0.00000  Uiso   1.00
Br1294 Br    0.23046   0.94372   0.81835   0.00000  Uiso   1.00
Br1295 Br    0.23086   0.72103   0.81781   0.00000  Uiso   1.00
Br1296 Br    0.10287   0.94372   0.68165   0.00000  Uiso   1.00
C1297  C     0.08751   0.83335   0.75037   0.00000  Uiso   1.00
C1298  C     0.04280   0.83336   0.75043   0.00000  Uiso   1.00
C1299  C     0.14050   0.69101   0.72224   0.00000  Uiso   1.00
C1300  C     0.19281   0.97522   0.77788   0.00000  Uiso   1.00
C1301  C     0.19283   0.69101   0.77776   0.00000  Uiso   1.00
C1302  C     0.14053   0.97522   0.72212   0.00000  Uiso   1.00
C1303  C     0.16573   0.83358   0.66460   0.00000  Uiso   1.00
C1304  C     0.16760   0.83358   0.83540   0.00000  Uiso   1.00
C1305  C     0.20442   0.84318   0.90826   0.00000  Uiso   1.00
C1306  C     0.12892   0.84318   0.59174   0.00000  Uiso   1.00
C1307  C     0.16746   0.83502   0.88378   0.00000  Uiso   1.00
C1308  C     0.24582   0.83335   0.74963   0.00000  Uiso   1.00
C1309  C     0.16588   0.83502   0.61622   0.00000  Uiso   1.00
C1310  C     0.12965   0.83388   0.90505   0.00000  Uiso   1.00
C1311  C     0.20369   0.83388   0.59495   0.00000  Uiso   1.00
C1312  C     0.12881   0.84076   0.95151   0.00000  Uiso   1.00
C1313  C     0.20452   0.84076   0.54849   0.00000  Uiso   1.00
C1314  C     0.16657   0.84126   0.97654   0.00000  Uiso   1.00
C1315  C     0.16676   0.84126   0.52346   0.00000  Uiso   1.00
C1316  C     0.20419   0.84352   0.95474   0.00000  Uiso   1.00
C1317  C     0.12915   0.84352   0.54526   0.00000  Uiso   1.00
C1318  C     0.09191   0.84874   0.97392   0.00000  Uiso   1.00
C1319  C     0.09231   0.84837   0.52028   0.00000  Uiso   1.00
C1320  C     0.24143   0.84874   0.52608   0.00000  Uiso   1.00
C1321  C     0.25998   0.81642   0.87156   0.00000  Uiso   1.00
C1322  C     0.30580   0.82540   0.86952   0.00000  Uiso   1.00
C1323  C     0.07335   0.81642   0.62844   0.00000  Uiso   1.00
C1324  C     0.02754   0.82540   0.63048   0.00000  Uiso   1.00
C1325  C     0.05198   0.90937   0.95247   0.00000  Uiso   1.00
C1326  C     0.01606   0.92460   0.92234   0.00000  Uiso   1.00
C1327  C     0.28134   0.90937   0.54754   0.00000  Uiso   1.00
C1328  C     0.31727   0.92460   0.57766   0.00000  Uiso   1.00
C1329  C     0.24103   0.84837   0.97972   0.00000  Uiso   1.00
C1330  C     0.02129   0.79151   0.75027   0.00000  Uiso   1.00
C1331  C     0.31205   0.87521   0.74971   0.00000  Uiso   1.00
C1332  C     0.31205   0.79151   0.74973   0.00000  Uiso   1.00
C1333  C     0.02129   0.87521   0.75030   0.00000  Uiso   1.00
C1334  C     0.29053   0.83336   0.74957   0.00000  Uiso   1.00
Cu1335 Cu    0.16667   0.88022   0.75000   0.00000  Uiso   1.00
Cu1336 Cu    0.16667   0.78645   0.75000   0.00000  Uiso   1.00
H1337  H     0.06336   0.85282   0.53646   0.00000  Uiso   1.00
H1338  H     0.32088   0.79560   0.85361   0.00000  Uiso   1.00
H1339  H     0.31144   0.85680   0.84956   0.00000  Uiso   1.00
H1340  H     0.08485   0.80992   0.66271   0.00000  Uiso   1.00
H1341  H     0.07773   0.78526   0.60730   0.00000  Uiso   1.00
H1342  H     0.01406   0.82973   0.59642   0.00000  Uiso   1.00
H1343  H     0.01245   0.79560   0.64639   0.00000  Uiso   1.00
H1344  H     0.02189   0.85680   0.65044   0.00000  Uiso   1.00
H1345  H     0.08024   0.92665   0.94062   0.00000  Uiso   1.00
H1346  H     0.04601   0.92123   0.98683   0.00000  Uiso   1.00
H1347  H     0.32040   0.90879   0.93334   0.00000  Uiso   1.00
H1348  H     0.26997   0.85282   0.96354   0.00000  Uiso   1.00
H1349  H     0.01290   0.96268   0.92374   0.00000  Uiso   1.00
H1350  H     0.02156   0.91438   0.88751   0.00000  Uiso   1.00
H1351  H     0.25308   0.92664   0.55940   0.00000  Uiso   1.00
H1352  H     0.28731   0.92125   0.51318   0.00000  Uiso   1.00
H1353  H     0.01293   0.90879   0.56665   0.00000  Uiso   1.00
H1354  H     0.32043   0.96268   0.57627   0.00000  Uiso   1.00
H1355  H     0.31178   0.91437   0.61249   0.00000  Uiso   1.00
H1356  H     0.03723   0.75875   0.75049   0.00000  Uiso   1.00
H1357  H     0.29610   0.90798   0.74946   0.00000  Uiso   1.00
H1358  H     0.29611   0.75875   0.74951   0.00000  Uiso   1.00
H1359  H     0.03723   0.90798   0.75054   0.00000  Uiso   1.00
H1360  H     0.24848   0.80992   0.83729   0.00000  Uiso   1.00
H1361  H     0.25561   0.78526   0.89270   0.00000  Uiso   1.00
H1362  H     0.31928   0.82973   0.90359   0.00000  Uiso   1.00
N1363  N     0.16667   0.95069   0.75000   0.00000  Uiso   1.00
N1364  N     0.16667   0.71598   0.75000   0.00000  Uiso   1.00
O1365  O     0.10655   0.87291   0.75000   0.00000  Uiso   1.00
O1366  O     0.09331   0.85590   0.61262   0.00000  Uiso   1.00
O1367  O     0.05584   0.86078   0.95117   0.00000  Uiso   1.00
O1368  O     0.27749   0.86078   0.54883   0.00000  Uiso   1.00
O1369  O     0.22679   0.79375   0.75001   0.00000  Uiso   1.00
O1370  O     0.22679   0.87291   0.75001   0.00000  Uiso   1.00
O1371  O     0.10655   0.79375   0.75000   0.00000  Uiso   1.00
O1372  O     0.16666   0.87293   0.68513   0.00000  Uiso   1.00
O1373  O     0.16668   0.79373   0.81487   0.00000  Uiso   1.00
O1374  O     0.16668   0.87293   0.81487   0.00000  Uiso   1.00
O1375  O     0.16666   0.79373   0.68513   0.00000  Uiso   1.00
O1376  O     0.24002   0.85590   0.88738   0.00000  Uiso   1.00
Br1377 Br    0.41383   0.82007   0.86955   0.00000  Uiso   1.00
Br1378 Br    0.58617   0.82007   0.63045   0.00000  Uiso   1.00
Br1379 Br    0.43581   0.72103   0.68219   0.00000  Uiso   1.00
Br1380 Br    0.56379   0.94372   0.81835   0.00000  Uiso   1.00
Br1381 Br    0.56419   0.72103   0.81781   0.00000  Uiso   1.00
Br1382 Br    0.43621   0.94372   0.68165   0.00000  Uiso   1.00
C1383  C     0.42084   0.83335   0.75037   0.00000  Uiso   1.00
C1384  C     0.37614   0.83336   0.75043   0.00000  Uiso   1.00
C1385  C     0.47383   0.69101   0.72224   0.00000  Uiso   1.00
C1386  C     0.52614   0.97522   0.77788   0.00000  Uiso   1.00
C1387  C     0.52617   0.69101   0.77776   0.00000  Uiso   1.00
C1388  C     0.47386   0.97522   0.72212   0.00000  Uiso   1.00
C1389  C     0.49907   0.83358   0.66460   0.00000  Uiso   1.00
C1390  C     0.50093   0.83358   0.83540   0.00000  Uiso   1.00
C1391  C     0.53775   0.84318   0.90826   0.00000  Uiso   1.00
C1392  C     0.46225   0.84318   0.59174   0.00000  Uiso   1.00
C1393  C     0.50079   0.83502   0.88378   0.00000  Uiso   1.00
C1394  C     0.57916   0.83335   0.74963   0.00000  Uiso   1.00
C1395  C     0.49921   0.83502   0.61622   0.00000  Uiso   1.00
C1396  C     0.46298   0.83388   0.90505   0.00000  Uiso   1.00
C1397  C     0.53702   0.83388   0.59495   0.00000  Uiso   1.00
C1398  C     0.46214   0.84076   0.95151   0.00000  Uiso   1.00
C1399  C     0.53786   0.84076   0.54849   0.00000  Uiso   1.00
C1400  C     0.49991   0.84126   0.97654   0.00000  Uiso   1.00
C1401  C     0.50009   0.84126   0.52346   0.00000  Uiso   1.00
C1402  C     0.53752   0.84352   0.95474   0.00000  Uiso   1.00
C1403  C     0.46248   0.84352   0.54526   0.00000  Uiso   1.00
C1404  C     0.42524   0.84874   0.97392   0.00000  Uiso   1.00
C1405  C     0.42564   0.84837   0.52028   0.00000  Uiso   1.00
C1406  C     0.57476   0.84874   0.52608   0.00000  Uiso   1.00
C1407  C     0.59331   0.81642   0.87156   0.00000  Uiso   1.00
C1408  C     0.63913   0.82540   0.86952   0.00000  Uiso   1.00
C1409  C     0.40669   0.81642   0.62844   0.00000  Uiso   1.00
C1410  C     0.36087   0.82540   0.63048   0.00000  Uiso   1.00
C1411  C     0.38532   0.90937   0.95247   0.00000  Uiso   1.00
C1412  C     0.34940   0.92460   0.92234   0.00000  Uiso   1.00
C1413  C     0.61467   0.90937   0.54754   0.00000  Uiso   1.00
C1414  C     0.65060   0.92460   0.57766   0.00000  Uiso   1.00
C1415  C     0.57436   0.84837   0.97972   0.00000  Uiso   1.00
C1416  C     0.35462   0.79151   0.75027   0.00000  Uiso   1.00
C1417  C     0.64538   0.87521   0.74971   0.00000  Uiso   1.00
C1418  C     0.64538   0.79151   0.74973   0.00000  Uiso   1.00
C1419  C     0.35462   0.87521   0.75030   0.00000  Uiso   1.00
C1420  C     0.62386   0.83336   0.74957   0.00000  Uiso   1.00
Cu1421 Cu    0.50000   0.88022   0.75000   0.00000  Uiso   1.00
Cu1422 Cu    0.50000   0.78645   0.75000   0.00000  Uiso   1.00
H1423  H     0.39669   0.85282   0.53646   0.00000  Uiso   1.00
H1424  H     0.65422   0.79560   0.85361   0.00000  Uiso   1.00
H1425  H     0.64478   0.85680   0.84956   0.00000  Uiso   1.00
H1426  H     0.41819   0.80992   0.66271   0.00000  Uiso   1.00
H1427  H     0.41106   0.78526   0.60730   0.00000  Uiso   1.00
H1428  H     0.34739   0.82973   0.59642   0.00000  Uiso   1.00
H1429  H     0.34578   0.79560   0.64639   0.00000  Uiso   1.00
H1430  H     0.35522   0.85680   0.65044   0.00000  Uiso   1.00
H1431  H     0.41358   0.92665   0.94062   0.00000  Uiso   1.00
H1432  H     0.37934   0.92123   0.98683   0.00000  Uiso   1.00
H1433  H     0.65373   0.90879   0.93334   0.00000  Uiso   1.00
H1434  H     0.60331   0.85282   0.96354   0.00000  Uiso   1.00
H1435  H     0.34623   0.96268   0.92374   0.00000  Uiso   1.00
H1436  H     0.35490   0.91438   0.88751   0.00000  Uiso   1.00
H1437  H     0.58642   0.92664   0.55940   0.00000  Uiso   1.00
H1438  H     0.62064   0.92125   0.51318   0.00000  Uiso   1.00
H1439  H     0.34626   0.90879   0.56665   0.00000  Uiso   1.00
H1440  H     0.65377   0.96268   0.57627   0.00000  Uiso   1.00
H1441  H     0.64511   0.91437   0.61249   0.00000  Uiso   1.00
H1442  H     0.37056   0.75875   0.75049   0.00000  Uiso   1.00
H1443  H     0.62944   0.90798   0.74946   0.00000  Uiso   1.00
H1444  H     0.62944   0.75875   0.74951   0.00000  Uiso   1.00
H1445  H     0.37056   0.90798   0.75054   0.00000  Uiso   1.00
H1446  H     0.58181   0.80992   0.83729   0.00000  Uiso   1.00
H1447  H     0.58894   0.78526   0.89270   0.00000  Uiso   1.00
H1448  H     0.65261   0.82973   0.90359   0.00000  Uiso   1.00
N1449  N     0.50000   0.95069   0.75000   0.00000  Uiso   1.00
N1450  N     0.50000   0.71598   0.75000   0.00000  Uiso   1.00
O1451  O     0.43988   0.87291   0.75000   0.00000  Uiso   1.00
O1452  O     0.42665   0.85590   0.61262   0.00000  Uiso   1.00
O1453  O     0.38917   0.86078   0.95117   0.00000  Uiso   1.00
O1454  O     0.61083   0.86078   0.54883   0.00000  Uiso   1.00
O1455  O     0.56012   0.79375   0.75001   0.00000  Uiso   1.00
O1456  O     0.56012   0.87291   0.75001   0.00000  Uiso   1.00
O1457  O     0.43988   0.79375   0.75000   0.00000  Uiso   1.00
O1458  O     0.49999   0.87293   0.68513   0.00000  Uiso   1.00
O1459  O     0.50001   0.79373   0.81487   0.00000  Uiso   1.00
O1460  O     0.50001   0.87293   0.81487   0.00000  Uiso   1.00
O1461  O     0.49999   0.79373   0.68513   0.00000  Uiso   1.00
O1462  O     0.57335   0.85590   0.88738   0.00000  Uiso   1.00
Br1463 Br    0.74716   0.82007   0.86955   0.00000  Uiso   1.00
Br1464 Br    0.91950   0.82007   0.63045   0.00000  Uiso   1.00
Br1465 Br    0.76914   0.72103   0.68219   0.00000  Uiso   1.00
Br1466 Br    0.89713   0.94372   0.81835   0.00000  Uiso   1.00
Br1467 Br    0.89752   0.72103   0.81781   0.00000  Uiso   1.00
Br1468 Br    0.76954   0.94372   0.68165   0.00000  Uiso   1.00
C1469  C     0.75418   0.83335   0.75037   0.00000  Uiso   1.00
C1470  C     0.70947   0.83336   0.75043   0.00000  Uiso   1.00
C1471  C     0.80717   0.69101   0.72224   0.00000  Uiso   1.00
C1472  C     0.85947   0.97522   0.77788   0.00000  Uiso   1.00
C1473  C     0.85950   0.69101   0.77776   0.00000  Uiso   1.00
C1474  C     0.80719   0.97522   0.72212   0.00000  Uiso   1.00
C1475  C     0.83240   0.83358   0.66460   0.00000  Uiso   1.00
C1476  C     0.83427   0.83358   0.83540   0.00000  Uiso   1.00
C1477  C     0.87108   0.84318   0.90826   0.00000  Uiso   1.00
C1478  C     0.79558   0.84318   0.59174   0.00000  Uiso   1.00
C1479  C     0.83412   0.83502   0.88378   0.00000  Uiso   1.00
C1480  C     0.91249   0.83335   0.74963   0.00000  Uiso   1.00
C1481  C     0.83254   0.83502   0.61622   0.00000  Uiso   1.00
C1482  C     0.79631   0.83388   0.90505   0.00000  Uiso   1.00
C1483  C     0.87035   0.83388   0.59495   0.00000  Uiso   1.00
C1484  C     0.79548   0.84076   0.95151   0.00000  Uiso   1.00
C1485  C     0.87119   0.84076   0.54849   0.00000  Uiso   1.00
C1486  C     0.83324   0.84126   0.97654   0.00000  Uiso   1.00
C1487  C     0.83343   0.84126   0.52346   0.00000  Uiso   1.00
C1488  C     0.87085   0.84352   0.95474   0.00000  Uiso   1.00
C1489  C     0.79581   0.84352   0.54526   0.00000  Uiso   1.00
C1490  C     0.75857   0.84874   0.97392   0.00000  Uiso   1.00
C1491  C     0.75897   0.84837   0.52028   0.00000  Uiso   1.00
C1492  C     0.90809   0.84874   0.52608   0.00000  Uiso   1.00
C1493  C     0.92665   0.81642   0.87156   0.00000  Uiso   1.00
C1494  C     0.97246   0.82540   0.86952   0.00000  Uiso   1.00
C1495  C     0.74002   0.81642   0.62844   0.00000  Uiso   1.00
C1496  C     0.69420   0.82540   0.63048   0.00000  Uiso   1.00
C1497  C     0.71865   0.90937   0.95247   0.00000  Uiso   1.00
C1498  C     0.68273   0.92460   0.92234   0.00000  Uiso   1.00
C1499  C     0.94801   0.90937   0.54754   0.00000  Uiso   1.00
C1500  C     0.98394   0.92460   0.57766   0.00000  Uiso   1.00
C1501  C     0.90769   0.84837   0.97972   0.00000  Uiso   1.00
C1502  C     0.68795   0.79151   0.75027   0.00000  Uiso   1.00
C1503  C     0.97871   0.87521   0.74971   0.00000  Uiso   1.00
C1504  C     0.97871   0.79151   0.74973   0.00000  Uiso   1.00
C1505  C     0.68796   0.87521   0.75030   0.00000  Uiso   1.00
C1506  C     0.95720   0.83336   0.74957   0.00000  Uiso   1.00
Cu1507 Cu    0.83333   0.88022   0.75000   0.00000  Uiso   1.00
Cu1508 Cu    0.83333   0.78645   0.75000   0.00000  Uiso   1.00
H1509  H     0.73003   0.85282   0.53646   0.00000  Uiso   1.00
H1510  H     0.98755   0.79560   0.85361   0.00000  Uiso   1.00
H1511  H     0.97811   0.85680   0.84956   0.00000  Uiso   1.00
H1512  H     0.75152   0.80992   0.66271   0.00000  Uiso   1.00
H1513  H     0.74439   0.78526   0.60730   0.00000  Uiso   1.00
H1514  H     0.68072   0.82973   0.59642   0.00000  Uiso   1.00
H1515  H     0.67912   0.79560   0.64639   0.00000  Uiso   1.00
H1516  H     0.68856   0.85680   0.65044   0.00000  Uiso   1.00
H1517  H     0.74691   0.92665   0.94062   0.00000  Uiso   1.00
H1518  H     0.71267   0.92123   0.98683   0.00000  Uiso   1.00
H1519  H     0.98707   0.90879   0.93334   0.00000  Uiso   1.00
H1520  H     0.93664   0.85282   0.96354   0.00000  Uiso   1.00
H1521  H     0.67956   0.96268   0.92374   0.00000  Uiso   1.00
H1522  H     0.68823   0.91438   0.88751   0.00000  Uiso   1.00
H1523  H     0.91975   0.92664   0.55940   0.00000  Uiso   1.00
H1524  H     0.95398   0.92125   0.51318   0.00000  Uiso   1.00
H1525  H     0.67960   0.90879   0.56665   0.00000  Uiso   1.00
H1526  H     0.98710   0.96268   0.57627   0.00000  Uiso   1.00
H1527  H     0.97844   0.91437   0.61249   0.00000  Uiso   1.00
H1528  H     0.70389   0.75875   0.75049   0.00000  Uiso   1.00
H1529  H     0.96277   0.90798   0.74946   0.00000  Uiso   1.00
H1530  H     0.96277   0.75875   0.74951   0.00000  Uiso   1.00
H1531  H     0.70390   0.90798   0.75054   0.00000  Uiso   1.00
H1532  H     0.91515   0.80992   0.83729   0.00000  Uiso   1.00
H1533  H     0.92227   0.78526   0.89270   0.00000  Uiso   1.00
H1534  H     0.98594   0.82973   0.90359   0.00000  Uiso   1.00
N1535  N     0.83333   0.95069   0.75000   0.00000  Uiso   1.00
N1536  N     0.83333   0.71598   0.75000   0.00000  Uiso   1.00
O1537  O     0.77321   0.87291   0.75000   0.00000  Uiso   1.00
O1538  O     0.75998   0.85590   0.61262   0.00000  Uiso   1.00
O1539  O     0.72251   0.86078   0.95117   0.00000  Uiso   1.00
O1540  O     0.94416   0.86078   0.54883   0.00000  Uiso   1.00
O1541  O     0.89345   0.79375   0.75001   0.00000  Uiso   1.00
O1542  O     0.89345   0.87291   0.75001   0.00000  Uiso   1.00
O1543  O     0.77321   0.79375   0.75000   0.00000  Uiso   1.00
O1544  O     0.83332   0.87293   0.68513   0.00000  Uiso   1.00
O1545  O     0.83334   0.79373   0.81487   0.00000  Uiso   1.00
O1546  O     0.83334   0.87293   0.81487   0.00000  Uiso   1.00
O1547  O     0.83332   0.79373   0.68513   0.00000  Uiso   1.00
O1548  O     0.90669   0.85590   0.88738   0.00000  Uiso   1.00
loop_
_geom_bond_atom_site_label_1
_geom_bond_atom_site_label_2
_geom_bond_distance
_geom_bond_site_symmetry_2
_ccdc_geom_bond_type
Br1    C20     1.934   .     S
Br2    C21     1.934   .     S
Br3    C9      1.908   .     S
Br4    C10     1.928   .     S
Br5    C11     1.908   .     S
Br6    C12     1.928   .     S
C7     C8      1.454   .     S
C7     O75     1.304   .     A
C7     O81     1.305   .     A
C8     C43     1.401   .     A
C8     C40     1.401   .     A
C9     N74     1.378   .     A
C9     C528    1.425   1_545 S
C10    N73     1.373   .     A
C10    C269    1.425   .     S
C11    N74     1.378   .     A
C11    C526    1.425   1_545 S
C12    N73     1.373   .     A
C12    C267    1.425   .     S
C13    C19     1.457   .     S
C13    O82     1.298   .     A
C13    O85     1.311   .     A
C14    O84     1.298   .     A
C14    C17     1.457   .     S
C14    O83     1.311   .     A
C15    C26     1.400   .     A
C15    O86     1.386   .     S
C15    C17     1.409   .     A
C16    C27     1.400   .     A
C16    O76     1.386   .     S
C16    C19     1.409   .     A
C17    C20     1.406   .     A
C18    O79     1.305   .     A
C18    C44     1.454   .     S
C18    O80     1.304   .     A
C19    C21     1.406   .     A
C20    C22     1.414   .     A
C21    C23     1.414   .     A
C22    C24     1.419   .     A
C22    C28     1.416   .     A
C23    C30     1.416   .     A
C23    C25     1.419   .     A
C24    C26     1.409   .     A
C24    C799    1.412   .     S
C25    C27     1.409   .     A
C25    C798    1.412   1_554 S
C26    C39     1.400   .     A
C27    C29     1.400   .     A
C28    O77     1.383   .     S
C28    C803    1.395   .     S
C29    H47     1.082   .     S
C29    C802    1.395   1_554 S
C30    O78     1.383   .     S
C30    C813    1.395   1_554 S
C31    H70     1.101   .     S
C31    O86     1.407   .     S
C31    C32     1.516   .     S
C31    H71     1.117   .     S
C32    H72     1.109   .     S
C32    H48     1.110   .     S
C32    H49     1.110   .     S
C33    H50     1.101   .     S
C33    O76     1.407   .     S
C33    C34     1.516   .     S
C33    H51     1.117   .     S
C34    H54     1.110   .     S
C34    H52     1.109   .     S
C34    H53     1.110   .     S
C35    C36     1.520   .     S
C35    H55     1.116   .     S
C35    O77     1.416   .     S
C35    H56     1.114   .     S
C36    H59     1.110   .     S
C36    H60     1.110   .     S
C36    H229    1.109   1_455 S
C37    H62     1.114   .     S
C37    C38     1.520   .     S
C37    H61     1.116   .     S
C37    O78     1.416   .     S
C38    H64     1.110   .     S
C38    H65     1.110   .     S
C38    H149    1.109   .     S
C39    H58     1.082   .     S
C39    C804    1.395   .     S
C40    H66     1.083   .     S
C40    C214    1.384   1_455 S
C41    H67     1.083   .     S
C41    C44     1.401   .     A
C41    C129    1.384   .     S
C42    H68     1.083   .     S
C42    C44     1.401   .     A
C42    C126    1.384   .     S
C43    H69     1.083   .     S
C43    C213    1.384   1_455 S
Cu45   Cu46    2.720   .     S
Cu45   N73     2.044   .     S
Cu45   O82     1.964   .     S
Cu45   O84     1.964   .     S
Cu45   O75     1.967   .     S
Cu45   O80     1.967   .     S
Cu46   O79     1.967   .     S
Cu46   O85     1.964   .     S
Cu46   O81     1.967   .     S
Cu46   N74     2.044   .     S
Cu46   O83     1.964   .     S
H57    C122    1.109   .     S
H63    C210    1.109   1_455 S
Br87   C106    1.934   .     S
Br88   C107    1.934   .     S
Br89   C95     1.908   .     S
Br90   C96     1.928   .     S
Br91   C97     1.908   .     S
Br92   C98     1.928   .     S
C93    C94     1.454   .     S
C93    O161    1.304   .     A
C93    O167    1.305   .     A
C94    C129    1.401   .     A
C94    C126    1.401   .     A
C95    N160    1.378   .     A
C95    C614    1.425   1_545 S
C96    N159    1.373   .     A
C96    C355    1.425   .     S
C97    N160    1.378   .     A
C97    C612    1.425   1_545 S
C98    N159    1.373   .     A
C98    C353    1.425   .     S
C99    C105    1.457   .     S
C99    O168    1.298   .     A
C99    O171    1.311   .     A
C100   O170    1.298   .     A
C100   C103    1.457   .     S
C100   O169    1.311   .     A
C101   C112    1.400   .     A
C101   O172    1.386   .     S
C101   C103    1.409   .     A
C102   C113    1.400   .     A
C102   O162    1.386   .     S
C102   C105    1.409   .     A
C103   C106    1.406   .     A
C104   O165    1.305   .     A
C104   C130    1.454   .     S
C104   O166    1.304   .     A
C105   C107    1.406   .     A
C106   C108    1.414   .     A
C107   C109    1.414   .     A
C108   C110    1.419   .     A
C108   C114    1.416   .     A
C109   C116    1.416   .     A
C109   C111    1.419   .     A
C110   C112    1.409   .     A
C110   C885    1.412   .     S
C111   C113    1.409   .     A
C111   C884    1.412   1_554 S
C112   C125    1.400   .     A
C113   C115    1.400   .     A
C114   O163    1.383   .     S
C114   C889    1.395   .     S
C115   H133    1.082   .     S
C115   C888    1.395   1_554 S
C116   O164    1.383   .     S
C116   C899    1.395   1_554 S
C117   H156    1.101   .     S
C117   O172    1.407   .     S
C117   C118    1.516   .     S
C117   H157    1.117   .     S
C118   H158    1.109   .     S
C118   H134    1.110   .     S
C118   H135    1.110   .     S
C119   H136    1.101   .     S
C119   O162    1.407   .     S
C119   C120    1.516   .     S
C119   H137    1.117   .     S
C120   H140    1.110   .     S
C120   H138    1.109   .     S
C120   H139    1.110   .     S
C121   C122    1.520   .     S
C121   H141    1.116   .     S
C121   O163    1.416   .     S
C121   H142    1.114   .     S
C122   H145    1.110   .     S
C122   H146    1.110   .     S
C123   H148    1.114   .     S
C123   C124    1.520   .     S
C123   H147    1.116   .     S
C123   O164    1.416   .     S
C124   H150    1.110   .     S
C124   H151    1.110   .     S
C124   H235    1.109   .     S
C125   H144    1.082   .     S
C125   C890    1.395   .     S
C126   H152    1.083   .     S
C127   H153    1.083   .     S
C127   C130    1.401   .     A
C127   C215    1.384   .     S
C128   H154    1.083   .     S
C128   C130    1.401   .     A
C128   C212    1.384   .     S
C129   H155    1.083   .     S
Cu131  Cu132   2.720   .     S
Cu131  N159    2.044   .     S
Cu131  O168    1.964   .     S
Cu131  O170    1.964   .     S
Cu131  O161    1.967   .     S
Cu131  O166    1.967   .     S
Cu132  O165    1.967   .     S
Cu132  O171    1.964   .     S
Cu132  O167    1.967   .     S
Cu132  N160    2.044   .     S
Cu132  O169    1.964   .     S
H143   C208    1.109   .     S
Br173  C192    1.934   .     S
Br174  C193    1.934   .     S
Br175  C181    1.908   .     S
Br176  C182    1.928   .     S
Br177  C183    1.908   .     S
Br178  C184    1.928   .     S
C179   C180    1.454   .     S
C179   O247    1.304   .     A
C179   O253    1.305   .     A
C180   C215    1.401   .     A
C180   C212    1.401   .     A
C181   N246    1.378   .     A
C181   C700    1.425   1_545 S
C182   N245    1.373   .     A
C182   C441    1.425   .     S
C183   N246    1.378   .     A
C183   C698    1.425   1_545 S
C184   N245    1.373   .     A
C184   C439    1.425   .     S
C185   C191    1.457   .     S
C185   O254    1.298   .     A
C185   O257    1.311   .     A
C186   O256    1.298   .     A
C186   C189    1.457   .     S
C186   O255    1.311   .     A
C187   C198    1.400   .     A
C187   O258    1.386   .     S
C187   C189    1.409   .     A
C188   C199    1.400   .     A
C188   O248    1.386   .     S
C188   C191    1.409   .     A
C189   C192    1.406   .     A
C190   O251    1.305   .     A
C190   C216    1.454   .     S
C190   O252    1.304   .     A
C191   C193    1.406   .     A
C192   C194    1.414   .     A
C193   C195    1.414   .     A
C194   C196    1.419   .     A
C194   C200    1.416   .     A
C195   C202    1.416   .     A
C195   C197    1.419   .     A
C196   C198    1.409   .     A
C196   C971    1.412   .     S
C197   C199    1.409   .     A
C197   C970    1.412   1_554 S
C198   C211    1.400   .     A
C199   C201    1.400   .     A
C200   O249    1.383   .     S
C200   C975    1.395   .     S
C201   H219    1.082   .     S
C201   C974    1.395   1_554 S
C202   O250    1.383   .     S
C202   C985    1.395   1_554 S
C203   H242    1.101   .     S
C203   O258    1.407   .     S
C203   C204    1.516   .     S
C203   H243    1.117   .     S
C204   H244    1.109   .     S
C204   H220    1.110   .     S
C204   H221    1.110   .     S
C205   H222    1.101   .     S
C205   O248    1.407   .     S
C205   C206    1.516   .     S
C205   H223    1.117   .     S
C206   H226    1.110   .     S
C206   H224    1.109   .     S
C206   H225    1.110   .     S
C207   C208    1.520   .     S
C207   H227    1.116   .     S
C207   O249    1.416   .     S
C207   H228    1.114   .     S
C208   H231    1.110   .     S
C208   H232    1.110   .     S
C209   H234    1.114   .     S
C209   C210    1.520   .     S
C209   H233    1.116   .     S
C209   O250    1.416   .     S
C210   H236    1.110   .     S
C210   H237    1.110   .     S
C210   H63     1.109   1_655 S
C211   H230    1.082   .     S
C211   C976    1.395   .     S
C212   H238    1.083   .     S
C213   H239    1.083   .     S
C213   C216    1.401   .     A
C213   C43     1.384   1_655 S
C214   H240    1.083   .     S
C214   C216    1.401   .     A
C214   C40     1.384   1_655 S
C215   H241    1.083   .     S
Cu217  Cu218   2.720   .     S
Cu217  N245    2.044   .     S
Cu217  O254    1.964   .     S
Cu217  O256    1.964   .     S
Cu217  O247    1.967   .     S
Cu217  O252    1.967   .     S
Cu218  O251    1.967   .     S
Cu218  O257    1.964   .     S
Cu218  O253    1.967   .     S
Cu218  N246    2.044   .     S
Cu218  O255    1.964   .     S
H229   C36     1.109   1_655 S
Br259  C278    1.934   .     S
Br260  C279    1.934   .     S
Br261  C267    1.908   .     S
Br262  C268    1.928   .     S
Br263  C269    1.908   .     S
Br264  C270    1.928   .     S
C265   C266    1.454   .     S
C265   O333    1.304   .     A
C265   O339    1.305   .     A
C266   C301    1.401   .     A
C266   C298    1.401   .     A
C267   N332    1.378   .     A
C268   N331    1.373   .     A
C268   C527    1.425   .     S
C269   N332    1.378   .     A
C270   N331    1.373   .     A
C270   C525    1.425   .     S
C271   C277    1.457   .     S
C271   O340    1.298   .     A
C271   O343    1.311   .     A
C272   O342    1.298   .     A
C272   C275    1.457   .     S
C272   O341    1.311   .     A
C273   C284    1.400   .     A
C273   O344    1.386   .     S
C273   C275    1.409   .     A
C274   C285    1.400   .     A
C274   O334    1.386   .     S
C274   C277    1.409   .     A
C275   C278    1.406   .     A
C276   O337    1.305   .     A
C276   C302    1.454   .     S
C276   O338    1.304   .     A
C277   C279    1.406   .     A
C278   C280    1.414   .     A
C279   C281    1.414   .     A
C280   C282    1.419   .     A
C280   C286    1.416   .     A
C281   C288    1.416   .     A
C281   C283    1.419   .     A
C282   C284    1.409   .     A
C282   C1057   1.412   .     S
C283   C285    1.409   .     A
C283   C1056   1.412   1_554 S
C284   C297    1.400   .     A
C285   C287    1.400   .     A
C286   O335    1.383   .     S
C286   C1061   1.395   .     S
C287   H305    1.082   .     S
C287   C1060   1.395   1_554 S
C288   O336    1.383   .     S
C288   C1071   1.395   1_554 S
C289   H328    1.101   .     S
C289   O344    1.407   .     S
C289   C290    1.516   .     S
C289   H329    1.117   .     S
C290   H330    1.109   .     S
C290   H306    1.110   .     S
C290   H307    1.110   .     S
C291   H308    1.101   .     S
C291   O334    1.407   .     S
C291   C292    1.516   .     S
C291   H309    1.117   .     S
C292   H312    1.110   .     S
C292   H310    1.109   .     S
C292   H311    1.110   .     S
C293   C294    1.520   .     S
C293   H313    1.116   .     S
C293   O335    1.416   .     S
C293   H314    1.114   .     S
C294   H317    1.110   .     S
C294   H318    1.110   .     S
C294   H487    1.109   1_455 S
C295   H320    1.114   .     S
C295   C296    1.520   .     S
C295   H319    1.116   .     S
C295   O336    1.416   .     S
C296   H322    1.110   .     S
C296   H323    1.110   .     S
C296   H407    1.109   .     S
C297   H316    1.082   .     S
C297   C1062   1.395   .     S
C298   H324    1.083   .     S
C298   C472    1.384   1_455 S
C299   H325    1.083   .     S
C299   C302    1.401   .     A
C299   C387    1.384   .     S
C300   H326    1.083   .     S
C300   C302    1.401   .     A
C300   C384    1.384   .     S
C301   H327    1.083   .     S
C301   C471    1.384   1_455 S
Cu303  Cu304   2.720   .     S
Cu303  N331    2.044   .     S
Cu303  O340    1.964   .     S
Cu303  O342    1.964   .     S
Cu303  O333    1.967   .     S
Cu303  O338    1.967   .     S
Cu304  O337    1.967   .     S
Cu304  O343    1.964   .     S
Cu304  O339    1.967   .     S
Cu304  N332    2.044   .     S
Cu304  O341    1.964   .     S
H315   C380    1.109   .     S
H321   C468    1.109   1_455 S
Br345  C364    1.934   .     S
Br346  C365    1.934   .     S
Br347  C353    1.908   .     S
Br348  C354    1.928   .     S
Br349  C355    1.908   .     S
Br350  C356    1.928   .     S
C351   C352    1.454   .     S
C351   O419    1.304   .     A
C351   O425    1.305   .     A
C352   C387    1.401   .     A
C352   C384    1.401   .     A
C353   N418    1.378   .     A
C354   N417    1.373   .     A
C354   C613    1.425   .     S
C355   N418    1.378   .     A
C356   N417    1.373   .     A
C356   C611    1.425   .     S
C357   C363    1.457   .     S
C357   O426    1.298   .     A
C357   O429    1.311   .     A
C358   O428    1.298   .     A
C358   C361    1.457   .     S
C358   O427    1.311   .     A
C359   C370    1.400   .     A
C359   O430    1.386   .     S
C359   C361    1.409   .     A
C360   C371    1.400   .     A
C360   O420    1.386   .     S
C360   C363    1.409   .     A
C361   C364    1.406   .     A
C362   O423    1.305   .     A
C362   C388    1.454   .     S
C362   O424    1.304   .     A
C363   C365    1.406   .     A
C364   C366    1.414   .     A
C365   C367    1.414   .     A
C366   C368    1.419   .     A
C366   C372    1.416   .     A
C367   C374    1.416   .     A
C367   C369    1.419   .     A
C368   C370    1.409   .     A
C368   C1143   1.412   .     S
C369   C371    1.409   .     A
C369   C1142   1.412   1_554 S
C370   C383    1.400   .     A
C371   C373    1.400   .     A
C372   O421    1.383   .     S
C372   C1147   1.395   .     S
C373   H391    1.082   .     S
C373   C1146   1.395   1_554 S
C374   O422    1.383   .     S
C374   C1157   1.395   1_554 S
C375   H414    1.101   .     S
C375   O430    1.407   .     S
C375   C376    1.516   .     S
C375   H415    1.117   .     S
C376   H416    1.109   .     S
C376   H392    1.110   .     S
C376   H393    1.110   .     S
C377   H394    1.101   .     S
C377   O420    1.407   .     S
C377   C378    1.516   .     S
C377   H395    1.117   .     S
C378   H398    1.110   .     S
C378   H396    1.109   .     S
C378   H397    1.110   .     S
C379   C380    1.520   .     S
C379   H399    1.116   .     S
C379   O421    1.416   .     S
C379   H400    1.114   .     S
C380   H403    1.110   .     S
C380   H404    1.110   .     S
C381   H406    1.114   .     S
C381   C382    1.520   .     S
C381   H405    1.116   .     S
C381   O422    1.416   .     S
C382   H408    1.110   .     S
C382   H409    1.110   .     S
C382   H493    1.109   .     S
C383   H402    1.082   .     S
C383   C1148   1.395   .     S
C384   H410    1.083   .     S
C385   H411    1.083   .     S
C385   C388    1.401   .     A
C385   C473    1.384   .     S
C386   H412    1.083   .     S
C386   C388    1.401   .     A
C386   C470    1.384   .     S
C387   H413    1.083   .     S
Cu389  Cu390   2.720   .     S
Cu389  N417    2.044   .     S
Cu389  O426    1.964   .     S
Cu389  O428    1.964   .     S
Cu389  O419    1.967   .     S
Cu389  O424    1.967   .     S
Cu390  O423    1.967   .     S
Cu390  O429    1.964   .     S
Cu390  O425    1.967   .     S
Cu390  N418    2.044   .     S
Cu390  O427    1.964   .     S
H401   C466    1.109   .     S
Br431  C450    1.934   .     S
Br432  C451    1.934   .     S
Br433  C439    1.908   .     S
Br434  C440    1.928   .     S
Br435  C441    1.908   .     S
Br436  C442    1.928   .     S
C437   C438    1.454   .     S
C437   O505    1.304   .     A
C437   O511    1.305   .     A
C438   C473    1.401   .     A
C438   C470    1.401   .     A
C439   N504    1.378   .     A
C440   N503    1.373   .     A
C440   C699    1.425   .     S
C441   N504    1.378   .     A
C442   N503    1.373   .     A
C442   C697    1.425   .     S
C443   C449    1.457   .     S
C443   O512    1.298   .     A
C443   O515    1.311   .     A
C444   O514    1.298   .     A
C444   C447    1.457   .     S
C444   O513    1.311   .     A
C445   C456    1.400   .     A
C445   O516    1.386   .     S
C445   C447    1.409   .     A
C446   C457    1.400   .     A
C446   O506    1.386   .     S
C446   C449    1.409   .     A
C447   C450    1.406   .     A
C448   O509    1.305   .     A
C448   C474    1.454   .     S
C448   O510    1.304   .     A
C449   C451    1.406   .     A
C450   C452    1.414   .     A
C451   C453    1.414   .     A
C452   C454    1.419   .     A
C452   C458    1.416   .     A
C453   C460    1.416   .     A
C453   C455    1.419   .     A
C454   C456    1.409   .     A
C454   C1229   1.412   .     S
C455   C457    1.409   .     A
C455   C1228   1.412   1_554 S
C456   C469    1.400   .     A
C457   C459    1.400   .     A
C458   O507    1.383   .     S
C458   C1233   1.395   .     S
C459   H477    1.082   .     S
C459   C1232   1.395   1_554 S
C460   O508    1.383   .     S
C460   C1243   1.395   1_554 S
C461   H500    1.101   .     S
C461   O516    1.407   .     S
C461   C462    1.516   .     S
C461   H501    1.117   .     S
C462   H502    1.109   .     S
C462   H478    1.110   .     S
C462   H479    1.110   .     S
C463   H480    1.101   .     S
C463   O506    1.407   .     S
C463   C464    1.516   .     S
C463   H481    1.117   .     S
C464   H484    1.110   .     S
C464   H482    1.109   .     S
C464   H483    1.110   .     S
C465   C466    1.520   .     S
C465   H485    1.116   .     S
C465   O507    1.416   .     S
C465   H486    1.114   .     S
C466   H489    1.110   .     S
C466   H490    1.110   .     S
C467   H492    1.114   .     S
C467   C468    1.520   .     S
C467   H491    1.116   .     S
C467   O508    1.416   .     S
C468   H494    1.110   .     S
C468   H495    1.110   .     S
C468   H321    1.109   1_655 S
C469   H488    1.082   .     S
C469   C1234   1.395   .     S
C470   H496    1.083   .     S
C471   H497    1.083   .     S
C471   C474    1.401   .     A
C471   C301    1.384   1_655 S
C472   H498    1.083   .     S
C472   C474    1.401   .     A
C472   C298    1.384   1_655 S
C473   H499    1.083   .     S
Cu475  Cu476   2.720   .     S
Cu475  N503    2.044   .     S
Cu475  O512    1.964   .     S
Cu475  O514    1.964   .     S
Cu475  O505    1.967   .     S
Cu475  O510    1.967   .     S
Cu476  O509    1.967   .     S
Cu476  O515    1.964   .     S
Cu476  O511    1.967   .     S
Cu476  N504    2.044   .     S
Cu476  O513    1.964   .     S
H487   C294    1.109   1_655 S
Br517  C536    1.934   .     S
Br518  C537    1.934   .     S
Br519  C525    1.908   .     S
Br520  C526    1.928   .     S
Br521  C527    1.908   .     S
Br522  C528    1.928   .     S
C523   C524    1.454   .     S
C523   O591    1.304   .     A
C523   O597    1.305   .     A
C524   C559    1.401   .     A
C524   C556    1.401   .     A
C525   N590    1.378   .     A
C526   N589    1.373   .     A
C526   C11     1.425   1_565 S
C527   N590    1.378   .     A
C528   N589    1.373   .     A
C528   C9      1.425   1_565 S
C529   C535    1.457   .     S
C529   O598    1.298   .     A
C529   O601    1.311   .     A
C530   O600    1.298   .     A
C530   C533    1.457   .     S
C530   O599    1.311   .     A
C531   C542    1.400   .     A
C531   O602    1.386   .     S
C531   C533    1.409   .     A
C532   C543    1.400   .     A
C532   O592    1.386   .     S
C532   C535    1.409   .     A
C533   C536    1.406   .     A
C534   O595    1.305   .     A
C534   C560    1.454   .     S
C534   O596    1.304   .     A
C535   C537    1.406   .     A
C536   C538    1.414   .     A
C537   C539    1.414   .     A
C538   C540    1.419   .     A
C538   C544    1.416   .     A
C539   C546    1.416   .     A
C539   C541    1.419   .     A
C540   C542    1.409   .     A
C540   C1315   1.412   .     S
C541   C543    1.409   .     A
C541   C1314   1.412   1_554 S
C542   C555    1.400   .     A
C543   C545    1.400   .     A
C544   O593    1.383   .     S
C544   C1319   1.395   .     S
C545   H563    1.082   .     S
C545   C1318   1.395   1_554 S
C546   O594    1.383   .     S
C546   C1329   1.395   1_554 S
C547   H586    1.101   .     S
C547   O602    1.407   .     S
C547   C548    1.516   .     S
C547   H587    1.117   .     S
C548   H588    1.109   .     S
C548   H564    1.110   .     S
C548   H565    1.110   .     S
C549   H566    1.101   .     S
C549   O592    1.407   .     S
C549   C550    1.516   .     S
C549   H567    1.117   .     S
C550   H570    1.110   .     S
C550   H568    1.109   .     S
C550   H569    1.110   .     S
C551   C552    1.520   .     S
C551   H571    1.116   .     S
C551   O593    1.416   .     S
C551   H572    1.114   .     S
C552   H575    1.110   .     S
C552   H576    1.110   .     S
C552   H745    1.109   1_455 S
C553   H578    1.114   .     S
C553   C554    1.520   .     S
C553   H577    1.116   .     S
C553   O594    1.416   .     S
C554   H580    1.110   .     S
C554   H581    1.110   .     S
C554   H665    1.109   .     S
C555   H574    1.082   .     S
C555   C1320   1.395   .     S
C556   H582    1.083   .     S
C556   C730    1.384   1_455 S
C557   H583    1.083   .     S
C557   C560    1.401   .     A
C557   C645    1.384   .     S
C558   H584    1.083   .     S
C558   C560    1.401   .     A
C558   C642    1.384   .     S
C559   H585    1.083   .     S
C559   C729    1.384   1_455 S
Cu561  Cu562   2.720   .     S
Cu561  N589    2.044   .     S
Cu561  O598    1.964   .     S
Cu561  O600    1.964   .     S
Cu561  O591    1.967   .     S
Cu561  O596    1.967   .     S
Cu562  O595    1.967   .     S
Cu562  O601    1.964   .     S
Cu562  O597    1.967   .     S
Cu562  N590    2.044   .     S
Cu562  O599    1.964   .     S
H573   C638    1.109   .     S
H579   C726    1.109   1_455 S
Br603  C622    1.934   .     S
Br604  C623    1.934   .     S
Br605  C611    1.908   .     S
Br606  C612    1.928   .     S
Br607  C613    1.908   .     S
Br608  C614    1.928   .     S
C609   C610    1.454   .     S
C609   O677    1.304   .     A
C609   O683    1.305   .     A
C610   C645    1.401   .     A
C610   C642    1.401   .     A
C611   N676    1.378   .     A
C612   N675    1.373   .     A
C612   C97     1.425   1_565 S
C613   N676    1.378   .     A
C614   N675    1.373   .     A
C614   C95     1.425   1_565 S
C615   C621    1.457   .     S
C615   O684    1.298   .     A
C615   O687    1.311   .     A
C616   O686    1.298   .     A
C616   C619    1.457   .     S
C616   O685    1.311   .     A
C617   C628    1.400   .     A
C617   O688    1.386   .     S
C617   C619    1.409   .     A
C618   C629    1.400   .     A
C618   O678    1.386   .     S
C618   C621    1.409   .     A
C619   C622    1.406   .     A
C620   O681    1.305   .     A
C620   C646    1.454   .     S
C620   O682    1.304   .     A
C621   C623    1.406   .     A
C622   C624    1.414   .     A
C623   C625    1.414   .     A
C624   C626    1.419   .     A
C624   C630    1.416   .     A
C625   C632    1.416   .     A
C625   C627    1.419   .     A
C626   C628    1.409   .     A
C626   C1401   1.412   .     S
C627   C629    1.409   .     A
C627   C1400   1.412   1_554 S
C628   C641    1.400   .     A
C629   C631    1.400   .     A
C630   O679    1.383   .     S
C630   C1405   1.395   .     S
C631   H649    1.082   .     S
C631   C1404   1.395   1_554 S
C632   O680    1.383   .     S
C632   C1415   1.395   1_554 S
C633   H672    1.101   .     S
C633   O688    1.407   .     S
C633   C634    1.516   .     S
C633   H673    1.117   .     S
C634   H674    1.109   .     S
C634   H650    1.110   .     S
C634   H651    1.110   .     S
C635   H652    1.101   .     S
C635   O678    1.407   .     S
C635   C636    1.516   .     S
C635   H653    1.117   .     S
C636   H656    1.110   .     S
C636   H654    1.109   .     S
C636   H655    1.110   .     S
C637   C638    1.520   .     S
C637   H657    1.116   .     S
C637   O679    1.416   .     S
C637   H658    1.114   .     S
C638   H661    1.110   .     S
C638   H662    1.110   .     S
C639   H664    1.114   .     S
C639   C640    1.520   .     S
C639   H663    1.116   .     S
C639   O680    1.416   .     S
C640   H666    1.110   .     S
C640   H667    1.110   .     S
C640   H751    1.109   .     S
C641   H660    1.082   .     S
C641   C1406   1.395   .     S
C642   H668    1.083   .     S
C643   H669    1.083   .     S
C643   C646    1.401   .     A
C643   C731    1.384   .     S
C644   H670    1.083   .     S
C644   C646    1.401   .     A
C644   C728    1.384   .     S
C645   H671    1.083   .     S
Cu647  Cu648   2.720   .     S
Cu647  N675    2.044   .     S
Cu647  O684    1.964   .     S
Cu647  O686    1.964   .     S
Cu647  O677    1.967   .     S
Cu647  O682    1.967   .     S
Cu648  O681    1.967   .     S
Cu648  O687    1.964   .     S
Cu648  O683    1.967   .     S
Cu648  N676    2.044   .     S
Cu648  O685    1.964   .     S
H659   C724    1.109   .     S
Br689  C708    1.934   .     S
Br690  C709    1.934   .     S
Br691  C697    1.908   .     S
Br692  C698    1.928   .     S
Br693  C699    1.908   .     S
Br694  C700    1.928   .     S
C695   C696    1.454   .     S
C695   O763    1.304   .     A
C695   O769    1.305   .     A
C696   C731    1.401   .     A
C696   C728    1.401   .     A
C697   N762    1.378   .     A
C698   N761    1.373   .     A
C698   C183    1.425   1_565 S
C699   N762    1.378   .     A
C700   N761    1.373   .     A
C700   C181    1.425   1_565 S
C701   C707    1.457   .     S
C701   O770    1.298   .     A
C701   O773    1.311   .     A
C702   O772    1.298   .     A
C702   C705    1.457   .     S
C702   O771    1.311   .     A
C703   C714    1.400   .     A
C703   O774    1.386   .     S
C703   C705    1.409   .     A
C704   C715    1.400   .     A
C704   O764    1.386   .     S
C704   C707    1.409   .     A
C705   C708    1.406   .     A
C706   O767    1.305   .     A
C706   C732    1.454   .     S
C706   O768    1.304   .     A
C707   C709    1.406   .     A
C708   C710    1.414   .     A
C709   C711    1.414   .     A
C710   C712    1.419   .     A
C710   C716    1.416   .     A
C711   C718    1.416   .     A
C711   C713    1.419   .     A
C712   C714    1.409   .     A
C712   C1487   1.412   .     S
C713   C715    1.409   .     A
C713   C1486   1.412   1_554 S
C714   C727    1.400   .     A
C715   C717    1.400   .     A
C716   O765    1.383   .     S
C716   C1491   1.395   .     S
C717   H735    1.082   .     S
C717   C1490   1.395   1_554 S
C718   O766    1.383   .     S
C718   C1501   1.395   1_554 S
C719   H758    1.101   .     S
C719   O774    1.407   .     S
C719   C720    1.516   .     S
C719   H759    1.117   .     S
C720   H760    1.109   .     S
C720   H736    1.110   .     S
C720   H737    1.110   .     S
C721   H738    1.101   .     S
C721   O764    1.407   .     S
C721   C722    1.516   .     S
C721   H739    1.117   .     S
C722   H742    1.110   .     S
C722   H740    1.109   .     S
C722   H741    1.110   .     S
C723   C724    1.520   .     S
C723   H743    1.116   .     S
C723   O765    1.416   .     S
C723   H744    1.114   .     S
C724   H747    1.110   .     S
C724   H748    1.110   .     S
C725   H750    1.114   .     S
C725   C726    1.520   .     S
C725   H749    1.116   .     S
C725   O766    1.416   .     S
C726   H752    1.110   .     S
C726   H753    1.110   .     S
C726   H579    1.109   1_655 S
C727   H746    1.082   .     S
C727   C1492   1.395   .     S
C728   H754    1.083   .     S
C729   H755    1.083   .     S
C729   C732    1.401   .     A
C729   C559    1.384   1_655 S
C730   H756    1.083   .     S
C730   C732    1.401   .     A
C730   C556    1.384   1_655 S
C731   H757    1.083   .     S
Cu733  Cu734   2.720   .     S
Cu733  N761    2.044   .     S
Cu733  O770    1.964   .     S
Cu733  O772    1.964   .     S
Cu733  O763    1.967   .     S
Cu733  O768    1.967   .     S
Cu734  O767    1.967   .     S
Cu734  O773    1.964   .     S
Cu734  O769    1.967   .     S
Cu734  N762    2.044   .     S
Cu734  O771    1.964   .     S
H745   C552    1.109   1_655 S
Br775  C794    1.934   .     S
Br776  C795    1.934   .     S
Br777  C783    1.908   .     S
Br778  C784    1.928   .     S
Br779  C785    1.908   .     S
Br780  C786    1.928   .     S
C781   C782    1.454   .     S
C781   O849    1.304   .     A
C781   O855    1.305   .     A
C782   C817    1.401   .     A
C782   C814    1.401   .     A
C783   N848    1.378   .     A
C783   C1302   1.425   1_545 S
C784   N847    1.373   .     A
C784   C1043   1.425   .     S
C785   N848    1.378   .     A
C785   C1300   1.425   1_545 S
C786   N847    1.373   .     A
C786   C1041   1.425   .     S
C787   C793    1.457   .     S
C787   O856    1.298   .     A
C787   O859    1.311   .     A
C788   O858    1.298   .     A
C788   C791    1.457   .     S
C788   O857    1.311   .     A
C789   C800    1.400   .     A
C789   O860    1.386   .     S
C789   C791    1.409   .     A
C790   C801    1.400   .     A
C790   O850    1.386   .     S
C790   C793    1.409   .     A
C791   C794    1.406   .     A
C792   O853    1.305   .     A
C792   C818    1.454   .     S
C792   O854    1.304   .     A
C793   C795    1.406   .     A
C794   C796    1.414   .     A
C795   C797    1.414   .     A
C796   C798    1.419   .     A
C796   C802    1.416   .     A
C797   C804    1.416   .     A
C797   C799    1.419   .     A
C798   C800    1.409   .     A
C798   C25     1.412   1_556 S
C799   C801    1.409   .     A
C800   C813    1.400   .     A
C801   C803    1.400   .     A
C802   O851    1.383   .     S
C802   C29     1.395   1_556 S
C803   H821    1.082   .     S
C804   O852    1.383   .     S
C805   H844    1.101   .     S
C805   O860    1.407   .     S
C805   C806    1.516   .     S
C805   H845    1.117   .     S
C806   H846    1.109   .     S
C806   H822    1.110   .     S
C806   H823    1.110   .     S
C807   H824    1.101   .     S
C807   O850    1.407   .     S
C807   C808    1.516   .     S
C807   H825    1.117   .     S
C808   H828    1.110   .     S
C808   H826    1.109   .     S
C808   H827    1.110   .     S
C809   C810    1.520   .     S
C809   H829    1.116   .     S
C809   O851    1.416   .     S
C809   H830    1.114   .     S
C810   H833    1.110   .     S
C810   H834    1.110   .     S
C810   H1003   1.109   1_455 S
C811   H836    1.114   .     S
C811   C812    1.520   .     S
C811   H835    1.116   .     S
C811   O852    1.416   .     S
C812   H838    1.110   .     S
C812   H839    1.110   .     S
C812   H923    1.109   .     S
C813   H832    1.082   .     S
C813   C30     1.395   1_556 S
C814   H840    1.083   .     S
C814   C988    1.384   1_455 S
C815   H841    1.083   .     S
C815   C818    1.401   .     A
C815   C903    1.384   .     S
C816   H842    1.083   .     S
C816   C818    1.401   .     A
C816   C900    1.384   .     S
C817   H843    1.083   .     S
C817   C987    1.384   1_455 S
Cu819  Cu820   2.720   .     S
Cu819  N847    2.044   .     S
Cu819  O856    1.964   .     S
Cu819  O858    1.964   .     S
Cu819  O849    1.967   .     S
Cu819  O854    1.967   .     S
Cu820  O853    1.967   .     S
Cu820  O859    1.964   .     S
Cu820  O855    1.967   .     S
Cu820  N848    2.044   .     S
Cu820  O857    1.964   .     S
H831   C896    1.109   .     S
H837   C984    1.109   1_455 S
Br861  C880    1.934   .     S
Br862  C881    1.934   .     S
Br863  C869    1.908   .     S
Br864  C870    1.928   .     S
Br865  C871    1.908   .     S
Br866  C872    1.928   .     S
C867   C868    1.454   .     S
C867   O935    1.304   .     A
C867   O941    1.305   .     A
C868   C903    1.401   .     A
C868   C900    1.401   .     A
C869   N934    1.378   .     A
C869   C1388   1.425   1_545 S
C870   N933    1.373   .     A
C870   C1129   1.425   .     S
C871   N934    1.378   .     A
C871   C1386   1.425   1_545 S
C872   N933    1.373   .     A
C872   C1127   1.425   .     S
C873   C879    1.457   .     S
C873   O942    1.298   .     A
C873   O945    1.311   .     A
C874   O944    1.298   .     A
C874   C877    1.457   .     S
C874   O943    1.311   .     A
C875   C886    1.400   .     A
C875   O946    1.386   .     S
C875   C877    1.409   .     A
C876   C887    1.400   .     A
C876   O936    1.386   .     S
C876   C879    1.409   .     A
C877   C880    1.406   .     A
C878   O939    1.305   .     A
C878   C904    1.454   .     S
C878   O940    1.304   .     A
C879   C881    1.406   .     A
C880   C882    1.414   .     A
C881   C883    1.414   .     A
C882   C884    1.419   .     A
C882   C888    1.416   .     A
C883   C890    1.416   .     A
C883   C885    1.419   .     A
C884   C886    1.409   .     A
C884   C111    1.412   1_556 S
C885   C887    1.409   .     A
C886   C899    1.400   .     A
C887   C889    1.400   .     A
C888   O937    1.383   .     S
C888   C115    1.395   1_556 S
C889   H907    1.082   .     S
C890   O938    1.383   .     S
C891   H930    1.101   .     S
C891   O946    1.407   .     S
C891   C892    1.516   .     S
C891   H931    1.117   .     S
C892   H932    1.109   .     S
C892   H908    1.110   .     S
C892   H909    1.110   .     S
C893   H910    1.101   .     S
C893   O936    1.407   .     S
C893   C894    1.516   .     S
C893   H911    1.117   .     S
C894   H914    1.110   .     S
C894   H912    1.109   .     S
C894   H913    1.110   .     S
C895   C896    1.520   .     S
C895   H915    1.116   .     S
C895   O937    1.416   .     S
C895   H916    1.114   .     S
C896   H919    1.110   .     S
C896   H920    1.110   .     S
C897   H922    1.114   .     S
C897   C898    1.520   .     S
C897   H921    1.116   .     S
C897   O938    1.416   .     S
C898   H924    1.110   .     S
C898   H925    1.110   .     S
C898   H1009   1.109   .     S
C899   H918    1.082   .     S
C899   C116    1.395   1_556 S
C900   H926    1.083   .     S
C901   H927    1.083   .     S
C901   C904    1.401   .     A
C901   C989    1.384   .     S
C902   H928    1.083   .     S
C902   C904    1.401   .     A
C902   C986    1.384   .     S
C903   H929    1.083   .     S
Cu905  Cu906   2.720   .     S
Cu905  N933    2.044   .     S
Cu905  O942    1.964   .     S
Cu905  O944    1.964   .     S
Cu905  O935    1.967   .     S
Cu905  O940    1.967   .     S
Cu906  O939    1.967   .     S
Cu906  O945    1.964   .     S
Cu906  O941    1.967   .     S
Cu906  N934    2.044   .     S
Cu906  O943    1.964   .     S
H917   C982    1.109   .     S
Br947  C966    1.934   .     S
Br948  C967    1.934   .     S
Br949  C955    1.908   .     S
Br950  C956    1.928   .     S
Br951  C957    1.908   .     S
Br952  C958    1.928   .     S
C953   C954    1.454   .     S
C953   O1021   1.304   .     A
C953   O1027   1.305   .     A
C954   C989    1.401   .     A
C954   C986    1.401   .     A
C955   N1020   1.378   .     A
C955   C1474   1.425   1_545 S
C956   N1019   1.373   .     A
C956   C1215   1.425   .     S
C957   N1020   1.378   .     A
C957   C1472   1.425   1_545 S
C958   N1019   1.373   .     A
C958   C1213   1.425   .     S
C959   C965    1.457   .     S
C959   O1028   1.298   .     A
C959   O1031   1.311   .     A
C960   O1030   1.298   .     A
C960   C963    1.457   .     S
C960   O1029   1.311   .     A
C961   C972    1.400   .     A
C961   O1032   1.386   .     S
C961   C963    1.409   .     A
C962   C973    1.400   .     A
C962   O1022   1.386   .     S
C962   C965    1.409   .     A
C963   C966    1.406   .     A
C964   O1025   1.305   .     A
C964   C990    1.454   .     S
C964   O1026   1.304   .     A
C965   C967    1.406   .     A
C966   C968    1.414   .     A
C967   C969    1.414   .     A
C968   C970    1.419   .     A
C968   C974    1.416   .     A
C969   C976    1.416   .     A
C969   C971    1.419   .     A
C970   C972    1.409   .     A
C970   C197    1.412   1_556 S
C971   C973    1.409   .     A
C972   C985    1.400   .     A
C973   C975    1.400   .     A
C974   O1023   1.383   .     S
C974   C201    1.395   1_556 S
C975   H993    1.082   .     S
C976   O1024   1.383   .     S
C977   H1016   1.101   .     S
C977   O1032   1.407   .     S
C977   C978    1.516   .     S
C977   H1017   1.117   .     S
C978   H1018   1.109   .     S
C978   H994    1.110   .     S
C978   H995    1.110   .     S
C979   H996    1.101   .     S
C979   O1022   1.407   .     S
C979   C980    1.516   .     S
C979   H997    1.117   .     S
C980   H1000   1.110   .     S
C980   H998    1.109   .     S
C980   H999    1.110   .     S
C981   C982    1.520   .     S
C981   H1001   1.116   .     S
C981   O1023   1.416   .     S
C981   H1002   1.114   .     S
C982   H1005   1.110   .     S
C982   H1006   1.110   .     S
C983   H1008   1.114   .     S
C983   C984    1.520   .     S
C983   H1007   1.116   .     S
C983   O1024   1.416   .     S
C984   H1010   1.110   .     S
C984   H1011   1.110   .     S
C984   H837    1.109   1_655 S
C985   H1004   1.082   .     S
C985   C202    1.395   1_556 S
C986   H1012   1.083   .     S
C987   H1013   1.083   .     S
C987   C990    1.401   .     A
C987   C817    1.384   1_655 S
C988   H1014   1.083   .     S
C988   C990    1.401   .     A
C988   C814    1.384   1_655 S
C989   H1015   1.083   .     S
Cu991  Cu992   2.720   .     S
Cu991  N1019   2.044   .     S
Cu991  O1028   1.964   .     S
Cu991  O1030   1.964   .     S
Cu991  O1021   1.967   .     S
Cu991  O1026   1.967   .     S
Cu992  O1025   1.967   .     S
Cu992  O1031   1.964   .     S
Cu992  O1027   1.967   .     S
Cu992  N1020   2.044   .     S
Cu992  O1029   1.964   .     S
H1003  C810    1.109   1_655 S
Br1033 C1052   1.934   .     S
Br1034 C1053   1.934   .     S
Br1035 C1041   1.908   .     S
Br1036 C1042   1.928   .     S
Br1037 C1043   1.908   .     S
Br1038 C1044   1.928   .     S
C1039  C1040   1.454   .     S
C1039  O1107   1.304   .     A
C1039  O1113   1.305   .     A
C1040  C1075   1.401   .     A
C1040  C1072   1.401   .     A
C1041  N1106   1.378   .     A
C1042  N1105   1.373   .     A
C1042  C1301   1.425   .     S
C1043  N1106   1.378   .     A
C1044  N1105   1.373   .     A
C1044  C1299   1.425   .     S
C1045  C1051   1.457   .     S
C1045  O1114   1.298   .     A
C1045  O1117   1.311   .     A
C1046  O1116   1.298   .     A
C1046  C1049   1.457   .     S
C1046  O1115   1.311   .     A
C1047  C1058   1.400   .     A
C1047  O1118   1.386   .     S
C1047  C1049   1.409   .     A
C1048  C1059   1.400   .     A
C1048  O1108   1.386   .     S
C1048  C1051   1.409   .     A
C1049  C1052   1.406   .     A
C1050  O1111   1.305   .     A
C1050  C1076   1.454   .     S
C1050  O1112   1.304   .     A
C1051  C1053   1.406   .     A
C1052  C1054   1.414   .     A
C1053  C1055   1.414   .     A
C1054  C1056   1.419   .     A
C1054  C1060   1.416   .     A
C1055  C1062   1.416   .     A
C1055  C1057   1.419   .     A
C1056  C1058   1.409   .     A
C1056  C283    1.412   1_556 S
C1057  C1059   1.409   .     A
C1058  C1071   1.400   .     A
C1059  C1061   1.400   .     A
C1060  O1109   1.383   .     S
C1060  C287    1.395   1_556 S
C1061  H1079   1.082   .     S
C1062  O1110   1.383   .     S
C1063  H1102   1.101   .     S
C1063  O1118   1.407   .     S
C1063  C1064   1.516   .     S
C1063  H1103   1.117   .     S
C1064  H1104   1.109   .     S
C1064  H1080   1.110   .     S
C1064  H1081   1.110   .     S
C1065  H1082   1.101   .     S
C1065  O1108   1.407   .     S
C1065  C1066   1.516   .     S
C1065  H1083   1.117   .     S
C1066  H1086   1.110   .     S
C1066  H1084   1.109   .     S
C1066  H1085   1.110   .     S
C1067  C1068   1.520   .     S
C1067  H1087   1.116   .     S
C1067  O1109   1.416   .     S
C1067  H1088   1.114   .     S
C1068  H1091   1.110   .     S
C1068  H1092   1.110   .     S
C1068  H1261   1.109   1_455 S
C1069  H1094   1.114   .     S
C1069  C1070   1.520   .     S
C1069  H1093   1.116   .     S
C1069  O1110   1.416   .     S
C1070  H1096   1.110   .     S
C1070  H1097   1.110   .     S
C1070  H1181   1.109   .     S
C1071  H1090   1.082   .     S
C1071  C288    1.395   1_556 S
C1072  H1098   1.083   .     S
C1072  C1246   1.384   1_455 S
C1073  H1099   1.083   .     S
C1073  C1076   1.401   .     A
C1073  C1161   1.384   .     S
C1074  H1100   1.083   .     S
C1074  C1076   1.401   .     A
C1074  C1158   1.384   .     S
C1075  H1101   1.083   .     S
C1075  C1245   1.384   1_455 S
Cu1077 Cu1078  2.720   .     S
Cu1077 N1105   2.044   .     S
Cu1077 O1114   1.964   .     S
Cu1077 O1116   1.964   .     S
Cu1077 O1107   1.967   .     S
Cu1077 O1112   1.967   .     S
Cu1078 O1111   1.967   .     S
Cu1078 O1117   1.964   .     S
Cu1078 O1113   1.967   .     S
Cu1078 N1106   2.044   .     S
Cu1078 O1115   1.964   .     S
H1089  C1154   1.109   .     S
H1095  C1242   1.109   1_455 S
Br1119 C1138   1.934   .     S
Br1120 C1139   1.934   .     S
Br1121 C1127   1.908   .     S
Br1122 C1128   1.928   .     S
Br1123 C1129   1.908   .     S
Br1124 C1130   1.928   .     S
C1125  C1126   1.454   .     S
C1125  O1193   1.304   .     A
C1125  O1199   1.305   .     A
C1126  C1161   1.401   .     A
C1126  C1158   1.401   .     A
C1127  N1192   1.378   .     A
C1128  N1191   1.373   .     A
C1128  C1387   1.425   .     S
C1129  N1192   1.378   .     A
C1130  N1191   1.373   .     A
C1130  C1385   1.425   .     S
C1131  C1137   1.457   .     S
C1131  O1200   1.298   .     A
C1131  O1203   1.311   .     A
C1132  O1202   1.298   .     A
C1132  C1135   1.457   .     S
C1132  O1201   1.311   .     A
C1133  C1144   1.400   .     A
C1133  O1204   1.386   .     S
C1133  C1135   1.409   .     A
C1134  C1145   1.400   .     A
C1134  O1194   1.386   .     S
C1134  C1137   1.409   .     A
C1135  C1138   1.406   .     A
C1136  O1197   1.305   .     A
C1136  C1162   1.454   .     S
C1136  O1198   1.304   .     A
C1137  C1139   1.406   .     A
C1138  C1140   1.414   .     A
C1139  C1141   1.414   .     A
C1140  C1142   1.419   .     A
C1140  C1146   1.416   .     A
C1141  C1148   1.416   .     A
C1141  C1143   1.419   .     A
C1142  C1144   1.409   .     A
C1142  C369    1.412   1_556 S
C1143  C1145   1.409   .     A
C1144  C1157   1.400   .     A
C1145  C1147   1.400   .     A
C1146  O1195   1.383   .     S
C1146  C373    1.395   1_556 S
C1147  H1165   1.082   .     S
C1148  O1196   1.383   .     S
C1149  H1188   1.101   .     S
C1149  O1204   1.407   .     S
C1149  C1150   1.516   .     S
C1149  H1189   1.117   .     S
C1150  H1190   1.109   .     S
C1150  H1166   1.110   .     S
C1150  H1167   1.110   .     S
C1151  H1168   1.101   .     S
C1151  O1194   1.407   .     S
C1151  C1152   1.516   .     S
C1151  H1169   1.117   .     S
C1152  H1172   1.110   .     S
C1152  H1170   1.109   .     S
C1152  H1171   1.110   .     S
C1153  C1154   1.520   .     S
C1153  H1173   1.116   .     S
C1153  O1195   1.416   .     S
C1153  H1174   1.114   .     S
C1154  H1177   1.110   .     S
C1154  H1178   1.110   .     S
C1155  H1180   1.114   .     S
C1155  C1156   1.520   .     S
C1155  H1179   1.116   .     S
C1155  O1196   1.416   .     S
C1156  H1182   1.110   .     S
C1156  H1183   1.110   .     S
C1156  H1267   1.109   .     S
C1157  H1176   1.082   .     S
C1157  C374    1.395   1_556 S
C1158  H1184   1.083   .     S
C1159  H1185   1.083   .     S
C1159  C1162   1.401   .     A
C1159  C1247   1.384   .     S
C1160  H1186   1.083   .     S
C1160  C1162   1.401   .     A
C1160  C1244   1.384   .     S
C1161  H1187   1.083   .     S
Cu1163 Cu1164  2.720   .     S
Cu1163 N1191   2.044   .     S
Cu1163 O1200   1.964   .     S
Cu1163 O1202   1.964   .     S
Cu1163 O1193   1.967   .     S
Cu1163 O1198   1.967   .     S
Cu1164 O1197   1.967   .     S
Cu1164 O1203   1.964   .     S
Cu1164 O1199   1.967   .     S
Cu1164 N1192   2.044   .     S
Cu1164 O1201   1.964   .     S
H1175  C1240   1.109   .     S
Br1205 C1224   1.934   .     S
Br1206 C1225   1.934   .     S
Br1207 C1213   1.908   .     S
Br1208 C1214   1.928   .     S
Br1209 C1215   1.908   .     S
Br1210 C1216   1.928   .     S
C1211  C1212   1.454   .     S
C1211  O1279   1.304   .     A
C1211  O1285   1.305   .     A
C1212  C1247   1.401   .     A
C1212  C1244   1.401   .     A
C1213  N1278   1.378   .     A
C1214  N1277   1.373   .     A
C1214  C1473   1.425   .     S
C1215  N1278   1.378   .     A
C1216  N1277   1.373   .     A
C1216  C1471   1.425   .     S
C1217  C1223   1.457   .     S
C1217  O1286   1.298   .     A
C1217  O1289   1.311   .     A
C1218  O1288   1.298   .     A
C1218  C1221   1.457   .     S
C1218  O1287   1.311   .     A
C1219  C1230   1.400   .     A
C1219  O1290   1.386   .     S
C1219  C1221   1.409   .     A
C1220  C1231   1.400   .     A
C1220  O1280   1.386   .     S
C1220  C1223   1.409   .     A
C1221  C1224   1.406   .     A
C1222  O1283   1.305   .     A
C1222  C1248   1.454   .     S
C1222  O1284   1.304   .     A
C1223  C1225   1.406   .     A
C1224  C1226   1.414   .     A
C1225  C1227   1.414   .     A
C1226  C1228   1.419   .     A
C1226  C1232   1.416   .     A
C1227  C1234   1.416   .     A
C1227  C1229   1.419   .     A
C1228  C1230   1.409   .     A
C1228  C455    1.412   1_556 S
C1229  C1231   1.409   .     A
C1230  C1243   1.400   .     A
C1231  C1233   1.400   .     A
C1232  O1281   1.383   .     S
C1232  C459    1.395   1_556 S
C1233  H1251   1.082   .     S
C1234  O1282   1.383   .     S
C1235  H1274   1.101   .     S
C1235  O1290   1.407   .     S
C1235  C1236   1.516   .     S
C1235  H1275   1.117   .     S
C1236  H1276   1.109   .     S
C1236  H1252   1.110   .     S
C1236  H1253   1.110   .     S
C1237  H1254   1.101   .     S
C1237  O1280   1.407   .     S
C1237  C1238   1.516   .     S
C1237  H1255   1.117   .     S
C1238  H1258   1.110   .     S
C1238  H1256   1.109   .     S
C1238  H1257   1.110   .     S
C1239  C1240   1.520   .     S
C1239  H1259   1.116   .     S
C1239  O1281   1.416   .     S
C1239  H1260   1.114   .     S
C1240  H1263   1.110   .     S
C1240  H1264   1.110   .     S
C1241  H1266   1.114   .     S
C1241  C1242   1.520   .     S
C1241  H1265   1.116   .     S
C1241  O1282   1.416   .     S
C1242  H1268   1.110   .     S
C1242  H1269   1.110   .     S
C1242  H1095   1.109   1_655 S
C1243  H1262   1.082   .     S
C1243  C460    1.395   1_556 S
C1244  H1270   1.083   .     S
C1245  H1271   1.083   .     S
C1245  C1248   1.401   .     A
C1245  C1075   1.384   1_655 S
C1246  H1272   1.083   .     S
C1246  C1248   1.401   .     A
C1246  C1072   1.384   1_655 S
C1247  H1273   1.083   .     S
Cu1249 Cu1250  2.720   .     S
Cu1249 N1277   2.044   .     S
Cu1249 O1286   1.964   .     S
Cu1249 O1288   1.964   .     S
Cu1249 O1279   1.967   .     S
Cu1249 O1284   1.967   .     S
Cu1250 O1283   1.967   .     S
Cu1250 O1289   1.964   .     S
Cu1250 O1285   1.967   .     S
Cu1250 N1278   2.044   .     S
Cu1250 O1287   1.964   .     S
H1261  C1068   1.109   1_655 S
Br1291 C1310   1.934   .     S
Br1292 C1311   1.934   .     S
Br1293 C1299   1.908   .     S
Br1294 C1300   1.928   .     S
Br1295 C1301   1.908   .     S
Br1296 C1302   1.928   .     S
C1297  C1298   1.454   .     S
C1297  O1365   1.304   .     A
C1297  O1371   1.305   .     A
C1298  C1333   1.401   .     A
C1298  C1330   1.401   .     A
C1299  N1364   1.378   .     A
C1300  N1363   1.373   .     A
C1300  C785    1.425   1_565 S
C1301  N1364   1.378   .     A
C1302  N1363   1.373   .     A
C1302  C783    1.425   1_565 S
C1303  C1309   1.457   .     S
C1303  O1372   1.298   .     A
C1303  O1375   1.311   .     A
C1304  O1374   1.298   .     A
C1304  C1307   1.457   .     S
C1304  O1373   1.311   .     A
C1305  C1316   1.400   .     A
C1305  O1376   1.386   .     S
C1305  C1307   1.409   .     A
C1306  C1317   1.400   .     A
C1306  O1366   1.386   .     S
C1306  C1309   1.409   .     A
C1307  C1310   1.406   .     A
C1308  O1369   1.305   .     A
C1308  C1334   1.454   .     S
C1308  O1370   1.304   .     A
C1309  C1311   1.406   .     A
C1310  C1312   1.414   .     A
C1311  C1313   1.414   .     A
C1312  C1314   1.419   .     A
C1312  C1318   1.416   .     A
C1313  C1320   1.416   .     A
C1313  C1315   1.419   .     A
C1314  C1316   1.409   .     A
C1314  C541    1.412   1_556 S
C1315  C1317   1.409   .     A
C1316  C1329   1.400   .     A
C1317  C1319   1.400   .     A
C1318  O1367   1.383   .     S
C1318  C545    1.395   1_556 S
C1319  H1337   1.082   .     S
C1320  O1368   1.383   .     S
C1321  H1360   1.101   .     S
C1321  O1376   1.407   .     S
C1321  C1322   1.516   .     S
C1321  H1361   1.117   .     S
C1322  H1362   1.109   .     S
C1322  H1338   1.110   .     S
C1322  H1339   1.110   .     S
C1323  H1340   1.101   .     S
C1323  O1366   1.407   .     S
C1323  C1324   1.516   .     S
C1323  H1341   1.117   .     S
C1324  H1344   1.110   .     S
C1324  H1342   1.109   .     S
C1324  H1343   1.110   .     S
C1325  C1326   1.520   .     S
C1325  H1345   1.116   .     S
C1325  O1367   1.416   .     S
C1325  H1346   1.114   .     S
C1326  H1349   1.110   .     S
C1326  H1350   1.110   .     S
C1326  H1519   1.109   1_455 S
C1327  H1352   1.114   .     S
C1327  C1328   1.520   .     S
C1327  H1351   1.116   .     S
C1327  O1368   1.416   .     S
C1328  H1354   1.110   .     S
C1328  H1355   1.110   .     S
C1328  H1439   1.109   .     S
C1329  H1348   1.082   .     S
C1329  C546    1.395   1_556 S
C1330  H1356   1.083   .     S
C1330  C1504   1.384   1_455 S
C1331  H1357   1.083   .     S
C1331  C1334   1.401   .     A
C1331  C1419   1.384   .     S
C1332  H1358   1.083   .     S
C1332  C1334   1.401   .     A
C1332  C1416   1.384   .     S
C1333  H1359   1.083   .     S
C1333  C1503   1.384   1_455 S
Cu1335 Cu1336  2.720   .     S
Cu1335 N1363   2.044   .     S
Cu1335 O1372   1.964   .     S
Cu1335 O1374   1.964   .     S
Cu1335 O1365   1.967   .     S
Cu1335 O1370   1.967   .     S
Cu1336 O1369   1.967   .     S
Cu1336 O1375   1.964   .     S
Cu1336 O1371   1.967   .     S
Cu1336 N1364   2.044   .     S
Cu1336 O1373   1.964   .     S
H1347  C1412   1.109   .     S
H1353  C1500   1.109   1_455 S
Br1377 C1396   1.934   .     S
Br1378 C1397   1.934   .     S
Br1379 C1385   1.908   .     S
Br1380 C1386   1.928   .     S
Br1381 C1387   1.908   .     S
Br1382 C1388   1.928   .     S
C1383  C1384   1.454   .     S
C1383  O1451   1.304   .     A
C1383  O1457   1.305   .     A
C1384  C1419   1.401   .     A
C1384  C1416   1.401   .     A
C1385  N1450   1.378   .     A
C1386  N1449   1.373   .     A
C1386  C871    1.425   1_565 S
C1387  N1450   1.378   .     A
C1388  N1449   1.373   .     A
C1388  C869    1.425   1_565 S
C1389  C1395   1.457   .     S
C1389  O1458   1.298   .     A
C1389  O1461   1.311   .     A
C1390  O1460   1.298   .     A
C1390  C1393   1.457   .     S
C1390  O1459   1.311   .     A
C1391  C1402   1.400   .     A
C1391  O1462   1.386   .     S
C1391  C1393   1.409   .     A
C1392  C1403   1.400   .     A
C1392  O1452   1.386   .     S
C1392  C1395   1.409   .     A
C1393  C1396   1.406   .     A
C1394  O1455   1.305   .     A
C1394  C1420   1.454   .     S
C1394  O1456   1.304   .     A
C1395  C1397   1.406   .     A
C1396  C1398   1.414   .     A
C1397  C1399   1.414   .     A
C1398  C1400   1.419   .     A
C1398  C1404   1.416   .     A
C1399  C1406   1.416   .     A
C1399  C1401   1.419   .     A
C1400  C1402   1.409   .     A
C1400  C627    1.412   1_556 S
C1401  C1403   1.409   .     A
C1402  C1415   1.400   .     A
C1403  C1405   1.400   .     A
C1404  O1453   1.383   .     S
C1404  C631    1.395   1_556 S
C1405  H1423   1.082   .     S
C1406  O1454   1.383   .     S
C1407  H1446   1.101   .     S
C1407  O1462   1.407   .     S
C1407  C1408   1.516   .     S
C1407  H1447   1.117   .     S
C1408  H1448   1.109   .     S
C1408  H1424   1.110   .     S
C1408  H1425   1.110   .     S
C1409  H1426   1.101   .     S
C1409  O1452   1.407   .     S
C1409  C1410   1.516   .     S
C1409  H1427   1.117   .     S
C1410  H1430   1.110   .     S
C1410  H1428   1.109   .     S
C1410  H1429   1.110   .     S
C1411  C1412   1.520   .     S
C1411  H1431   1.116   .     S
C1411  O1453   1.416   .     S
C1411  H1432   1.114   .     S
C1412  H1435   1.110   .     S
C1412  H1436   1.110   .     S
C1413  H1438   1.114   .     S
C1413  C1414   1.520   .     S
C1413  H1437   1.116   .     S
C1413  O1454   1.416   .     S
C1414  H1440   1.110   .     S
C1414  H1441   1.110   .     S
C1414  H1525   1.109   .     S
C1415  H1434   1.082   .     S
C1415  C632    1.395   1_556 S
C1416  H1442   1.083   .     S
C1417  H1443   1.083   .     S
C1417  C1420   1.401   .     A
C1417  C1505   1.384   .     S
C1418  H1444   1.083   .     S
C1418  C1420   1.401   .     A
C1418  C1502   1.384   .     S
C1419  H1445   1.083   .     S
Cu1421 Cu1422  2.720   .     S
Cu1421 N1449   2.044   .     S
Cu1421 O1458   1.964   .     S
Cu1421 O1460   1.964   .     S
Cu1421 O1451   1.967   .     S
Cu1421 O1456   1.967   .     S
Cu1422 O1455   1.967   .     S
Cu1422 O1461   1.964   .     S
Cu1422 O1457   1.967   .     S
Cu1422 N1450   2.044   .     S
Cu1422 O1459   1.964   .     S
H1433  C1498   1.109   .     S
Br1463 C1482   1.934   .     S
Br1464 C1483   1.934   .     S
Br1465 C1471   1.908   .     S
Br1466 C1472   1.928   .     S
Br1467 C1473   1.908   .     S
Br1468 C1474   1.928   .     S
C1469  C1470   1.454   .     S
C1469  O1537   1.304   .     A
C1469  O1543   1.305   .     A
C1470  C1505   1.401   .     A
C1470  C1502   1.401   .     A
C1471  N1536   1.378   .     A
C1472  N1535   1.373   .     A
C1472  C957    1.425   1_565 S
C1473  N1536   1.378   .     A
C1474  N1535   1.373   .     A
C1474  C955    1.425   1_565 S
C1475  C1481   1.457   .     S
C1475  O1544   1.298   .     A
C1475  O1547   1.311   .     A
C1476  O1546   1.298   .     A
C1476  C1479   1.457   .     S
C1476  O1545   1.311   .     A
C1477  C1488   1.400   .     A
C1477  O1548   1.386   .     S
C1477  C1479   1.409   .     A
C1478  C1489   1.400   .     A
C1478  O1538   1.386   .     S
C1478  C1481   1.409   .     A
C1479  C1482   1.406   .     A
C1480  O1541   1.305   .     A
C1480  C1506   1.454   .     S
C1480  O1542   1.304   .     A
C1481  C1483   1.406   .     A
C1482  C1484   1.414   .     A
C1483  C1485   1.414   .     A
C1484  C1486   1.419   .     A
C1484  C1490   1.416   .     A
C1485  C1492   1.416   .     A
C1485  C1487   1.419   .     A
C1486  C1488   1.409   .     A
C1486  C713    1.412   1_556 S
C1487  C1489   1.409   .     A
C1488  C1501   1.400   .     A
C1489  C1491   1.400   .     A
C1490  O1539   1.383   .     S
C1490  C717    1.395   1_556 S
C1491  H1509   1.082   .     S
C1492  O1540   1.383   .     S
C1493  H1532   1.101   .     S
C1493  O1548   1.407   .     S
C1493  C1494   1.516   .     S
C1493  H1533   1.117   .     S
C1494  H1534   1.109   .     S
C1494  H1510   1.110   .     S
C1494  H1511   1.110   .     S
C1495  H1512   1.101   .     S
C1495  O1538   1.407   .     S
C1495  C1496   1.516   .     S
C1495  H1513   1.117   .     S
C1496  H1516   1.110   .     S
C1496  H1514   1.109   .     S
C1496  H1515   1.110   .     S
C1497  C1498   1.520   .     S
C1497  H1517   1.116   .     S
C1497  O1539   1.416   .     S
C1497  H1518   1.114   .     S
C1498  H1521   1.110   .     S
C1498  H1522   1.110   .     S
C1499  H1524   1.114   .     S
C1499  C1500   1.520   .     S
C1499  H1523   1.116   .     S
C1499  O1540   1.416   .     S
C1500  H1526   1.110   .     S
C1500  H1527   1.110   .     S
C1500  H1353   1.109   1_655 S
C1501  H1520   1.082   .     S
C1501  C718    1.395   1_556 S
C1502  H1528   1.083   .     S
C1503  H1529   1.083   .     S
C1503  C1506   1.401   .     A
C1503  C1333   1.384   1_655 S
C1504  H1530   1.083   .     S
C1504  C1506   1.401   .     A
C1504  C1330   1.384   1_655 S
C1505  H1531   1.083   .     S
Cu1507 Cu1508  2.720   .     S
Cu1507 N1535   2.044   .     S
Cu1507 O1544   1.964   .     S
Cu1507 O1546   1.964   .     S
Cu1507 O1537   1.967   .     S
Cu1507 O1542   1.967   .     S
Cu1508 O1541   1.967   .     S
Cu1508 O1547   1.964   .     S
Cu1508 O1543   1.967   .     S
Cu1508 N1536   2.044   .     S
Cu1508 O1545   1.964   .     S
H1519  C1326   1.109   1_655 S
