data_str_m2_o1_o16_pcu_sym.50
_audit_creation_date              2020-01-03
_audit_creation_method            'Materials Studio'
_symmetry_space_group_name_H-M    'P1'
_symmetry_Int_Tables_number       1
_symmetry_cell_setting            triclinic
loop_
_symmetry_equiv_pos_as_xyz
  x,y,z
_cell_length_a                    28.5882
_cell_length_b                    32.4960
_cell_length_c                    26.9694
_cell_angle_alpha                 90.8214
_cell_angle_beta                  72.9753
_cell_angle_gamma                 89.6605
loop_
_atom_site_label
_atom_site_type_symbol
_atom_site_fract_x
_atom_site_fract_y
_atom_site_fract_z
_atom_site_U_iso_or_equiv
_atom_site_adp_type
_atom_site_occupancy
O1     O     0.12708   0.22678   0.25000   0.00000  Uiso   1.00
O2     O     0.20627   0.22679   0.25000   0.00000  Uiso   1.00
C3     C     0.16659   0.24596   0.25002   0.00000  Uiso   1.00
O4     O     0.10775   0.16665   0.32549   0.00000  Uiso   1.00
O5     O     0.18694   0.16666   0.32549   0.00000  Uiso   1.00
C6     C     0.14126   0.16224   0.34955   0.00000  Uiso   1.00
Cu7    Cu    0.11978   0.16666   0.25000   0.00000  Uiso   1.00
Cu8    Cu    0.21355   0.16667   0.25000   0.00000  Uiso   1.00
O9     O     0.12706   0.10654   0.24999   0.00000  Uiso   1.00
O10    O     0.20625   0.10655   0.24999   0.00000  Uiso   1.00
O11    O     0.14640   0.16667   0.17451   0.00000  Uiso   1.00
O12    O     0.22559   0.16668   0.17451   0.00000  Uiso   1.00
C13    C     0.16677   0.08737   0.24987   0.00000  Uiso   1.00
C14    C     0.19272   0.16829   0.15019   0.00000  Uiso   1.00
C15    C     0.26478   0.18991   0.01041   0.00000  Uiso   1.00
H16    H     0.28691   0.16122   0.41060   0.00000  Uiso   1.00
C17    C     0.20771   0.17095   0.09346   0.00000  Uiso   1.00
C18    C     0.07902   0.14731   0.43307   0.00000  Uiso   1.00
C19    C     0.06493   0.14241   0.48649   0.00000  Uiso   1.00
C20    C     0.09906   0.14591   0.01403   0.00000  Uiso   1.00
C21    C     0.14929   0.15134   0.48793   0.00000  Uiso   1.00
C22    C     0.16436   0.15059   0.43295   0.00000  Uiso   1.00
C23    C     0.18501   0.15946   0.01430   0.00000  Uiso   1.00
C24    C     0.23306   0.17067   0.48555   0.00000  Uiso   1.00
C25    C     0.24863   0.16067   0.43271   0.00000  Uiso   1.00
C26    C     0.21519   0.14793   0.40778   0.00000  Uiso   1.00
C27    C     0.17450   0.15723   0.06798   0.00000  Uiso   1.00
C28    C     0.25162   0.19004   0.06540   0.00000  Uiso   1.00
C29    C     0.12834   0.15273   0.40562   0.00000  Uiso   1.00
H30    H     0.14078   0.14389   0.09084   0.00000  Uiso   1.00
H31    H     0.05105   0.14721   0.41329   0.00000  Uiso   1.00
H32    H     0.08478   0.14524   0.05567   0.00000  Uiso   1.00
H33    H     0.02673   0.13791   0.00702   0.00000  Uiso   1.00
H34    H     0.23054   0.13574   0.36902   0.00000  Uiso   1.00
C35    C     0.20880   0.31182   0.25115   0.00000  Uiso   1.00
H36    H     0.24172   0.29564   0.25225   0.00000  Uiso   1.00
C37    C     0.20890   0.02106   0.25114   0.00000  Uiso   1.00
H38    H     0.24180   0.03689   0.25229   0.00000  Uiso   1.00
C39    C     0.16682   0.04274   0.24980   0.00000  Uiso   1.00
C40    C     0.12465   0.02151   0.24846   0.00000  Uiso   1.00
H41    H     0.09174   0.03769   0.24734   0.00000  Uiso   1.00
C42    C     0.12454   0.31227   0.24855   0.00000  Uiso   1.00
H43    H     0.09158   0.29643   0.24753   0.00000  Uiso   1.00
C44    C     0.16661   0.29059   0.24991   0.00000  Uiso   1.00
C45    C     0.30016   0.19458   0.27950   0.00000  Uiso   1.00
H46    H     0.27481   0.21691   0.30322   0.00000  Uiso   1.00
C47    C     0.01637   0.19449   0.27958   0.00000  Uiso   1.00
H48    H     0.02829   0.21679   0.30336   0.00000  Uiso   1.00
N49    N     0.04931   0.16666   0.24998   0.00000  Uiso   1.00
C50    C     0.03367   0.13864   0.22097   0.00000  Uiso   1.00
H51    H     0.06002   0.11680   0.19756   0.00000  Uiso   1.00
C52    C     0.31753   0.13806   0.22074   0.00000  Uiso   1.00
N53    N     0.28402   0.16669   0.24999   0.00000  Uiso   1.00
N54    N     0.27858   0.21314   0.09294   0.00000  Uiso   1.00
H55    H     0.28462   0.24354   0.08279   0.00000  Uiso   1.00
C56    C     0.31904   0.19233   0.10446   0.00000  Uiso   1.00
H57    H     0.02108   0.20401   0.07970   0.00000  Uiso   1.00
H58    H     0.31781   0.15847   0.09867   0.00000  Uiso   1.00
H59    H     0.31734   0.19896   0.14538   0.00000  Uiso   1.00
C60    C     0.30424   0.10605   0.18759   0.00000  Uiso   1.00
H61    H     0.27279   0.10899   0.17385   0.00000  Uiso   1.00
O62    O     0.32964   0.07518   0.17404   0.00000  Uiso   1.00
C63    C     0.30811   0.21293   0.47842   0.00000  Uiso   1.00
H64    H     0.31107   0.22025   0.43851   0.00000  Uiso   1.00
O65    O     0.00740   0.22464   0.49572   0.00000  Uiso   1.00
O66    O     0.46042   0.22678   0.25000   0.00000  Uiso   1.00
O67    O     0.53961   0.22679   0.25000   0.00000  Uiso   1.00
C68    C     0.49993   0.24596   0.25002   0.00000  Uiso   1.00
O69    O     0.44108   0.16665   0.32549   0.00000  Uiso   1.00
O70    O     0.52027   0.16666   0.32549   0.00000  Uiso   1.00
C71    C     0.47460   0.16224   0.34955   0.00000  Uiso   1.00
Cu72   Cu    0.45311   0.16666   0.25000   0.00000  Uiso   1.00
Cu73   Cu    0.54689   0.16667   0.25000   0.00000  Uiso   1.00
O74    O     0.46039   0.10654   0.24999   0.00000  Uiso   1.00
O75    O     0.53958   0.10655   0.24999   0.00000  Uiso   1.00
O76    O     0.47973   0.16667   0.17451   0.00000  Uiso   1.00
O77    O     0.55892   0.16668   0.17451   0.00000  Uiso   1.00
C78    C     0.50011   0.08737   0.24987   0.00000  Uiso   1.00
C79    C     0.52605   0.16829   0.15019   0.00000  Uiso   1.00
C80    C     0.59811   0.18991   0.01041   0.00000  Uiso   1.00
H81    H     0.62025   0.16122   0.41060   0.00000  Uiso   1.00
C82    C     0.54104   0.17095   0.09346   0.00000  Uiso   1.00
C83    C     0.41235   0.14731   0.43307   0.00000  Uiso   1.00
C84    C     0.39827   0.14241   0.48649   0.00000  Uiso   1.00
C85    C     0.43240   0.14591   0.01403   0.00000  Uiso   1.00
C86    C     0.48263   0.15134   0.48793   0.00000  Uiso   1.00
C87    C     0.49769   0.15059   0.43295   0.00000  Uiso   1.00
C88    C     0.51834   0.15946   0.01430   0.00000  Uiso   1.00
C89    C     0.56640   0.17067   0.48555   0.00000  Uiso   1.00
C90    C     0.58196   0.16067   0.43271   0.00000  Uiso   1.00
C91    C     0.54852   0.14793   0.40778   0.00000  Uiso   1.00
C92    C     0.50783   0.15723   0.06798   0.00000  Uiso   1.00
C93    C     0.58496   0.19004   0.06540   0.00000  Uiso   1.00
C94    C     0.46167   0.15273   0.40562   0.00000  Uiso   1.00
H95    H     0.47411   0.14389   0.09084   0.00000  Uiso   1.00
H96    H     0.38439   0.14721   0.41329   0.00000  Uiso   1.00
H97    H     0.41812   0.14524   0.05567   0.00000  Uiso   1.00
H98    H     0.36006   0.13791   0.00702   0.00000  Uiso   1.00
H99    H     0.56387   0.13574   0.36902   0.00000  Uiso   1.00
C100   C     0.54214   0.31182   0.25115   0.00000  Uiso   1.00
H101   H     0.57505   0.29564   0.25225   0.00000  Uiso   1.00
C102   C     0.54223   0.02106   0.25114   0.00000  Uiso   1.00
H103   H     0.57514   0.03689   0.25229   0.00000  Uiso   1.00
C104   C     0.50016   0.04274   0.24980   0.00000  Uiso   1.00
C105   C     0.45798   0.02151   0.24846   0.00000  Uiso   1.00
H106   H     0.42508   0.03769   0.24734   0.00000  Uiso   1.00
C107   C     0.45787   0.31227   0.24855   0.00000  Uiso   1.00
H108   H     0.42492   0.29643   0.24753   0.00000  Uiso   1.00
C109   C     0.49994   0.29059   0.24991   0.00000  Uiso   1.00
C110   C     0.63349   0.19458   0.27950   0.00000  Uiso   1.00
H111   H     0.60814   0.21691   0.30322   0.00000  Uiso   1.00
C112   C     0.34970   0.19449   0.27958   0.00000  Uiso   1.00
H113   H     0.36162   0.21679   0.30336   0.00000  Uiso   1.00
N114   N     0.38265   0.16666   0.24998   0.00000  Uiso   1.00
C115   C     0.36701   0.13864   0.22097   0.00000  Uiso   1.00
H116   H     0.39335   0.11680   0.19756   0.00000  Uiso   1.00
C117   C     0.65086   0.13806   0.22074   0.00000  Uiso   1.00
N118   N     0.61735   0.16669   0.24999   0.00000  Uiso   1.00
N119   N     0.61191   0.21314   0.09294   0.00000  Uiso   1.00
H120   H     0.61795   0.24354   0.08279   0.00000  Uiso   1.00
C121   C     0.65237   0.19233   0.10446   0.00000  Uiso   1.00
H122   H     0.35442   0.20401   0.07970   0.00000  Uiso   1.00
H123   H     0.65114   0.15847   0.09867   0.00000  Uiso   1.00
H124   H     0.65067   0.19896   0.14538   0.00000  Uiso   1.00
C125   C     0.63757   0.10605   0.18759   0.00000  Uiso   1.00
H126   H     0.60612   0.10899   0.17385   0.00000  Uiso   1.00
O127   O     0.66297   0.07518   0.17404   0.00000  Uiso   1.00
C128   C     0.64144   0.21293   0.47842   0.00000  Uiso   1.00
H129   H     0.64441   0.22025   0.43851   0.00000  Uiso   1.00
O130   O     0.34073   0.22464   0.49572   0.00000  Uiso   1.00
O131   O     0.79375   0.22678   0.25000   0.00000  Uiso   1.00
O132   O     0.87294   0.22679   0.25000   0.00000  Uiso   1.00
C133   C     0.83326   0.24596   0.25002   0.00000  Uiso   1.00
O134   O     0.77441   0.16665   0.32549   0.00000  Uiso   1.00
O135   O     0.85360   0.16666   0.32549   0.00000  Uiso   1.00
C136   C     0.80793   0.16224   0.34955   0.00000  Uiso   1.00
Cu137  Cu    0.78645   0.16666   0.25000   0.00000  Uiso   1.00
Cu138  Cu    0.88022   0.16667   0.25000   0.00000  Uiso   1.00
O139   O     0.79373   0.10654   0.24999   0.00000  Uiso   1.00
O140   O     0.87292   0.10655   0.24999   0.00000  Uiso   1.00
O141   O     0.81306   0.16667   0.17451   0.00000  Uiso   1.00
O142   O     0.89225   0.16668   0.17451   0.00000  Uiso   1.00
C143   C     0.83344   0.08737   0.24987   0.00000  Uiso   1.00
C144   C     0.85938   0.16829   0.15019   0.00000  Uiso   1.00
C145   C     0.93145   0.18991   0.01041   0.00000  Uiso   1.00
H146   H     0.95358   0.16122   0.41060   0.00000  Uiso   1.00
C147   C     0.87437   0.17095   0.09346   0.00000  Uiso   1.00
C148   C     0.74569   0.14731   0.43307   0.00000  Uiso   1.00
C149   C     0.73160   0.14241   0.48649   0.00000  Uiso   1.00
C150   C     0.76573   0.14591   0.01403   0.00000  Uiso   1.00
C151   C     0.81596   0.15134   0.48793   0.00000  Uiso   1.00
C152   C     0.83103   0.15059   0.43295   0.00000  Uiso   1.00
C153   C     0.85167   0.15946   0.01430   0.00000  Uiso   1.00
C154   C     0.89973   0.17067   0.48555   0.00000  Uiso   1.00
C155   C     0.91529   0.16067   0.43271   0.00000  Uiso   1.00
C156   C     0.88186   0.14793   0.40778   0.00000  Uiso   1.00
C157   C     0.84117   0.15723   0.06798   0.00000  Uiso   1.00
C158   C     0.91829   0.19004   0.06540   0.00000  Uiso   1.00
C159   C     0.79501   0.15273   0.40562   0.00000  Uiso   1.00
H160   H     0.80745   0.14389   0.09084   0.00000  Uiso   1.00
H161   H     0.71772   0.14721   0.41329   0.00000  Uiso   1.00
H162   H     0.75145   0.14524   0.05567   0.00000  Uiso   1.00
H163   H     0.69340   0.13791   0.00702   0.00000  Uiso   1.00
H164   H     0.89720   0.13574   0.36902   0.00000  Uiso   1.00
C165   C     0.87547   0.31182   0.25115   0.00000  Uiso   1.00
H166   H     0.90838   0.29564   0.25225   0.00000  Uiso   1.00
C167   C     0.87556   0.02106   0.25114   0.00000  Uiso   1.00
H168   H     0.90847   0.03689   0.25229   0.00000  Uiso   1.00
C169   C     0.83349   0.04274   0.24980   0.00000  Uiso   1.00
C170   C     0.79132   0.02151   0.24846   0.00000  Uiso   1.00
H171   H     0.75841   0.03769   0.24734   0.00000  Uiso   1.00
C172   C     0.79120   0.31227   0.24855   0.00000  Uiso   1.00
H173   H     0.75825   0.29643   0.24753   0.00000  Uiso   1.00
C174   C     0.83327   0.29059   0.24991   0.00000  Uiso   1.00
C175   C     0.96682   0.19458   0.27950   0.00000  Uiso   1.00
H176   H     0.94148   0.21691   0.30322   0.00000  Uiso   1.00
C177   C     0.68303   0.19449   0.27958   0.00000  Uiso   1.00
H178   H     0.69496   0.21679   0.30336   0.00000  Uiso   1.00
N179   N     0.71598   0.16666   0.24998   0.00000  Uiso   1.00
C180   C     0.70034   0.13864   0.22097   0.00000  Uiso   1.00
H181   H     0.72669   0.11680   0.19756   0.00000  Uiso   1.00
C182   C     0.98419   0.13806   0.22074   0.00000  Uiso   1.00
N183   N     0.95069   0.16669   0.24999   0.00000  Uiso   1.00
N184   N     0.94525   0.21314   0.09294   0.00000  Uiso   1.00
H185   H     0.95128   0.24354   0.08279   0.00000  Uiso   1.00
C186   C     0.98570   0.19233   0.10446   0.00000  Uiso   1.00
H187   H     0.68775   0.20401   0.07970   0.00000  Uiso   1.00
H188   H     0.98448   0.15847   0.09867   0.00000  Uiso   1.00
H189   H     0.98400   0.19896   0.14538   0.00000  Uiso   1.00
C190   C     0.97090   0.10605   0.18759   0.00000  Uiso   1.00
H191   H     0.93945   0.10899   0.17385   0.00000  Uiso   1.00
O192   O     0.99630   0.07518   0.17404   0.00000  Uiso   1.00
C193   C     0.97477   0.21293   0.47842   0.00000  Uiso   1.00
H194   H     0.97774   0.22025   0.43851   0.00000  Uiso   1.00
O195   O     0.67407   0.22464   0.49572   0.00000  Uiso   1.00
O196   O     0.12708   0.56011   0.25000   0.00000  Uiso   1.00
O197   O     0.20627   0.56012   0.25000   0.00000  Uiso   1.00
C198   C     0.16659   0.57930   0.25002   0.00000  Uiso   1.00
O199   O     0.10775   0.49998   0.32549   0.00000  Uiso   1.00
O200   O     0.18694   0.49999   0.32549   0.00000  Uiso   1.00
C201   C     0.14126   0.49558   0.34955   0.00000  Uiso   1.00
Cu202  Cu    0.11978   0.49999   0.25000   0.00000  Uiso   1.00
Cu203  Cu    0.21355   0.50001   0.25000   0.00000  Uiso   1.00
O204   O     0.12706   0.43988   0.24999   0.00000  Uiso   1.00
O205   O     0.20625   0.43989   0.24999   0.00000  Uiso   1.00
O206   O     0.14640   0.50001   0.17451   0.00000  Uiso   1.00
O207   O     0.22559   0.50002   0.17451   0.00000  Uiso   1.00
C208   C     0.16677   0.42070   0.24987   0.00000  Uiso   1.00
C209   C     0.19272   0.50163   0.15019   0.00000  Uiso   1.00
C210   C     0.26478   0.52324   0.01041   0.00000  Uiso   1.00
H211   H     0.28691   0.49455   0.41060   0.00000  Uiso   1.00
C212   C     0.20771   0.50428   0.09346   0.00000  Uiso   1.00
C213   C     0.07902   0.48065   0.43307   0.00000  Uiso   1.00
C214   C     0.06493   0.47574   0.48649   0.00000  Uiso   1.00
C215   C     0.09906   0.47924   0.01403   0.00000  Uiso   1.00
C216   C     0.14929   0.48467   0.48793   0.00000  Uiso   1.00
C217   C     0.16436   0.48393   0.43295   0.00000  Uiso   1.00
C218   C     0.18501   0.49279   0.01430   0.00000  Uiso   1.00
C219   C     0.23306   0.50401   0.48555   0.00000  Uiso   1.00
C220   C     0.24863   0.49401   0.43271   0.00000  Uiso   1.00
C221   C     0.21519   0.48127   0.40778   0.00000  Uiso   1.00
C222   C     0.17450   0.49057   0.06798   0.00000  Uiso   1.00
C223   C     0.25162   0.52337   0.06540   0.00000  Uiso   1.00
C224   C     0.12834   0.48606   0.40562   0.00000  Uiso   1.00
H225   H     0.14078   0.47722   0.09084   0.00000  Uiso   1.00
H226   H     0.05105   0.48054   0.41329   0.00000  Uiso   1.00
H227   H     0.08478   0.47857   0.05567   0.00000  Uiso   1.00
H228   H     0.02673   0.47125   0.00702   0.00000  Uiso   1.00
H229   H     0.23054   0.46907   0.36902   0.00000  Uiso   1.00
C230   C     0.20880   0.64516   0.25115   0.00000  Uiso   1.00
H231   H     0.24172   0.62898   0.25225   0.00000  Uiso   1.00
C232   C     0.20890   0.35440   0.25114   0.00000  Uiso   1.00
H233   H     0.24180   0.37022   0.25229   0.00000  Uiso   1.00
C234   C     0.16682   0.37608   0.24980   0.00000  Uiso   1.00
C235   C     0.12465   0.35484   0.24846   0.00000  Uiso   1.00
H236   H     0.09174   0.37102   0.24734   0.00000  Uiso   1.00
C237   C     0.12454   0.64560   0.24855   0.00000  Uiso   1.00
H238   H     0.09158   0.62976   0.24753   0.00000  Uiso   1.00
C239   C     0.16661   0.62392   0.24991   0.00000  Uiso   1.00
C240   C     0.30016   0.52791   0.27950   0.00000  Uiso   1.00
H241   H     0.27481   0.55024   0.30322   0.00000  Uiso   1.00
C242   C     0.01637   0.52782   0.27958   0.00000  Uiso   1.00
H243   H     0.02829   0.55012   0.30336   0.00000  Uiso   1.00
N244   N     0.04931   0.49999   0.24998   0.00000  Uiso   1.00
C245   C     0.03367   0.47197   0.22097   0.00000  Uiso   1.00
H246   H     0.06002   0.45014   0.19756   0.00000  Uiso   1.00
C247   C     0.31753   0.47139   0.22074   0.00000  Uiso   1.00
N248   N     0.28402   0.50002   0.24999   0.00000  Uiso   1.00
N249   N     0.27858   0.54647   0.09294   0.00000  Uiso   1.00
H250   H     0.28462   0.57688   0.08279   0.00000  Uiso   1.00
C251   C     0.31904   0.52566   0.10446   0.00000  Uiso   1.00
H252   H     0.02108   0.53735   0.07970   0.00000  Uiso   1.00
H253   H     0.31781   0.49180   0.09867   0.00000  Uiso   1.00
H254   H     0.31734   0.53229   0.14538   0.00000  Uiso   1.00
C255   C     0.30424   0.43938   0.18759   0.00000  Uiso   1.00
H256   H     0.27279   0.44232   0.17385   0.00000  Uiso   1.00
O257   O     0.32964   0.40851   0.17404   0.00000  Uiso   1.00
C258   C     0.30811   0.54626   0.47842   0.00000  Uiso   1.00
H259   H     0.31107   0.55359   0.43851   0.00000  Uiso   1.00
O260   O     0.00740   0.55797   0.49572   0.00000  Uiso   1.00
O261   O     0.46042   0.56011   0.25000   0.00000  Uiso   1.00
O262   O     0.53961   0.56012   0.25000   0.00000  Uiso   1.00
C263   C     0.49993   0.57930   0.25002   0.00000  Uiso   1.00
O264   O     0.44108   0.49998   0.32549   0.00000  Uiso   1.00
O265   O     0.52027   0.49999   0.32549   0.00000  Uiso   1.00
C266   C     0.47460   0.49558   0.34955   0.00000  Uiso   1.00
Cu267  Cu    0.45311   0.49999   0.25000   0.00000  Uiso   1.00
Cu268  Cu    0.54689   0.50001   0.25000   0.00000  Uiso   1.00
O269   O     0.46039   0.43988   0.24999   0.00000  Uiso   1.00
O270   O     0.53958   0.43989   0.24999   0.00000  Uiso   1.00
O271   O     0.47973   0.50001   0.17451   0.00000  Uiso   1.00
O272   O     0.55892   0.50002   0.17451   0.00000  Uiso   1.00
C273   C     0.50011   0.42070   0.24987   0.00000  Uiso   1.00
C274   C     0.52605   0.50163   0.15019   0.00000  Uiso   1.00
C275   C     0.59811   0.52324   0.01041   0.00000  Uiso   1.00
H276   H     0.62025   0.49455   0.41060   0.00000  Uiso   1.00
C277   C     0.54104   0.50428   0.09346   0.00000  Uiso   1.00
C278   C     0.41235   0.48065   0.43307   0.00000  Uiso   1.00
C279   C     0.39827   0.47574   0.48649   0.00000  Uiso   1.00
C280   C     0.43240   0.47924   0.01403   0.00000  Uiso   1.00
C281   C     0.48263   0.48467   0.48793   0.00000  Uiso   1.00
C282   C     0.49769   0.48393   0.43295   0.00000  Uiso   1.00
C283   C     0.51834   0.49279   0.01430   0.00000  Uiso   1.00
C284   C     0.56640   0.50401   0.48555   0.00000  Uiso   1.00
C285   C     0.58196   0.49401   0.43271   0.00000  Uiso   1.00
C286   C     0.54852   0.48127   0.40778   0.00000  Uiso   1.00
C287   C     0.50783   0.49057   0.06798   0.00000  Uiso   1.00
C288   C     0.58496   0.52337   0.06540   0.00000  Uiso   1.00
C289   C     0.46167   0.48606   0.40562   0.00000  Uiso   1.00
H290   H     0.47411   0.47722   0.09084   0.00000  Uiso   1.00
H291   H     0.38439   0.48054   0.41329   0.00000  Uiso   1.00
H292   H     0.41812   0.47857   0.05567   0.00000  Uiso   1.00
H293   H     0.36006   0.47125   0.00702   0.00000  Uiso   1.00
H294   H     0.56387   0.46907   0.36902   0.00000  Uiso   1.00
C295   C     0.54214   0.64516   0.25115   0.00000  Uiso   1.00
H296   H     0.57505   0.62898   0.25225   0.00000  Uiso   1.00
C297   C     0.54223   0.35440   0.25114   0.00000  Uiso   1.00
H298   H     0.57514   0.37022   0.25229   0.00000  Uiso   1.00
C299   C     0.50016   0.37608   0.24980   0.00000  Uiso   1.00
C300   C     0.45798   0.35484   0.24846   0.00000  Uiso   1.00
H301   H     0.42508   0.37102   0.24734   0.00000  Uiso   1.00
C302   C     0.45787   0.64560   0.24855   0.00000  Uiso   1.00
H303   H     0.42492   0.62976   0.24753   0.00000  Uiso   1.00
C304   C     0.49994   0.62392   0.24991   0.00000  Uiso   1.00
C305   C     0.63349   0.52791   0.27950   0.00000  Uiso   1.00
H306   H     0.60814   0.55024   0.30322   0.00000  Uiso   1.00
C307   C     0.34970   0.52782   0.27958   0.00000  Uiso   1.00
H308   H     0.36162   0.55012   0.30336   0.00000  Uiso   1.00
N309   N     0.38265   0.49999   0.24998   0.00000  Uiso   1.00
C310   C     0.36701   0.47197   0.22097   0.00000  Uiso   1.00
H311   H     0.39335   0.45014   0.19756   0.00000  Uiso   1.00
C312   C     0.65086   0.47139   0.22074   0.00000  Uiso   1.00
N313   N     0.61735   0.50002   0.24999   0.00000  Uiso   1.00
N314   N     0.61191   0.54647   0.09294   0.00000  Uiso   1.00
H315   H     0.61795   0.57688   0.08279   0.00000  Uiso   1.00
C316   C     0.65237   0.52566   0.10446   0.00000  Uiso   1.00
H317   H     0.35442   0.53735   0.07970   0.00000  Uiso   1.00
H318   H     0.65114   0.49180   0.09867   0.00000  Uiso   1.00
H319   H     0.65067   0.53229   0.14538   0.00000  Uiso   1.00
C320   C     0.63757   0.43938   0.18759   0.00000  Uiso   1.00
H321   H     0.60612   0.44232   0.17385   0.00000  Uiso   1.00
O322   O     0.66297   0.40851   0.17404   0.00000  Uiso   1.00
C323   C     0.64144   0.54626   0.47842   0.00000  Uiso   1.00
H324   H     0.64441   0.55359   0.43851   0.00000  Uiso   1.00
O325   O     0.34073   0.55797   0.49572   0.00000  Uiso   1.00
O326   O     0.79375   0.56011   0.25000   0.00000  Uiso   1.00
O327   O     0.87294   0.56012   0.25000   0.00000  Uiso   1.00
C328   C     0.83326   0.57930   0.25002   0.00000  Uiso   1.00
O329   O     0.77441   0.49998   0.32549   0.00000  Uiso   1.00
O330   O     0.85360   0.49999   0.32549   0.00000  Uiso   1.00
C331   C     0.80793   0.49558   0.34955   0.00000  Uiso   1.00
Cu332  Cu    0.78645   0.49999   0.25000   0.00000  Uiso   1.00
Cu333  Cu    0.88022   0.50001   0.25000   0.00000  Uiso   1.00
O334   O     0.79373   0.43988   0.24999   0.00000  Uiso   1.00
O335   O     0.87292   0.43989   0.24999   0.00000  Uiso   1.00
O336   O     0.81306   0.50001   0.17451   0.00000  Uiso   1.00
O337   O     0.89225   0.50002   0.17451   0.00000  Uiso   1.00
C338   C     0.83344   0.42070   0.24987   0.00000  Uiso   1.00
C339   C     0.85938   0.50163   0.15019   0.00000  Uiso   1.00
C340   C     0.93145   0.52324   0.01041   0.00000  Uiso   1.00
H341   H     0.95358   0.49455   0.41060   0.00000  Uiso   1.00
C342   C     0.87437   0.50428   0.09346   0.00000  Uiso   1.00
C343   C     0.74569   0.48065   0.43307   0.00000  Uiso   1.00
C344   C     0.73160   0.47574   0.48649   0.00000  Uiso   1.00
C345   C     0.76573   0.47924   0.01403   0.00000  Uiso   1.00
C346   C     0.81596   0.48467   0.48793   0.00000  Uiso   1.00
C347   C     0.83103   0.48393   0.43295   0.00000  Uiso   1.00
C348   C     0.85167   0.49279   0.01430   0.00000  Uiso   1.00
C349   C     0.89973   0.50401   0.48555   0.00000  Uiso   1.00
C350   C     0.91529   0.49401   0.43271   0.00000  Uiso   1.00
C351   C     0.88186   0.48127   0.40778   0.00000  Uiso   1.00
C352   C     0.84117   0.49057   0.06798   0.00000  Uiso   1.00
C353   C     0.91829   0.52337   0.06540   0.00000  Uiso   1.00
C354   C     0.79501   0.48606   0.40562   0.00000  Uiso   1.00
H355   H     0.80745   0.47722   0.09084   0.00000  Uiso   1.00
H356   H     0.71772   0.48054   0.41329   0.00000  Uiso   1.00
H357   H     0.75145   0.47857   0.05567   0.00000  Uiso   1.00
H358   H     0.69340   0.47125   0.00702   0.00000  Uiso   1.00
H359   H     0.89720   0.46907   0.36902   0.00000  Uiso   1.00
C360   C     0.87547   0.64516   0.25115   0.00000  Uiso   1.00
H361   H     0.90838   0.62898   0.25225   0.00000  Uiso   1.00
C362   C     0.87556   0.35440   0.25114   0.00000  Uiso   1.00
H363   H     0.90847   0.37022   0.25229   0.00000  Uiso   1.00
C364   C     0.83349   0.37608   0.24980   0.00000  Uiso   1.00
C365   C     0.79132   0.35484   0.24846   0.00000  Uiso   1.00
H366   H     0.75841   0.37102   0.24734   0.00000  Uiso   1.00
C367   C     0.79120   0.64560   0.24855   0.00000  Uiso   1.00
H368   H     0.75825   0.62976   0.24753   0.00000  Uiso   1.00
C369   C     0.83327   0.62392   0.24991   0.00000  Uiso   1.00
C370   C     0.96682   0.52791   0.27950   0.00000  Uiso   1.00
H371   H     0.94148   0.55024   0.30322   0.00000  Uiso   1.00
C372   C     0.68303   0.52782   0.27958   0.00000  Uiso   1.00
H373   H     0.69496   0.55012   0.30336   0.00000  Uiso   1.00
N374   N     0.71598   0.49999   0.24998   0.00000  Uiso   1.00
C375   C     0.70034   0.47197   0.22097   0.00000  Uiso   1.00
H376   H     0.72669   0.45014   0.19756   0.00000  Uiso   1.00
C377   C     0.98419   0.47139   0.22074   0.00000  Uiso   1.00
N378   N     0.95069   0.50002   0.24999   0.00000  Uiso   1.00
N379   N     0.94525   0.54647   0.09294   0.00000  Uiso   1.00
H380   H     0.95128   0.57688   0.08279   0.00000  Uiso   1.00
C381   C     0.98570   0.52566   0.10446   0.00000  Uiso   1.00
H382   H     0.68775   0.53735   0.07970   0.00000  Uiso   1.00
H383   H     0.98448   0.49180   0.09867   0.00000  Uiso   1.00
H384   H     0.98400   0.53229   0.14538   0.00000  Uiso   1.00
C385   C     0.97090   0.43938   0.18759   0.00000  Uiso   1.00
H386   H     0.93945   0.44232   0.17385   0.00000  Uiso   1.00
O387   O     0.99630   0.40851   0.17404   0.00000  Uiso   1.00
C388   C     0.97477   0.54626   0.47842   0.00000  Uiso   1.00
H389   H     0.97774   0.55359   0.43851   0.00000  Uiso   1.00
O390   O     0.67407   0.55797   0.49572   0.00000  Uiso   1.00
O391   O     0.12708   0.89345   0.25000   0.00000  Uiso   1.00
O392   O     0.20627   0.89346   0.25000   0.00000  Uiso   1.00
C393   C     0.16659   0.91263   0.25002   0.00000  Uiso   1.00
O394   O     0.10775   0.83332   0.32549   0.00000  Uiso   1.00
O395   O     0.18694   0.83333   0.32549   0.00000  Uiso   1.00
C396   C     0.14126   0.82891   0.34955   0.00000  Uiso   1.00
Cu397  Cu    0.11978   0.83333   0.25000   0.00000  Uiso   1.00
Cu398  Cu    0.21355   0.83334   0.25000   0.00000  Uiso   1.00
O399   O     0.12706   0.77321   0.24999   0.00000  Uiso   1.00
O400   O     0.20625   0.77322   0.24999   0.00000  Uiso   1.00
O401   O     0.14640   0.83334   0.17451   0.00000  Uiso   1.00
O402   O     0.22559   0.83335   0.17451   0.00000  Uiso   1.00
C403   C     0.16677   0.75403   0.24987   0.00000  Uiso   1.00
C404   C     0.19272   0.83496   0.15019   0.00000  Uiso   1.00
C405   C     0.26478   0.85657   0.01041   0.00000  Uiso   1.00
H406   H     0.28691   0.82789   0.41060   0.00000  Uiso   1.00
C407   C     0.20771   0.83762   0.09346   0.00000  Uiso   1.00
C408   C     0.07902   0.81398   0.43307   0.00000  Uiso   1.00
C409   C     0.06493   0.80907   0.48649   0.00000  Uiso   1.00
C410   C     0.09906   0.81258   0.01403   0.00000  Uiso   1.00
C411   C     0.14929   0.81801   0.48793   0.00000  Uiso   1.00
C412   C     0.16436   0.81726   0.43295   0.00000  Uiso   1.00
C413   C     0.18501   0.82613   0.01430   0.00000  Uiso   1.00
C414   C     0.23306   0.83734   0.48555   0.00000  Uiso   1.00
C415   C     0.24863   0.82734   0.43271   0.00000  Uiso   1.00
C416   C     0.21519   0.81460   0.40778   0.00000  Uiso   1.00
C417   C     0.17450   0.82390   0.06798   0.00000  Uiso   1.00
C418   C     0.25162   0.85670   0.06540   0.00000  Uiso   1.00
C419   C     0.12834   0.81940   0.40562   0.00000  Uiso   1.00
H420   H     0.14078   0.81056   0.09084   0.00000  Uiso   1.00
H421   H     0.05105   0.81388   0.41329   0.00000  Uiso   1.00
H422   H     0.08478   0.81190   0.05567   0.00000  Uiso   1.00
H423   H     0.02673   0.80458   0.00702   0.00000  Uiso   1.00
H424   H     0.23054   0.80241   0.36902   0.00000  Uiso   1.00
C425   C     0.20880   0.97849   0.25115   0.00000  Uiso   1.00
H426   H     0.24172   0.96231   0.25225   0.00000  Uiso   1.00
C427   C     0.20890   0.68773   0.25114   0.00000  Uiso   1.00
H428   H     0.24180   0.70355   0.25229   0.00000  Uiso   1.00
C429   C     0.16682   0.70941   0.24980   0.00000  Uiso   1.00
C430   C     0.12465   0.68817   0.24846   0.00000  Uiso   1.00
H431   H     0.09174   0.70435   0.24734   0.00000  Uiso   1.00
C432   C     0.12454   0.97893   0.24855   0.00000  Uiso   1.00
H433   H     0.09158   0.96310   0.24753   0.00000  Uiso   1.00
C434   C     0.16661   0.95725   0.24991   0.00000  Uiso   1.00
C435   C     0.30016   0.86124   0.27950   0.00000  Uiso   1.00
H436   H     0.27481   0.88358   0.30322   0.00000  Uiso   1.00
C437   C     0.01637   0.86115   0.27958   0.00000  Uiso   1.00
H438   H     0.02829   0.88346   0.30336   0.00000  Uiso   1.00
N439   N     0.04931   0.83332   0.24998   0.00000  Uiso   1.00
C440   C     0.03367   0.80531   0.22097   0.00000  Uiso   1.00
H441   H     0.06002   0.78347   0.19756   0.00000  Uiso   1.00
C442   C     0.31753   0.80472   0.22074   0.00000  Uiso   1.00
N443   N     0.28402   0.83335   0.24999   0.00000  Uiso   1.00
N444   N     0.27858   0.87981   0.09294   0.00000  Uiso   1.00
H445   H     0.28462   0.91021   0.08279   0.00000  Uiso   1.00
C446   C     0.31904   0.85899   0.10446   0.00000  Uiso   1.00
H447   H     0.02108   0.87068   0.07970   0.00000  Uiso   1.00
H448   H     0.31781   0.82514   0.09867   0.00000  Uiso   1.00
H449   H     0.31734   0.86562   0.14538   0.00000  Uiso   1.00
C450   C     0.30424   0.77272   0.18759   0.00000  Uiso   1.00
H451   H     0.27279   0.77566   0.17385   0.00000  Uiso   1.00
O452   O     0.32964   0.74185   0.17404   0.00000  Uiso   1.00
C453   C     0.30811   0.87959   0.47842   0.00000  Uiso   1.00
H454   H     0.31107   0.88692   0.43851   0.00000  Uiso   1.00
O455   O     0.00740   0.89130   0.49572   0.00000  Uiso   1.00
O456   O     0.46042   0.89345   0.25000   0.00000  Uiso   1.00
O457   O     0.53961   0.89346   0.25000   0.00000  Uiso   1.00
C458   C     0.49993   0.91263   0.25002   0.00000  Uiso   1.00
O459   O     0.44108   0.83332   0.32549   0.00000  Uiso   1.00
O460   O     0.52027   0.83333   0.32549   0.00000  Uiso   1.00
C461   C     0.47460   0.82891   0.34955   0.00000  Uiso   1.00
Cu462  Cu    0.45311   0.83333   0.25000   0.00000  Uiso   1.00
Cu463  Cu    0.54689   0.83334   0.25000   0.00000  Uiso   1.00
O464   O     0.46039   0.77321   0.24999   0.00000  Uiso   1.00
O465   O     0.53958   0.77322   0.24999   0.00000  Uiso   1.00
O466   O     0.47973   0.83334   0.17451   0.00000  Uiso   1.00
O467   O     0.55892   0.83335   0.17451   0.00000  Uiso   1.00
C468   C     0.50011   0.75403   0.24987   0.00000  Uiso   1.00
C469   C     0.52605   0.83496   0.15019   0.00000  Uiso   1.00
C470   C     0.59811   0.85657   0.01041   0.00000  Uiso   1.00
H471   H     0.62025   0.82789   0.41060   0.00000  Uiso   1.00
C472   C     0.54104   0.83762   0.09346   0.00000  Uiso   1.00
C473   C     0.41235   0.81398   0.43307   0.00000  Uiso   1.00
C474   C     0.39827   0.80907   0.48649   0.00000  Uiso   1.00
C475   C     0.43240   0.81258   0.01403   0.00000  Uiso   1.00
C476   C     0.48263   0.81801   0.48793   0.00000  Uiso   1.00
C477   C     0.49769   0.81726   0.43295   0.00000  Uiso   1.00
C478   C     0.51834   0.82613   0.01430   0.00000  Uiso   1.00
C479   C     0.56640   0.83734   0.48555   0.00000  Uiso   1.00
C480   C     0.58196   0.82734   0.43271   0.00000  Uiso   1.00
C481   C     0.54852   0.81460   0.40778   0.00000  Uiso   1.00
C482   C     0.50783   0.82390   0.06798   0.00000  Uiso   1.00
C483   C     0.58496   0.85670   0.06540   0.00000  Uiso   1.00
C484   C     0.46167   0.81940   0.40562   0.00000  Uiso   1.00
H485   H     0.47411   0.81056   0.09084   0.00000  Uiso   1.00
H486   H     0.38439   0.81388   0.41329   0.00000  Uiso   1.00
H487   H     0.41812   0.81190   0.05567   0.00000  Uiso   1.00
H488   H     0.36006   0.80458   0.00702   0.00000  Uiso   1.00
H489   H     0.56387   0.80241   0.36902   0.00000  Uiso   1.00
C490   C     0.54214   0.97849   0.25115   0.00000  Uiso   1.00
H491   H     0.57505   0.96231   0.25225   0.00000  Uiso   1.00
C492   C     0.54223   0.68773   0.25114   0.00000  Uiso   1.00
H493   H     0.57514   0.70355   0.25229   0.00000  Uiso   1.00
C494   C     0.50016   0.70941   0.24980   0.00000  Uiso   1.00
C495   C     0.45798   0.68817   0.24846   0.00000  Uiso   1.00
H496   H     0.42508   0.70435   0.24734   0.00000  Uiso   1.00
C497   C     0.45787   0.97893   0.24855   0.00000  Uiso   1.00
H498   H     0.42492   0.96310   0.24753   0.00000  Uiso   1.00
C499   C     0.49994   0.95725   0.24991   0.00000  Uiso   1.00
C500   C     0.63349   0.86124   0.27950   0.00000  Uiso   1.00
H501   H     0.60814   0.88358   0.30322   0.00000  Uiso   1.00
C502   C     0.34970   0.86115   0.27958   0.00000  Uiso   1.00
H503   H     0.36162   0.88346   0.30336   0.00000  Uiso   1.00
N504   N     0.38265   0.83332   0.24998   0.00000  Uiso   1.00
C505   C     0.36701   0.80531   0.22097   0.00000  Uiso   1.00
H506   H     0.39335   0.78347   0.19756   0.00000  Uiso   1.00
C507   C     0.65086   0.80472   0.22074   0.00000  Uiso   1.00
N508   N     0.61735   0.83335   0.24999   0.00000  Uiso   1.00
N509   N     0.61191   0.87981   0.09294   0.00000  Uiso   1.00
H510   H     0.61795   0.91021   0.08279   0.00000  Uiso   1.00
C511   C     0.65237   0.85899   0.10446   0.00000  Uiso   1.00
H512   H     0.35442   0.87068   0.07970   0.00000  Uiso   1.00
H513   H     0.65114   0.82514   0.09867   0.00000  Uiso   1.00
H514   H     0.65067   0.86562   0.14538   0.00000  Uiso   1.00
C515   C     0.63757   0.77272   0.18759   0.00000  Uiso   1.00
H516   H     0.60612   0.77566   0.17385   0.00000  Uiso   1.00
O517   O     0.66297   0.74185   0.17404   0.00000  Uiso   1.00
C518   C     0.64144   0.87959   0.47842   0.00000  Uiso   1.00
H519   H     0.64441   0.88692   0.43851   0.00000  Uiso   1.00
O520   O     0.34073   0.89130   0.49572   0.00000  Uiso   1.00
O521   O     0.79375   0.89345   0.25000   0.00000  Uiso   1.00
O522   O     0.87294   0.89346   0.25000   0.00000  Uiso   1.00
C523   C     0.83326   0.91263   0.25002   0.00000  Uiso   1.00
O524   O     0.77441   0.83332   0.32549   0.00000  Uiso   1.00
O525   O     0.85360   0.83333   0.32549   0.00000  Uiso   1.00
C526   C     0.80793   0.82891   0.34955   0.00000  Uiso   1.00
Cu527  Cu    0.78645   0.83333   0.25000   0.00000  Uiso   1.00
Cu528  Cu    0.88022   0.83334   0.25000   0.00000  Uiso   1.00
O529   O     0.79373   0.77321   0.24999   0.00000  Uiso   1.00
O530   O     0.87292   0.77322   0.24999   0.00000  Uiso   1.00
O531   O     0.81306   0.83334   0.17451   0.00000  Uiso   1.00
O532   O     0.89225   0.83335   0.17451   0.00000  Uiso   1.00
C533   C     0.83344   0.75403   0.24987   0.00000  Uiso   1.00
C534   C     0.85938   0.83496   0.15019   0.00000  Uiso   1.00
C535   C     0.93145   0.85657   0.01041   0.00000  Uiso   1.00
H536   H     0.95358   0.82789   0.41060   0.00000  Uiso   1.00
C537   C     0.87437   0.83762   0.09346   0.00000  Uiso   1.00
C538   C     0.74569   0.81398   0.43307   0.00000  Uiso   1.00
C539   C     0.73160   0.80907   0.48649   0.00000  Uiso   1.00
C540   C     0.76573   0.81258   0.01403   0.00000  Uiso   1.00
C541   C     0.81596   0.81801   0.48793   0.00000  Uiso   1.00
C542   C     0.83103   0.81726   0.43295   0.00000  Uiso   1.00
C543   C     0.85167   0.82613   0.01430   0.00000  Uiso   1.00
C544   C     0.89973   0.83734   0.48555   0.00000  Uiso   1.00
C545   C     0.91529   0.82734   0.43271   0.00000  Uiso   1.00
C546   C     0.88186   0.81460   0.40778   0.00000  Uiso   1.00
C547   C     0.84117   0.82390   0.06798   0.00000  Uiso   1.00
C548   C     0.91829   0.85670   0.06540   0.00000  Uiso   1.00
C549   C     0.79501   0.81940   0.40562   0.00000  Uiso   1.00
H550   H     0.80745   0.81056   0.09084   0.00000  Uiso   1.00
H551   H     0.71772   0.81388   0.41329   0.00000  Uiso   1.00
H552   H     0.75145   0.81190   0.05567   0.00000  Uiso   1.00
H553   H     0.69340   0.80458   0.00702   0.00000  Uiso   1.00
H554   H     0.89720   0.80241   0.36902   0.00000  Uiso   1.00
C555   C     0.87547   0.97849   0.25115   0.00000  Uiso   1.00
H556   H     0.90838   0.96231   0.25225   0.00000  Uiso   1.00
C557   C     0.87556   0.68773   0.25114   0.00000  Uiso   1.00
H558   H     0.90847   0.70355   0.25229   0.00000  Uiso   1.00
C559   C     0.83349   0.70941   0.24980   0.00000  Uiso   1.00
C560   C     0.79132   0.68817   0.24846   0.00000  Uiso   1.00
H561   H     0.75841   0.70435   0.24734   0.00000  Uiso   1.00
C562   C     0.79120   0.97893   0.24855   0.00000  Uiso   1.00
H563   H     0.75825   0.96310   0.24753   0.00000  Uiso   1.00
C564   C     0.83327   0.95725   0.24991   0.00000  Uiso   1.00
C565   C     0.96682   0.86124   0.27950   0.00000  Uiso   1.00
H566   H     0.94148   0.88358   0.30322   0.00000  Uiso   1.00
C567   C     0.68303   0.86115   0.27958   0.00000  Uiso   1.00
H568   H     0.69496   0.88346   0.30336   0.00000  Uiso   1.00
N569   N     0.71598   0.83332   0.24998   0.00000  Uiso   1.00
C570   C     0.70034   0.80531   0.22097   0.00000  Uiso   1.00
H571   H     0.72669   0.78347   0.19756   0.00000  Uiso   1.00
C572   C     0.98419   0.80472   0.22074   0.00000  Uiso   1.00
N573   N     0.95069   0.83335   0.24999   0.00000  Uiso   1.00
N574   N     0.94525   0.87981   0.09294   0.00000  Uiso   1.00
H575   H     0.95128   0.91021   0.08279   0.00000  Uiso   1.00
C576   C     0.98570   0.85899   0.10446   0.00000  Uiso   1.00
H577   H     0.68775   0.87068   0.07970   0.00000  Uiso   1.00
H578   H     0.98448   0.82514   0.09867   0.00000  Uiso   1.00
H579   H     0.98400   0.86562   0.14538   0.00000  Uiso   1.00
C580   C     0.97090   0.77272   0.18759   0.00000  Uiso   1.00
H581   H     0.93945   0.77566   0.17385   0.00000  Uiso   1.00
O582   O     0.99630   0.74185   0.17404   0.00000  Uiso   1.00
C583   C     0.97477   0.87959   0.47842   0.00000  Uiso   1.00
H584   H     0.97774   0.88692   0.43851   0.00000  Uiso   1.00
O585   O     0.67407   0.89130   0.49572   0.00000  Uiso   1.00
O586   O     0.12708   0.22678   0.75000   0.00000  Uiso   1.00
O587   O     0.20627   0.22679   0.75000   0.00000  Uiso   1.00
C588   C     0.16659   0.24596   0.75002   0.00000  Uiso   1.00
O589   O     0.10775   0.16665   0.82549   0.00000  Uiso   1.00
O590   O     0.18694   0.16666   0.82549   0.00000  Uiso   1.00
C591   C     0.14126   0.16224   0.84955   0.00000  Uiso   1.00
Cu592  Cu    0.11978   0.16666   0.75000   0.00000  Uiso   1.00
Cu593  Cu    0.21355   0.16667   0.75000   0.00000  Uiso   1.00
O594   O     0.12706   0.10654   0.74999   0.00000  Uiso   1.00
O595   O     0.20625   0.10655   0.74999   0.00000  Uiso   1.00
O596   O     0.14640   0.16667   0.67451   0.00000  Uiso   1.00
O597   O     0.22559   0.16668   0.67451   0.00000  Uiso   1.00
C598   C     0.16677   0.08737   0.74987   0.00000  Uiso   1.00
C599   C     0.19272   0.16829   0.65019   0.00000  Uiso   1.00
C600   C     0.26478   0.18991   0.51041   0.00000  Uiso   1.00
H601   H     0.28691   0.16122   0.91060   0.00000  Uiso   1.00
C602   C     0.20771   0.17095   0.59346   0.00000  Uiso   1.00
C603   C     0.07902   0.14731   0.93307   0.00000  Uiso   1.00
C604   C     0.06493   0.14241   0.98649   0.00000  Uiso   1.00
C605   C     0.09906   0.14591   0.51403   0.00000  Uiso   1.00
C606   C     0.14929   0.15134   0.98793   0.00000  Uiso   1.00
C607   C     0.16436   0.15059   0.93295   0.00000  Uiso   1.00
C608   C     0.18501   0.15946   0.51430   0.00000  Uiso   1.00
C609   C     0.23306   0.17067   0.98555   0.00000  Uiso   1.00
C610   C     0.24863   0.16067   0.93271   0.00000  Uiso   1.00
C611   C     0.21519   0.14793   0.90778   0.00000  Uiso   1.00
C612   C     0.17450   0.15723   0.56798   0.00000  Uiso   1.00
C613   C     0.25162   0.19004   0.56540   0.00000  Uiso   1.00
C614   C     0.12834   0.15273   0.90562   0.00000  Uiso   1.00
H615   H     0.14078   0.14389   0.59084   0.00000  Uiso   1.00
H616   H     0.05105   0.14721   0.91329   0.00000  Uiso   1.00
H617   H     0.08478   0.14524   0.55567   0.00000  Uiso   1.00
H618   H     0.02673   0.13791   0.50702   0.00000  Uiso   1.00
H619   H     0.23054   0.13574   0.86902   0.00000  Uiso   1.00
C620   C     0.20880   0.31182   0.75115   0.00000  Uiso   1.00
H621   H     0.24172   0.29564   0.75225   0.00000  Uiso   1.00
C622   C     0.20890   0.02106   0.75114   0.00000  Uiso   1.00
H623   H     0.24180   0.03689   0.75229   0.00000  Uiso   1.00
C624   C     0.16682   0.04274   0.74980   0.00000  Uiso   1.00
C625   C     0.12465   0.02151   0.74846   0.00000  Uiso   1.00
H626   H     0.09174   0.03769   0.74734   0.00000  Uiso   1.00
C627   C     0.12454   0.31227   0.74855   0.00000  Uiso   1.00
H628   H     0.09158   0.29643   0.74753   0.00000  Uiso   1.00
C629   C     0.16661   0.29059   0.74991   0.00000  Uiso   1.00
C630   C     0.30016   0.19458   0.77950   0.00000  Uiso   1.00
H631   H     0.27481   0.21691   0.80322   0.00000  Uiso   1.00
C632   C     0.01637   0.19449   0.77958   0.00000  Uiso   1.00
H633   H     0.02829   0.21679   0.80336   0.00000  Uiso   1.00
N634   N     0.04931   0.16666   0.74998   0.00000  Uiso   1.00
C635   C     0.03367   0.13864   0.72097   0.00000  Uiso   1.00
H636   H     0.06002   0.11680   0.69756   0.00000  Uiso   1.00
C637   C     0.31753   0.13806   0.72074   0.00000  Uiso   1.00
N638   N     0.28402   0.16669   0.74999   0.00000  Uiso   1.00
N639   N     0.27858   0.21314   0.59294   0.00000  Uiso   1.00
H640   H     0.28462   0.24354   0.58279   0.00000  Uiso   1.00
C641   C     0.31904   0.19233   0.60446   0.00000  Uiso   1.00
H642   H     0.02108   0.20401   0.57970   0.00000  Uiso   1.00
H643   H     0.31781   0.15847   0.59867   0.00000  Uiso   1.00
H644   H     0.31734   0.19896   0.64538   0.00000  Uiso   1.00
C645   C     0.30424   0.10605   0.68759   0.00000  Uiso   1.00
H646   H     0.27279   0.10899   0.67385   0.00000  Uiso   1.00
O647   O     0.32964   0.07518   0.67404   0.00000  Uiso   1.00
C648   C     0.30811   0.21293   0.97842   0.00000  Uiso   1.00
H649   H     0.31107   0.22025   0.93851   0.00000  Uiso   1.00
O650   O     0.00740   0.22464   0.99572   0.00000  Uiso   1.00
O651   O     0.46042   0.22678   0.75000   0.00000  Uiso   1.00
O652   O     0.53961   0.22679   0.75000   0.00000  Uiso   1.00
C653   C     0.49993   0.24596   0.75002   0.00000  Uiso   1.00
O654   O     0.44108   0.16665   0.82549   0.00000  Uiso   1.00
O655   O     0.52027   0.16666   0.82549   0.00000  Uiso   1.00
C656   C     0.47460   0.16224   0.84955   0.00000  Uiso   1.00
Cu657  Cu    0.45311   0.16666   0.75000   0.00000  Uiso   1.00
Cu658  Cu    0.54689   0.16667   0.75000   0.00000  Uiso   1.00
O659   O     0.46039   0.10654   0.74999   0.00000  Uiso   1.00
O660   O     0.53958   0.10655   0.74999   0.00000  Uiso   1.00
O661   O     0.47973   0.16667   0.67451   0.00000  Uiso   1.00
O662   O     0.55892   0.16668   0.67451   0.00000  Uiso   1.00
C663   C     0.50011   0.08737   0.74987   0.00000  Uiso   1.00
C664   C     0.52605   0.16829   0.65019   0.00000  Uiso   1.00
C665   C     0.59811   0.18991   0.51041   0.00000  Uiso   1.00
H666   H     0.62025   0.16122   0.91060   0.00000  Uiso   1.00
C667   C     0.54104   0.17095   0.59346   0.00000  Uiso   1.00
C668   C     0.41235   0.14731   0.93307   0.00000  Uiso   1.00
C669   C     0.39827   0.14241   0.98649   0.00000  Uiso   1.00
C670   C     0.43240   0.14591   0.51403   0.00000  Uiso   1.00
C671   C     0.48263   0.15134   0.98793   0.00000  Uiso   1.00
C672   C     0.49769   0.15059   0.93295   0.00000  Uiso   1.00
C673   C     0.51834   0.15946   0.51430   0.00000  Uiso   1.00
C674   C     0.56640   0.17067   0.98555   0.00000  Uiso   1.00
C675   C     0.58196   0.16067   0.93271   0.00000  Uiso   1.00
C676   C     0.54852   0.14793   0.90778   0.00000  Uiso   1.00
C677   C     0.50783   0.15723   0.56798   0.00000  Uiso   1.00
C678   C     0.58496   0.19004   0.56540   0.00000  Uiso   1.00
C679   C     0.46167   0.15273   0.90562   0.00000  Uiso   1.00
H680   H     0.47411   0.14389   0.59084   0.00000  Uiso   1.00
H681   H     0.38439   0.14721   0.91329   0.00000  Uiso   1.00
H682   H     0.41812   0.14524   0.55567   0.00000  Uiso   1.00
H683   H     0.36006   0.13791   0.50702   0.00000  Uiso   1.00
H684   H     0.56387   0.13574   0.86902   0.00000  Uiso   1.00
C685   C     0.54214   0.31182   0.75115   0.00000  Uiso   1.00
H686   H     0.57505   0.29564   0.75225   0.00000  Uiso   1.00
C687   C     0.54223   0.02106   0.75114   0.00000  Uiso   1.00
H688   H     0.57514   0.03689   0.75229   0.00000  Uiso   1.00
C689   C     0.50016   0.04274   0.74980   0.00000  Uiso   1.00
C690   C     0.45798   0.02151   0.74846   0.00000  Uiso   1.00
H691   H     0.42508   0.03769   0.74734   0.00000  Uiso   1.00
C692   C     0.45787   0.31227   0.74855   0.00000  Uiso   1.00
H693   H     0.42492   0.29643   0.74753   0.00000  Uiso   1.00
C694   C     0.49994   0.29059   0.74991   0.00000  Uiso   1.00
C695   C     0.63349   0.19458   0.77950   0.00000  Uiso   1.00
H696   H     0.60814   0.21691   0.80322   0.00000  Uiso   1.00
C697   C     0.34970   0.19449   0.77958   0.00000  Uiso   1.00
H698   H     0.36162   0.21679   0.80336   0.00000  Uiso   1.00
N699   N     0.38265   0.16666   0.74998   0.00000  Uiso   1.00
C700   C     0.36701   0.13864   0.72097   0.00000  Uiso   1.00
H701   H     0.39335   0.11680   0.69756   0.00000  Uiso   1.00
C702   C     0.65086   0.13806   0.72074   0.00000  Uiso   1.00
N703   N     0.61735   0.16669   0.74999   0.00000  Uiso   1.00
N704   N     0.61191   0.21314   0.59294   0.00000  Uiso   1.00
H705   H     0.61795   0.24354   0.58279   0.00000  Uiso   1.00
C706   C     0.65237   0.19233   0.60446   0.00000  Uiso   1.00
H707   H     0.35442   0.20401   0.57970   0.00000  Uiso   1.00
H708   H     0.65114   0.15847   0.59867   0.00000  Uiso   1.00
H709   H     0.65067   0.19896   0.64538   0.00000  Uiso   1.00
C710   C     0.63757   0.10605   0.68759   0.00000  Uiso   1.00
H711   H     0.60612   0.10899   0.67385   0.00000  Uiso   1.00
O712   O     0.66297   0.07518   0.67404   0.00000  Uiso   1.00
C713   C     0.64144   0.21293   0.97842   0.00000  Uiso   1.00
H714   H     0.64441   0.22025   0.93851   0.00000  Uiso   1.00
O715   O     0.34073   0.22464   0.99572   0.00000  Uiso   1.00
O716   O     0.79375   0.22678   0.75000   0.00000  Uiso   1.00
O717   O     0.87294   0.22679   0.75000   0.00000  Uiso   1.00
C718   C     0.83326   0.24596   0.75002   0.00000  Uiso   1.00
O719   O     0.77441   0.16665   0.82549   0.00000  Uiso   1.00
O720   O     0.85360   0.16666   0.82549   0.00000  Uiso   1.00
C721   C     0.80793   0.16224   0.84955   0.00000  Uiso   1.00
Cu722  Cu    0.78645   0.16666   0.75000   0.00000  Uiso   1.00
Cu723  Cu    0.88022   0.16667   0.75000   0.00000  Uiso   1.00
O724   O     0.79373   0.10654   0.74999   0.00000  Uiso   1.00
O725   O     0.87292   0.10655   0.74999   0.00000  Uiso   1.00
O726   O     0.81306   0.16667   0.67451   0.00000  Uiso   1.00
O727   O     0.89225   0.16668   0.67451   0.00000  Uiso   1.00
C728   C     0.83344   0.08737   0.74987   0.00000  Uiso   1.00
C729   C     0.85938   0.16829   0.65019   0.00000  Uiso   1.00
C730   C     0.93145   0.18991   0.51041   0.00000  Uiso   1.00
H731   H     0.95358   0.16122   0.91060   0.00000  Uiso   1.00
C732   C     0.87437   0.17095   0.59346   0.00000  Uiso   1.00
C733   C     0.74569   0.14731   0.93307   0.00000  Uiso   1.00
C734   C     0.73160   0.14241   0.98649   0.00000  Uiso   1.00
C735   C     0.76573   0.14591   0.51403   0.00000  Uiso   1.00
C736   C     0.81596   0.15134   0.98793   0.00000  Uiso   1.00
C737   C     0.83103   0.15059   0.93295   0.00000  Uiso   1.00
C738   C     0.85167   0.15946   0.51430   0.00000  Uiso   1.00
C739   C     0.89973   0.17067   0.98555   0.00000  Uiso   1.00
C740   C     0.91529   0.16067   0.93271   0.00000  Uiso   1.00
C741   C     0.88186   0.14793   0.90778   0.00000  Uiso   1.00
C742   C     0.84117   0.15723   0.56798   0.00000  Uiso   1.00
C743   C     0.91829   0.19004   0.56540   0.00000  Uiso   1.00
C744   C     0.79501   0.15273   0.90562   0.00000  Uiso   1.00
H745   H     0.80745   0.14389   0.59084   0.00000  Uiso   1.00
H746   H     0.71772   0.14721   0.91329   0.00000  Uiso   1.00
H747   H     0.75145   0.14524   0.55567   0.00000  Uiso   1.00
H748   H     0.69340   0.13791   0.50702   0.00000  Uiso   1.00
H749   H     0.89720   0.13574   0.86902   0.00000  Uiso   1.00
C750   C     0.87547   0.31182   0.75115   0.00000  Uiso   1.00
H751   H     0.90838   0.29564   0.75225   0.00000  Uiso   1.00
C752   C     0.87556   0.02106   0.75114   0.00000  Uiso   1.00
H753   H     0.90847   0.03689   0.75229   0.00000  Uiso   1.00
C754   C     0.83349   0.04274   0.74980   0.00000  Uiso   1.00
C755   C     0.79132   0.02151   0.74846   0.00000  Uiso   1.00
H756   H     0.75841   0.03769   0.74734   0.00000  Uiso   1.00
C757   C     0.79120   0.31227   0.74855   0.00000  Uiso   1.00
H758   H     0.75825   0.29643   0.74753   0.00000  Uiso   1.00
C759   C     0.83327   0.29059   0.74991   0.00000  Uiso   1.00
C760   C     0.96682   0.19458   0.77950   0.00000  Uiso   1.00
H761   H     0.94148   0.21691   0.80322   0.00000  Uiso   1.00
C762   C     0.68303   0.19449   0.77958   0.00000  Uiso   1.00
H763   H     0.69496   0.21679   0.80336   0.00000  Uiso   1.00
N764   N     0.71598   0.16666   0.74998   0.00000  Uiso   1.00
C765   C     0.70034   0.13864   0.72097   0.00000  Uiso   1.00
H766   H     0.72669   0.11680   0.69756   0.00000  Uiso   1.00
C767   C     0.98419   0.13806   0.72074   0.00000  Uiso   1.00
N768   N     0.95069   0.16669   0.74999   0.00000  Uiso   1.00
N769   N     0.94525   0.21314   0.59294   0.00000  Uiso   1.00
H770   H     0.95128   0.24354   0.58279   0.00000  Uiso   1.00
C771   C     0.98570   0.19233   0.60446   0.00000  Uiso   1.00
H772   H     0.68775   0.20401   0.57970   0.00000  Uiso   1.00
H773   H     0.98448   0.15847   0.59867   0.00000  Uiso   1.00
H774   H     0.98400   0.19896   0.64538   0.00000  Uiso   1.00
C775   C     0.97090   0.10605   0.68759   0.00000  Uiso   1.00
H776   H     0.93945   0.10899   0.67385   0.00000  Uiso   1.00
O777   O     0.99630   0.07518   0.67404   0.00000  Uiso   1.00
C778   C     0.97477   0.21293   0.97842   0.00000  Uiso   1.00
H779   H     0.97774   0.22025   0.93851   0.00000  Uiso   1.00
O780   O     0.67407   0.22464   0.99572   0.00000  Uiso   1.00
O781   O     0.12708   0.56011   0.75000   0.00000  Uiso   1.00
O782   O     0.20627   0.56012   0.75000   0.00000  Uiso   1.00
C783   C     0.16659   0.57930   0.75002   0.00000  Uiso   1.00
O784   O     0.10775   0.49998   0.82549   0.00000  Uiso   1.00
O785   O     0.18694   0.49999   0.82549   0.00000  Uiso   1.00
C786   C     0.14126   0.49558   0.84955   0.00000  Uiso   1.00
Cu787  Cu    0.11978   0.49999   0.75000   0.00000  Uiso   1.00
Cu788  Cu    0.21355   0.50001   0.75000   0.00000  Uiso   1.00
O789   O     0.12706   0.43988   0.74999   0.00000  Uiso   1.00
O790   O     0.20625   0.43989   0.74999   0.00000  Uiso   1.00
O791   O     0.14640   0.50001   0.67451   0.00000  Uiso   1.00
O792   O     0.22559   0.50002   0.67451   0.00000  Uiso   1.00
C793   C     0.16677   0.42070   0.74987   0.00000  Uiso   1.00
C794   C     0.19272   0.50163   0.65019   0.00000  Uiso   1.00
C795   C     0.26478   0.52324   0.51041   0.00000  Uiso   1.00
H796   H     0.28691   0.49455   0.91060   0.00000  Uiso   1.00
C797   C     0.20771   0.50428   0.59346   0.00000  Uiso   1.00
C798   C     0.07902   0.48065   0.93307   0.00000  Uiso   1.00
C799   C     0.06493   0.47574   0.98649   0.00000  Uiso   1.00
C800   C     0.09906   0.47924   0.51403   0.00000  Uiso   1.00
C801   C     0.14929   0.48467   0.98793   0.00000  Uiso   1.00
C802   C     0.16436   0.48393   0.93295   0.00000  Uiso   1.00
C803   C     0.18501   0.49279   0.51430   0.00000  Uiso   1.00
C804   C     0.23306   0.50401   0.98555   0.00000  Uiso   1.00
C805   C     0.24863   0.49401   0.93271   0.00000  Uiso   1.00
C806   C     0.21519   0.48127   0.90778   0.00000  Uiso   1.00
C807   C     0.17450   0.49057   0.56798   0.00000  Uiso   1.00
C808   C     0.25162   0.52337   0.56540   0.00000  Uiso   1.00
C809   C     0.12834   0.48606   0.90562   0.00000  Uiso   1.00
H810   H     0.14078   0.47722   0.59084   0.00000  Uiso   1.00
H811   H     0.05105   0.48054   0.91329   0.00000  Uiso   1.00
H812   H     0.08478   0.47857   0.55567   0.00000  Uiso   1.00
H813   H     0.02673   0.47125   0.50702   0.00000  Uiso   1.00
H814   H     0.23054   0.46907   0.86902   0.00000  Uiso   1.00
C815   C     0.20880   0.64516   0.75115   0.00000  Uiso   1.00
H816   H     0.24172   0.62898   0.75225   0.00000  Uiso   1.00
C817   C     0.20890   0.35440   0.75114   0.00000  Uiso   1.00
H818   H     0.24180   0.37022   0.75229   0.00000  Uiso   1.00
C819   C     0.16682   0.37608   0.74980   0.00000  Uiso   1.00
C820   C     0.12465   0.35484   0.74846   0.00000  Uiso   1.00
H821   H     0.09174   0.37102   0.74734   0.00000  Uiso   1.00
C822   C     0.12454   0.64560   0.74855   0.00000  Uiso   1.00
H823   H     0.09158   0.62976   0.74753   0.00000  Uiso   1.00
C824   C     0.16661   0.62392   0.74991   0.00000  Uiso   1.00
C825   C     0.30016   0.52791   0.77950   0.00000  Uiso   1.00
H826   H     0.27481   0.55024   0.80322   0.00000  Uiso   1.00
C827   C     0.01637   0.52782   0.77958   0.00000  Uiso   1.00
H828   H     0.02829   0.55012   0.80336   0.00000  Uiso   1.00
N829   N     0.04931   0.49999   0.74998   0.00000  Uiso   1.00
C830   C     0.03367   0.47197   0.72097   0.00000  Uiso   1.00
H831   H     0.06002   0.45014   0.69756   0.00000  Uiso   1.00
C832   C     0.31753   0.47139   0.72074   0.00000  Uiso   1.00
N833   N     0.28402   0.50002   0.74999   0.00000  Uiso   1.00
N834   N     0.27858   0.54647   0.59294   0.00000  Uiso   1.00
H835   H     0.28462   0.57688   0.58279   0.00000  Uiso   1.00
C836   C     0.31904   0.52566   0.60446   0.00000  Uiso   1.00
H837   H     0.02108   0.53735   0.57970   0.00000  Uiso   1.00
H838   H     0.31781   0.49180   0.59867   0.00000  Uiso   1.00
H839   H     0.31734   0.53229   0.64538   0.00000  Uiso   1.00
C840   C     0.30424   0.43938   0.68759   0.00000  Uiso   1.00
H841   H     0.27279   0.44232   0.67385   0.00000  Uiso   1.00
O842   O     0.32964   0.40851   0.67404   0.00000  Uiso   1.00
C843   C     0.30811   0.54626   0.97842   0.00000  Uiso   1.00
H844   H     0.31107   0.55359   0.93851   0.00000  Uiso   1.00
O845   O     0.00740   0.55797   0.99572   0.00000  Uiso   1.00
O846   O     0.46042   0.56011   0.75000   0.00000  Uiso   1.00
O847   O     0.53961   0.56012   0.75000   0.00000  Uiso   1.00
C848   C     0.49993   0.57930   0.75002   0.00000  Uiso   1.00
O849   O     0.44108   0.49998   0.82549   0.00000  Uiso   1.00
O850   O     0.52027   0.49999   0.82549   0.00000  Uiso   1.00
C851   C     0.47460   0.49558   0.84955   0.00000  Uiso   1.00
Cu852  Cu    0.45311   0.49999   0.75000   0.00000  Uiso   1.00
Cu853  Cu    0.54689   0.50001   0.75000   0.00000  Uiso   1.00
O854   O     0.46039   0.43988   0.74999   0.00000  Uiso   1.00
O855   O     0.53958   0.43989   0.74999   0.00000  Uiso   1.00
O856   O     0.47973   0.50001   0.67451   0.00000  Uiso   1.00
O857   O     0.55892   0.50002   0.67451   0.00000  Uiso   1.00
C858   C     0.50011   0.42070   0.74987   0.00000  Uiso   1.00
C859   C     0.52605   0.50163   0.65019   0.00000  Uiso   1.00
C860   C     0.59811   0.52324   0.51041   0.00000  Uiso   1.00
H861   H     0.62025   0.49455   0.91060   0.00000  Uiso   1.00
C862   C     0.54104   0.50428   0.59346   0.00000  Uiso   1.00
C863   C     0.41235   0.48065   0.93307   0.00000  Uiso   1.00
C864   C     0.39827   0.47574   0.98649   0.00000  Uiso   1.00
C865   C     0.43240   0.47924   0.51403   0.00000  Uiso   1.00
C866   C     0.48263   0.48467   0.98793   0.00000  Uiso   1.00
C867   C     0.49769   0.48393   0.93295   0.00000  Uiso   1.00
C868   C     0.51834   0.49279   0.51430   0.00000  Uiso   1.00
C869   C     0.56640   0.50401   0.98555   0.00000  Uiso   1.00
C870   C     0.58196   0.49401   0.93271   0.00000  Uiso   1.00
C871   C     0.54852   0.48127   0.90778   0.00000  Uiso   1.00
C872   C     0.50783   0.49057   0.56798   0.00000  Uiso   1.00
C873   C     0.58496   0.52337   0.56540   0.00000  Uiso   1.00
C874   C     0.46167   0.48606   0.90562   0.00000  Uiso   1.00
H875   H     0.47411   0.47722   0.59084   0.00000  Uiso   1.00
H876   H     0.38439   0.48054   0.91329   0.00000  Uiso   1.00
H877   H     0.41812   0.47857   0.55567   0.00000  Uiso   1.00
H878   H     0.36006   0.47125   0.50702   0.00000  Uiso   1.00
H879   H     0.56387   0.46907   0.86902   0.00000  Uiso   1.00
C880   C     0.54214   0.64516   0.75115   0.00000  Uiso   1.00
H881   H     0.57505   0.62898   0.75225   0.00000  Uiso   1.00
C882   C     0.54223   0.35440   0.75114   0.00000  Uiso   1.00
H883   H     0.57514   0.37022   0.75229   0.00000  Uiso   1.00
C884   C     0.50016   0.37608   0.74980   0.00000  Uiso   1.00
C885   C     0.45798   0.35484   0.74846   0.00000  Uiso   1.00
H886   H     0.42508   0.37102   0.74734   0.00000  Uiso   1.00
C887   C     0.45787   0.64560   0.74855   0.00000  Uiso   1.00
H888   H     0.42492   0.62976   0.74753   0.00000  Uiso   1.00
C889   C     0.49994   0.62392   0.74991   0.00000  Uiso   1.00
C890   C     0.63349   0.52791   0.77950   0.00000  Uiso   1.00
H891   H     0.60814   0.55024   0.80322   0.00000  Uiso   1.00
C892   C     0.34970   0.52782   0.77958   0.00000  Uiso   1.00
H893   H     0.36162   0.55012   0.80336   0.00000  Uiso   1.00
N894   N     0.38265   0.49999   0.74998   0.00000  Uiso   1.00
C895   C     0.36701   0.47197   0.72097   0.00000  Uiso   1.00
H896   H     0.39335   0.45014   0.69756   0.00000  Uiso   1.00
C897   C     0.65086   0.47139   0.72074   0.00000  Uiso   1.00
N898   N     0.61735   0.50002   0.74999   0.00000  Uiso   1.00
N899   N     0.61191   0.54647   0.59294   0.00000  Uiso   1.00
H900   H     0.61795   0.57688   0.58279   0.00000  Uiso   1.00
C901   C     0.65237   0.52566   0.60446   0.00000  Uiso   1.00
H902   H     0.35442   0.53735   0.57970   0.00000  Uiso   1.00
H903   H     0.65114   0.49180   0.59867   0.00000  Uiso   1.00
H904   H     0.65067   0.53229   0.64538   0.00000  Uiso   1.00
C905   C     0.63757   0.43938   0.68759   0.00000  Uiso   1.00
H906   H     0.60612   0.44232   0.67385   0.00000  Uiso   1.00
O907   O     0.66297   0.40851   0.67404   0.00000  Uiso   1.00
C908   C     0.64144   0.54626   0.97842   0.00000  Uiso   1.00
H909   H     0.64441   0.55359   0.93851   0.00000  Uiso   1.00
O910   O     0.34073   0.55797   0.99572   0.00000  Uiso   1.00
O911   O     0.79375   0.56011   0.75000   0.00000  Uiso   1.00
O912   O     0.87294   0.56012   0.75000   0.00000  Uiso   1.00
C913   C     0.83326   0.57930   0.75002   0.00000  Uiso   1.00
O914   O     0.77441   0.49998   0.82549   0.00000  Uiso   1.00
O915   O     0.85360   0.49999   0.82549   0.00000  Uiso   1.00
C916   C     0.80793   0.49558   0.84955   0.00000  Uiso   1.00
Cu917  Cu    0.78645   0.49999   0.75000   0.00000  Uiso   1.00
Cu918  Cu    0.88022   0.50001   0.75000   0.00000  Uiso   1.00
O919   O     0.79373   0.43988   0.74999   0.00000  Uiso   1.00
O920   O     0.87292   0.43989   0.74999   0.00000  Uiso   1.00
O921   O     0.81306   0.50001   0.67451   0.00000  Uiso   1.00
O922   O     0.89225   0.50002   0.67451   0.00000  Uiso   1.00
C923   C     0.83344   0.42070   0.74987   0.00000  Uiso   1.00
C924   C     0.85938   0.50163   0.65019   0.00000  Uiso   1.00
C925   C     0.93145   0.52324   0.51041   0.00000  Uiso   1.00
H926   H     0.95358   0.49455   0.91060   0.00000  Uiso   1.00
C927   C     0.87437   0.50428   0.59346   0.00000  Uiso   1.00
C928   C     0.74569   0.48065   0.93307   0.00000  Uiso   1.00
C929   C     0.73160   0.47574   0.98649   0.00000  Uiso   1.00
C930   C     0.76573   0.47924   0.51403   0.00000  Uiso   1.00
C931   C     0.81596   0.48467   0.98793   0.00000  Uiso   1.00
C932   C     0.83103   0.48393   0.93295   0.00000  Uiso   1.00
C933   C     0.85167   0.49279   0.51430   0.00000  Uiso   1.00
C934   C     0.89973   0.50401   0.98555   0.00000  Uiso   1.00
C935   C     0.91529   0.49401   0.93271   0.00000  Uiso   1.00
C936   C     0.88186   0.48127   0.90778   0.00000  Uiso   1.00
C937   C     0.84117   0.49057   0.56798   0.00000  Uiso   1.00
C938   C     0.91829   0.52337   0.56540   0.00000  Uiso   1.00
C939   C     0.79501   0.48606   0.90562   0.00000  Uiso   1.00
H940   H     0.80745   0.47722   0.59084   0.00000  Uiso   1.00
H941   H     0.71772   0.48054   0.91329   0.00000  Uiso   1.00
H942   H     0.75145   0.47857   0.55567   0.00000  Uiso   1.00
H943   H     0.69340   0.47125   0.50702   0.00000  Uiso   1.00
H944   H     0.89720   0.46907   0.86902   0.00000  Uiso   1.00
C945   C     0.87547   0.64516   0.75115   0.00000  Uiso   1.00
H946   H     0.90838   0.62898   0.75225   0.00000  Uiso   1.00
C947   C     0.87556   0.35440   0.75114   0.00000  Uiso   1.00
H948   H     0.90847   0.37022   0.75229   0.00000  Uiso   1.00
C949   C     0.83349   0.37608   0.74980   0.00000  Uiso   1.00
C950   C     0.79132   0.35484   0.74846   0.00000  Uiso   1.00
H951   H     0.75841   0.37102   0.74734   0.00000  Uiso   1.00
C952   C     0.79120   0.64560   0.74855   0.00000  Uiso   1.00
H953   H     0.75825   0.62976   0.74753   0.00000  Uiso   1.00
C954   C     0.83327   0.62392   0.74991   0.00000  Uiso   1.00
C955   C     0.96682   0.52791   0.77950   0.00000  Uiso   1.00
H956   H     0.94148   0.55024   0.80322   0.00000  Uiso   1.00
C957   C     0.68303   0.52782   0.77958   0.00000  Uiso   1.00
H958   H     0.69496   0.55012   0.80336   0.00000  Uiso   1.00
N959   N     0.71598   0.49999   0.74998   0.00000  Uiso   1.00
C960   C     0.70034   0.47197   0.72097   0.00000  Uiso   1.00
H961   H     0.72669   0.45014   0.69756   0.00000  Uiso   1.00
C962   C     0.98419   0.47139   0.72074   0.00000  Uiso   1.00
N963   N     0.95069   0.50002   0.74999   0.00000  Uiso   1.00
N964   N     0.94525   0.54647   0.59294   0.00000  Uiso   1.00
H965   H     0.95128   0.57688   0.58279   0.00000  Uiso   1.00
C966   C     0.98570   0.52566   0.60446   0.00000  Uiso   1.00
H967   H     0.68775   0.53735   0.57970   0.00000  Uiso   1.00
H968   H     0.98448   0.49180   0.59867   0.00000  Uiso   1.00
H969   H     0.98400   0.53229   0.64538   0.00000  Uiso   1.00
C970   C     0.97090   0.43938   0.68759   0.00000  Uiso   1.00
H971   H     0.93945   0.44232   0.67385   0.00000  Uiso   1.00
O972   O     0.99630   0.40851   0.67404   0.00000  Uiso   1.00
C973   C     0.97477   0.54626   0.97842   0.00000  Uiso   1.00
H974   H     0.97774   0.55359   0.93851   0.00000  Uiso   1.00
O975   O     0.67407   0.55797   0.99572   0.00000  Uiso   1.00
O976   O     0.12708   0.89345   0.75000   0.00000  Uiso   1.00
O977   O     0.20627   0.89346   0.75000   0.00000  Uiso   1.00
C978   C     0.16659   0.91263   0.75002   0.00000  Uiso   1.00
O979   O     0.10775   0.83332   0.82549   0.00000  Uiso   1.00
O980   O     0.18694   0.83333   0.82549   0.00000  Uiso   1.00
C981   C     0.14126   0.82891   0.84955   0.00000  Uiso   1.00
Cu982  Cu    0.11978   0.83333   0.75000   0.00000  Uiso   1.00
Cu983  Cu    0.21355   0.83334   0.75000   0.00000  Uiso   1.00
O984   O     0.12706   0.77321   0.74999   0.00000  Uiso   1.00
O985   O     0.20625   0.77322   0.74999   0.00000  Uiso   1.00
O986   O     0.14640   0.83334   0.67451   0.00000  Uiso   1.00
O987   O     0.22559   0.83335   0.67451   0.00000  Uiso   1.00
C988   C     0.16677   0.75403   0.74987   0.00000  Uiso   1.00
C989   C     0.19272   0.83496   0.65019   0.00000  Uiso   1.00
C990   C     0.26478   0.85657   0.51041   0.00000  Uiso   1.00
H991   H     0.28691   0.82789   0.91060   0.00000  Uiso   1.00
C992   C     0.20771   0.83762   0.59346   0.00000  Uiso   1.00
C993   C     0.07902   0.81398   0.93307   0.00000  Uiso   1.00
C994   C     0.06493   0.80907   0.98649   0.00000  Uiso   1.00
C995   C     0.09906   0.81258   0.51403   0.00000  Uiso   1.00
C996   C     0.14929   0.81801   0.98793   0.00000  Uiso   1.00
C997   C     0.16436   0.81726   0.93295   0.00000  Uiso   1.00
C998   C     0.18501   0.82613   0.51430   0.00000  Uiso   1.00
C999   C     0.23306   0.83734   0.98555   0.00000  Uiso   1.00
C1000  C     0.24863   0.82734   0.93271   0.00000  Uiso   1.00
C1001  C     0.21519   0.81460   0.90778   0.00000  Uiso   1.00
C1002  C     0.17450   0.82390   0.56798   0.00000  Uiso   1.00
C1003  C     0.25162   0.85670   0.56540   0.00000  Uiso   1.00
C1004  C     0.12834   0.81940   0.90562   0.00000  Uiso   1.00
H1005  H     0.14078   0.81056   0.59084   0.00000  Uiso   1.00
H1006  H     0.05105   0.81388   0.91329   0.00000  Uiso   1.00
H1007  H     0.08478   0.81190   0.55567   0.00000  Uiso   1.00
H1008  H     0.02673   0.80458   0.50702   0.00000  Uiso   1.00
H1009  H     0.23054   0.80241   0.86902   0.00000  Uiso   1.00
C1010  C     0.20880   0.97849   0.75115   0.00000  Uiso   1.00
H1011  H     0.24172   0.96231   0.75225   0.00000  Uiso   1.00
C1012  C     0.20890   0.68773   0.75114   0.00000  Uiso   1.00
H1013  H     0.24180   0.70355   0.75229   0.00000  Uiso   1.00
C1014  C     0.16682   0.70941   0.74980   0.00000  Uiso   1.00
C1015  C     0.12465   0.68817   0.74846   0.00000  Uiso   1.00
H1016  H     0.09174   0.70435   0.74734   0.00000  Uiso   1.00
C1017  C     0.12454   0.97893   0.74855   0.00000  Uiso   1.00
H1018  H     0.09158   0.96310   0.74753   0.00000  Uiso   1.00
C1019  C     0.16661   0.95725   0.74991   0.00000  Uiso   1.00
C1020  C     0.30016   0.86124   0.77950   0.00000  Uiso   1.00
H1021  H     0.27481   0.88358   0.80322   0.00000  Uiso   1.00
C1022  C     0.01637   0.86115   0.77958   0.00000  Uiso   1.00
H1023  H     0.02829   0.88346   0.80336   0.00000  Uiso   1.00
N1024  N     0.04931   0.83332   0.74998   0.00000  Uiso   1.00
C1025  C     0.03367   0.80531   0.72097   0.00000  Uiso   1.00
H1026  H     0.06002   0.78347   0.69756   0.00000  Uiso   1.00
C1027  C     0.31753   0.80472   0.72074   0.00000  Uiso   1.00
N1028  N     0.28402   0.83335   0.74999   0.00000  Uiso   1.00
N1029  N     0.27858   0.87981   0.59294   0.00000  Uiso   1.00
H1030  H     0.28462   0.91021   0.58279   0.00000  Uiso   1.00
C1031  C     0.31904   0.85899   0.60446   0.00000  Uiso   1.00
H1032  H     0.02108   0.87068   0.57970   0.00000  Uiso   1.00
H1033  H     0.31781   0.82514   0.59867   0.00000  Uiso   1.00
H1034  H     0.31734   0.86562   0.64538   0.00000  Uiso   1.00
C1035  C     0.30424   0.77272   0.68759   0.00000  Uiso   1.00
H1036  H     0.27279   0.77566   0.67385   0.00000  Uiso   1.00
O1037  O     0.32964   0.74185   0.67404   0.00000  Uiso   1.00
C1038  C     0.30811   0.87959   0.97842   0.00000  Uiso   1.00
H1039  H     0.31107   0.88692   0.93851   0.00000  Uiso   1.00
O1040  O     0.00740   0.89130   0.99572   0.00000  Uiso   1.00
O1041  O     0.46042   0.89345   0.75000   0.00000  Uiso   1.00
O1042  O     0.53961   0.89346   0.75000   0.00000  Uiso   1.00
C1043  C     0.49993   0.91263   0.75002   0.00000  Uiso   1.00
O1044  O     0.44108   0.83332   0.82549   0.00000  Uiso   1.00
O1045  O     0.52027   0.83333   0.82549   0.00000  Uiso   1.00
C1046  C     0.47460   0.82891   0.84955   0.00000  Uiso   1.00
Cu1047 Cu    0.45311   0.83333   0.75000   0.00000  Uiso   1.00
Cu1048 Cu    0.54689   0.83334   0.75000   0.00000  Uiso   1.00
O1049  O     0.46039   0.77321   0.74999   0.00000  Uiso   1.00
O1050  O     0.53958   0.77322   0.74999   0.00000  Uiso   1.00
O1051  O     0.47973   0.83334   0.67451   0.00000  Uiso   1.00
O1052  O     0.55892   0.83335   0.67451   0.00000  Uiso   1.00
C1053  C     0.50011   0.75403   0.74987   0.00000  Uiso   1.00
C1054  C     0.52605   0.83496   0.65019   0.00000  Uiso   1.00
C1055  C     0.59811   0.85657   0.51041   0.00000  Uiso   1.00
H1056  H     0.62025   0.82789   0.91060   0.00000  Uiso   1.00
C1057  C     0.54104   0.83762   0.59346   0.00000  Uiso   1.00
C1058  C     0.41235   0.81398   0.93307   0.00000  Uiso   1.00
C1059  C     0.39827   0.80907   0.98649   0.00000  Uiso   1.00
C1060  C     0.43240   0.81258   0.51403   0.00000  Uiso   1.00
C1061  C     0.48263   0.81801   0.98793   0.00000  Uiso   1.00
C1062  C     0.49769   0.81726   0.93295   0.00000  Uiso   1.00
C1063  C     0.51834   0.82613   0.51430   0.00000  Uiso   1.00
C1064  C     0.56640   0.83734   0.98555   0.00000  Uiso   1.00
C1065  C     0.58196   0.82734   0.93271   0.00000  Uiso   1.00
C1066  C     0.54852   0.81460   0.90778   0.00000  Uiso   1.00
C1067  C     0.50783   0.82390   0.56798   0.00000  Uiso   1.00
C1068  C     0.58496   0.85670   0.56540   0.00000  Uiso   1.00
C1069  C     0.46167   0.81940   0.90562   0.00000  Uiso   1.00
H1070  H     0.47411   0.81056   0.59084   0.00000  Uiso   1.00
H1071  H     0.38439   0.81388   0.91329   0.00000  Uiso   1.00
H1072  H     0.41812   0.81190   0.55567   0.00000  Uiso   1.00
H1073  H     0.36006   0.80458   0.50702   0.00000  Uiso   1.00
H1074  H     0.56387   0.80241   0.86902   0.00000  Uiso   1.00
C1075  C     0.54214   0.97849   0.75115   0.00000  Uiso   1.00
H1076  H     0.57505   0.96231   0.75225   0.00000  Uiso   1.00
C1077  C     0.54223   0.68773   0.75114   0.00000  Uiso   1.00
H1078  H     0.57514   0.70355   0.75229   0.00000  Uiso   1.00
C1079  C     0.50016   0.70941   0.74980   0.00000  Uiso   1.00
C1080  C     0.45798   0.68817   0.74846   0.00000  Uiso   1.00
H1081  H     0.42508   0.70435   0.74734   0.00000  Uiso   1.00
C1082  C     0.45787   0.97893   0.74855   0.00000  Uiso   1.00
H1083  H     0.42492   0.96310   0.74753   0.00000  Uiso   1.00
C1084  C     0.49994   0.95725   0.74991   0.00000  Uiso   1.00
C1085  C     0.63349   0.86124   0.77950   0.00000  Uiso   1.00
H1086  H     0.60814   0.88358   0.80322   0.00000  Uiso   1.00
C1087  C     0.34970   0.86115   0.77958   0.00000  Uiso   1.00
H1088  H     0.36162   0.88346   0.80336   0.00000  Uiso   1.00
N1089  N     0.38265   0.83332   0.74998   0.00000  Uiso   1.00
C1090  C     0.36701   0.80531   0.72097   0.00000  Uiso   1.00
H1091  H     0.39335   0.78347   0.69756   0.00000  Uiso   1.00
C1092  C     0.65086   0.80472   0.72074   0.00000  Uiso   1.00
N1093  N     0.61735   0.83335   0.74999   0.00000  Uiso   1.00
N1094  N     0.61191   0.87981   0.59294   0.00000  Uiso   1.00
H1095  H     0.61795   0.91021   0.58279   0.00000  Uiso   1.00
C1096  C     0.65237   0.85899   0.60446   0.00000  Uiso   1.00
H1097  H     0.35442   0.87068   0.57970   0.00000  Uiso   1.00
H1098  H     0.65114   0.82514   0.59867   0.00000  Uiso   1.00
H1099  H     0.65067   0.86562   0.64538   0.00000  Uiso   1.00
C1100  C     0.63757   0.77272   0.68759   0.00000  Uiso   1.00
H1101  H     0.60612   0.77566   0.67385   0.00000  Uiso   1.00
O1102  O     0.66297   0.74185   0.67404   0.00000  Uiso   1.00
C1103  C     0.64144   0.87959   0.97842   0.00000  Uiso   1.00
H1104  H     0.64441   0.88692   0.93851   0.00000  Uiso   1.00
O1105  O     0.34073   0.89130   0.99572   0.00000  Uiso   1.00
O1106  O     0.79375   0.89345   0.75000   0.00000  Uiso   1.00
O1107  O     0.87294   0.89346   0.75000   0.00000  Uiso   1.00
C1108  C     0.83326   0.91263   0.75002   0.00000  Uiso   1.00
O1109  O     0.77441   0.83332   0.82549   0.00000  Uiso   1.00
O1110  O     0.85360   0.83333   0.82549   0.00000  Uiso   1.00
C1111  C     0.80793   0.82891   0.84955   0.00000  Uiso   1.00
Cu1112 Cu    0.78645   0.83333   0.75000   0.00000  Uiso   1.00
Cu1113 Cu    0.88022   0.83334   0.75000   0.00000  Uiso   1.00
O1114  O     0.79373   0.77321   0.74999   0.00000  Uiso   1.00
O1115  O     0.87292   0.77322   0.74999   0.00000  Uiso   1.00
O1116  O     0.81306   0.83334   0.67451   0.00000  Uiso   1.00
O1117  O     0.89225   0.83335   0.67451   0.00000  Uiso   1.00
C1118  C     0.83344   0.75403   0.74987   0.00000  Uiso   1.00
C1119  C     0.85938   0.83496   0.65019   0.00000  Uiso   1.00
C1120  C     0.93145   0.85657   0.51041   0.00000  Uiso   1.00
H1121  H     0.95358   0.82789   0.91060   0.00000  Uiso   1.00
C1122  C     0.87437   0.83762   0.59346   0.00000  Uiso   1.00
C1123  C     0.74569   0.81398   0.93307   0.00000  Uiso   1.00
C1124  C     0.73160   0.80907   0.98649   0.00000  Uiso   1.00
C1125  C     0.76573   0.81258   0.51403   0.00000  Uiso   1.00
C1126  C     0.81596   0.81801   0.98793   0.00000  Uiso   1.00
C1127  C     0.83103   0.81726   0.93295   0.00000  Uiso   1.00
C1128  C     0.85167   0.82613   0.51430   0.00000  Uiso   1.00
C1129  C     0.89973   0.83734   0.98555   0.00000  Uiso   1.00
C1130  C     0.91529   0.82734   0.93271   0.00000  Uiso   1.00
C1131  C     0.88186   0.81460   0.90778   0.00000  Uiso   1.00
C1132  C     0.84117   0.82390   0.56798   0.00000  Uiso   1.00
C1133  C     0.91829   0.85670   0.56540   0.00000  Uiso   1.00
C1134  C     0.79501   0.81940   0.90562   0.00000  Uiso   1.00
H1135  H     0.80745   0.81056   0.59084   0.00000  Uiso   1.00
H1136  H     0.71772   0.81388   0.91329   0.00000  Uiso   1.00
H1137  H     0.75145   0.81190   0.55567   0.00000  Uiso   1.00
H1138  H     0.69340   0.80458   0.50702   0.00000  Uiso   1.00
H1139  H     0.89720   0.80241   0.86902   0.00000  Uiso   1.00
C1140  C     0.87547   0.97849   0.75115   0.00000  Uiso   1.00
H1141  H     0.90838   0.96231   0.75225   0.00000  Uiso   1.00
C1142  C     0.87556   0.68773   0.75114   0.00000  Uiso   1.00
H1143  H     0.90847   0.70355   0.75229   0.00000  Uiso   1.00
C1144  C     0.83349   0.70941   0.74980   0.00000  Uiso   1.00
C1145  C     0.79132   0.68817   0.74846   0.00000  Uiso   1.00
H1146  H     0.75841   0.70435   0.74734   0.00000  Uiso   1.00
C1147  C     0.79120   0.97893   0.74855   0.00000  Uiso   1.00
H1148  H     0.75825   0.96310   0.74753   0.00000  Uiso   1.00
C1149  C     0.83327   0.95725   0.74991   0.00000  Uiso   1.00
C1150  C     0.96682   0.86124   0.77950   0.00000  Uiso   1.00
H1151  H     0.94148   0.88358   0.80322   0.00000  Uiso   1.00
C1152  C     0.68303   0.86115   0.77958   0.00000  Uiso   1.00
H1153  H     0.69496   0.88346   0.80336   0.00000  Uiso   1.00
N1154  N     0.71598   0.83332   0.74998   0.00000  Uiso   1.00
C1155  C     0.70034   0.80531   0.72097   0.00000  Uiso   1.00
H1156  H     0.72669   0.78347   0.69756   0.00000  Uiso   1.00
C1157  C     0.98419   0.80472   0.72074   0.00000  Uiso   1.00
N1158  N     0.95069   0.83335   0.74999   0.00000  Uiso   1.00
N1159  N     0.94525   0.87981   0.59294   0.00000  Uiso   1.00
H1160  H     0.95128   0.91021   0.58279   0.00000  Uiso   1.00
C1161  C     0.98570   0.85899   0.60446   0.00000  Uiso   1.00
H1162  H     0.68775   0.87068   0.57970   0.00000  Uiso   1.00
H1163  H     0.98448   0.82514   0.59867   0.00000  Uiso   1.00
H1164  H     0.98400   0.86562   0.64538   0.00000  Uiso   1.00
C1165  C     0.97090   0.77272   0.68759   0.00000  Uiso   1.00
H1166  H     0.93945   0.77566   0.67385   0.00000  Uiso   1.00
O1167  O     0.99630   0.74185   0.67404   0.00000  Uiso   1.00
C1168  C     0.97477   0.87959   0.97842   0.00000  Uiso   1.00
H1169  H     0.97774   0.88692   0.93851   0.00000  Uiso   1.00
O1170  O     0.67407   0.89130   0.99572   0.00000  Uiso   1.00
loop_
_geom_bond_atom_site_label_1
_geom_bond_atom_site_label_2
_geom_bond_distance
_geom_bond_site_symmetry_2
_ccdc_geom_bond_type
O1     Cu7     1.966   .     S
O1     C3      1.293   .     A
O2     C3      1.291   .     A
O2     Cu8     1.963   .     S
C3     C44     1.450   .     S
O4     Cu7     1.963   .     S
O4     C6      1.313   .     A
O5     Cu8     1.954   .     S
O5     C6      1.287   .     A
C6     C29     1.485   .     S
Cu7    Cu8     2.681   .     S
Cu7    O11     1.954   .     S
Cu7    O9      1.963   .     S
Cu7    N49     2.015   .     S
Cu8    N53     2.014   .     S
Cu8    O12     1.963   .     S
Cu8    O10     1.966   .     S
O9     C13     1.291   .     A
O10    C13     1.293   .     A
O11    C14     1.296   .     A
O12    C14     1.295   .     A
C13    C39     1.450   .     S
C14    C17     1.467   .     S
C15    C28     1.419   .     A
C15    C609    1.419   1_554 S
C15    C648    1.497   1_554 S
H16    C25     1.083   .     S
C17    C27     1.397   .     A
C17    C28     1.414   .     A
C18    C29     1.401   .     A
C18    C19     1.389   .     A
C18    H31     1.083   .     S
C19    C605    1.393   .     S
C19    H618    1.082   .     S
C20    H32     1.077   .     S
C20    C604    1.393   1_554 S
C20    C606    1.415   1_554 S
C21    C22     1.417   .     A
C21    C605    1.415   .     S
C21    C608    1.429   .     S
C22    C29     1.433   .     A
C22    C26     1.414   .     A
C23    C27     1.393   .     A
C23    C606    1.429   1_554 S
C23    C609    1.418   1_554 S
C24    C25     1.396   .     A
C24    C600    1.419   .     S
C24    C608    1.418   .     S
C25    C26     1.382   .     A
C26    H34     1.077   .     S
C27    H30     1.078   .     S
C28    N54     1.427   .     S
H33    C604    1.082   1_554 S
C35    C44     1.402   .     A
C35    H36     1.083   .     S
C35    C232    1.383   .     S
C37    H38     1.083   .     S
C37    C39     1.400   .     A
C37    C425    1.383   1_545 S
C39    C40     1.402   .     A
C40    H41     1.083   .     S
C40    C432    1.384   1_545 S
C42    C44     1.400   .     A
C42    H43     1.083   .     S
C42    C235    1.384   .     S
C45    N53     1.366   .     A
C45    H46     1.082   .     S
C45    C112    1.417   .     S
C47    N49     1.368   .     A
C47    H48     1.082   .     S
C47    C175    1.417   1_455 S
N49    C50     1.353   .     A
C50    H51     1.083   .     S
C50    C182    1.417   1_455 S
C52    N53     1.390   .     A
C52    C60     1.484   .     S
C52    C115    1.417   .     S
N54    C56     1.449   .     S
N54    H55     1.031   .     S
C56    H59     1.108   .     S
C56    H58     1.111   .     S
C56    H122    1.109   .     S
H57    C186    1.109   1_455 S
C60    O62     1.222   .     D
C60    H61     1.072   .     S
C63    H64     1.085   .     S
C63    C600    1.497   .     S
C63    O130    1.219   .     S
O65    C193    1.219   1_455 S
O66    Cu72    1.966   .     S
O66    C68     1.293   .     A
O67    C68     1.291   .     A
O67    Cu73    1.963   .     S
C68    C109    1.450   .     S
O69    Cu72    1.963   .     S
O69    C71     1.313   .     A
O70    Cu73    1.954   .     S
O70    C71     1.287   .     A
C71    C94     1.485   .     S
Cu72   Cu73    2.681   .     S
Cu72   O76     1.954   .     S
Cu72   O74     1.963   .     S
Cu72   N114    2.015   .     S
Cu73   N118    2.014   .     S
Cu73   O77     1.963   .     S
Cu73   O75     1.966   .     S
O74    C78     1.291   .     A
O75    C78     1.293   .     A
O76    C79     1.296   .     A
O77    C79     1.295   .     A
C78    C104    1.450   .     S
C79    C82     1.467   .     S
C80    C93     1.419   .     A
C80    C674    1.419   1_554 S
C80    C713    1.497   1_554 S
H81    C90     1.083   .     S
C82    C92     1.397   .     A
C82    C93     1.414   .     A
C83    C94     1.401   .     A
C83    C84     1.389   .     A
C83    H96     1.083   .     S
C84    C670    1.393   .     S
C84    H683    1.082   .     S
C85    H97     1.077   .     S
C85    C669    1.393   1_554 S
C85    C671    1.415   1_554 S
C86    C87     1.417   .     A
C86    C670    1.415   .     S
C86    C673    1.429   .     S
C87    C94     1.433   .     A
C87    C91     1.414   .     A
C88    C92     1.393   .     A
C88    C671    1.429   1_554 S
C88    C674    1.418   1_554 S
C89    C90     1.396   .     A
C89    C665    1.419   .     S
C89    C673    1.418   .     S
C90    C91     1.382   .     A
C91    H99     1.077   .     S
C92    H95     1.078   .     S
C93    N119    1.427   .     S
H98    C669    1.082   1_554 S
C100   C109    1.402   .     A
C100   H101    1.083   .     S
C100   C297    1.383   .     S
C102   H103    1.083   .     S
C102   C104    1.400   .     A
C102   C490    1.383   1_545 S
C104   C105    1.402   .     A
C105   H106    1.083   .     S
C105   C497    1.384   1_545 S
C107   C109    1.400   .     A
C107   H108    1.083   .     S
C107   C300    1.384   .     S
C110   N118    1.366   .     A
C110   H111    1.082   .     S
C110   C177    1.417   .     S
C112   N114    1.368   .     A
C112   H113    1.082   .     S
N114   C115    1.353   .     A
C115   H116    1.083   .     S
C117   N118    1.390   .     A
C117   C125    1.484   .     S
C117   C180    1.417   .     S
N119   C121    1.449   .     S
N119   H120    1.031   .     S
C121   H124    1.108   .     S
C121   H123    1.111   .     S
C121   H187    1.109   .     S
C125   O127    1.222   .     D
C125   H126    1.072   .     S
C128   H129    1.085   .     S
C128   C665    1.497   .     S
C128   O195    1.219   .     S
O131   Cu137   1.966   .     S
O131   C133    1.293   .     A
O132   C133    1.291   .     A
O132   Cu138   1.963   .     S
C133   C174    1.450   .     S
O134   Cu137   1.963   .     S
O134   C136    1.313   .     A
O135   Cu138   1.954   .     S
O135   C136    1.287   .     A
C136   C159    1.485   .     S
Cu137  Cu138   2.681   .     S
Cu137  O141    1.954   .     S
Cu137  O139    1.963   .     S
Cu137  N179    2.015   .     S
Cu138  N183    2.014   .     S
Cu138  O142    1.963   .     S
Cu138  O140    1.966   .     S
O139   C143    1.291   .     A
O140   C143    1.293   .     A
O141   C144    1.296   .     A
O142   C144    1.295   .     A
C143   C169    1.450   .     S
C144   C147    1.467   .     S
C145   C158    1.419   .     A
C145   C739    1.419   1_554 S
C145   C778    1.497   1_554 S
H146   C155    1.083   .     S
C147   C157    1.397   .     A
C147   C158    1.414   .     A
C148   C159    1.401   .     A
C148   C149    1.389   .     A
C148   H161    1.083   .     S
C149   C735    1.393   .     S
C149   H748    1.082   .     S
C150   H162    1.077   .     S
C150   C734    1.393   1_554 S
C150   C736    1.415   1_554 S
C151   C152    1.417   .     A
C151   C735    1.415   .     S
C151   C738    1.429   .     S
C152   C159    1.433   .     A
C152   C156    1.414   .     A
C153   C157    1.393   .     A
C153   C736    1.429   1_554 S
C153   C739    1.418   1_554 S
C154   C155    1.396   .     A
C154   C730    1.419   .     S
C154   C738    1.418   .     S
C155   C156    1.382   .     A
C156   H164    1.077   .     S
C157   H160    1.078   .     S
C158   N184    1.427   .     S
H163   C734    1.082   1_554 S
C165   C174    1.402   .     A
C165   H166    1.083   .     S
C165   C362    1.383   .     S
C167   H168    1.083   .     S
C167   C169    1.400   .     A
C167   C555    1.383   1_545 S
C169   C170    1.402   .     A
C170   H171    1.083   .     S
C170   C562    1.384   1_545 S
C172   C174    1.400   .     A
C172   H173    1.083   .     S
C172   C365    1.384   .     S
C175   N183    1.366   .     A
C175   H176    1.082   .     S
C175   C47     1.417   1_655 S
C177   N179    1.368   .     A
C177   H178    1.082   .     S
N179   C180    1.353   .     A
C180   H181    1.083   .     S
C182   N183    1.390   .     A
C182   C190    1.484   .     S
C182   C50     1.417   1_655 S
N184   C186    1.449   .     S
N184   H185    1.031   .     S
C186   H189    1.108   .     S
C186   H188    1.111   .     S
C186   H57     1.109   1_655 S
C190   O192    1.222   .     D
C190   H191    1.072   .     S
C193   H194    1.085   .     S
C193   C730    1.497   .     S
C193   O65     1.219   1_655 S
O196   Cu202   1.966   .     S
O196   C198    1.293   .     A
O197   C198    1.291   .     A
O197   Cu203   1.963   .     S
C198   C239    1.450   .     S
O199   Cu202   1.963   .     S
O199   C201    1.313   .     A
O200   Cu203   1.954   .     S
O200   C201    1.287   .     A
C201   C224    1.485   .     S
Cu202  Cu203   2.681   .     S
Cu202  O206    1.954   .     S
Cu202  O204    1.963   .     S
Cu202  N244    2.015   .     S
Cu203  N248    2.014   .     S
Cu203  O207    1.963   .     S
Cu203  O205    1.966   .     S
O204   C208    1.291   .     A
O205   C208    1.293   .     A
O206   C209    1.296   .     A
O207   C209    1.295   .     A
C208   C234    1.450   .     S
C209   C212    1.467   .     S
C210   C223    1.419   .     A
C210   C804    1.419   1_554 S
C210   C843    1.497   1_554 S
H211   C220    1.083   .     S
C212   C222    1.397   .     A
C212   C223    1.414   .     A
C213   C224    1.401   .     A
C213   C214    1.389   .     A
C213   H226    1.083   .     S
C214   C800    1.393   .     S
C214   H813    1.082   .     S
C215   H227    1.077   .     S
C215   C799    1.393   1_554 S
C215   C801    1.415   1_554 S
C216   C217    1.417   .     A
C216   C800    1.415   .     S
C216   C803    1.429   .     S
C217   C224    1.433   .     A
C217   C221    1.414   .     A
C218   C222    1.393   .     A
C218   C801    1.429   1_554 S
C218   C804    1.418   1_554 S
C219   C220    1.396   .     A
C219   C795    1.419   .     S
C219   C803    1.418   .     S
C220   C221    1.382   .     A
C221   H229    1.077   .     S
C222   H225    1.078   .     S
C223   N249    1.427   .     S
H228   C799    1.082   1_554 S
C230   C239    1.402   .     A
C230   H231    1.083   .     S
C230   C427    1.383   .     S
C232   H233    1.083   .     S
C232   C234    1.400   .     A
C234   C235    1.402   .     A
C235   H236    1.083   .     S
C237   C239    1.400   .     A
C237   H238    1.083   .     S
C237   C430    1.384   .     S
C240   N248    1.366   .     A
C240   H241    1.082   .     S
C240   C307    1.417   .     S
C242   N244    1.368   .     A
C242   H243    1.082   .     S
C242   C370    1.417   1_455 S
N244   C245    1.353   .     A
C245   H246    1.083   .     S
C245   C377    1.417   1_455 S
C247   N248    1.390   .     A
C247   C255    1.484   .     S
C247   C310    1.417   .     S
N249   C251    1.449   .     S
N249   H250    1.031   .     S
C251   H254    1.108   .     S
C251   H253    1.111   .     S
C251   H317    1.109   .     S
H252   C381    1.109   1_455 S
C255   O257    1.222   .     D
C255   H256    1.072   .     S
C258   H259    1.085   .     S
C258   C795    1.497   .     S
C258   O325    1.219   .     S
O260   C388    1.219   1_455 S
O261   Cu267   1.966   .     S
O261   C263    1.293   .     A
O262   C263    1.291   .     A
O262   Cu268   1.963   .     S
C263   C304    1.450   .     S
O264   Cu267   1.963   .     S
O264   C266    1.313   .     A
O265   Cu268   1.954   .     S
O265   C266    1.287   .     A
C266   C289    1.485   .     S
Cu267  Cu268   2.681   .     S
Cu267  O271    1.954   .     S
Cu267  O269    1.963   .     S
Cu267  N309    2.015   .     S
Cu268  N313    2.014   .     S
Cu268  O272    1.963   .     S
Cu268  O270    1.966   .     S
O269   C273    1.291   .     A
O270   C273    1.293   .     A
O271   C274    1.296   .     A
O272   C274    1.295   .     A
C273   C299    1.450   .     S
C274   C277    1.467   .     S
C275   C288    1.419   .     A
C275   C869    1.419   1_554 S
C275   C908    1.497   1_554 S
H276   C285    1.083   .     S
C277   C287    1.397   .     A
C277   C288    1.414   .     A
C278   C289    1.401   .     A
C278   C279    1.389   .     A
C278   H291    1.083   .     S
C279   C865    1.393   .     S
C279   H878    1.082   .     S
C280   H292    1.077   .     S
C280   C864    1.393   1_554 S
C280   C866    1.415   1_554 S
C281   C282    1.417   .     A
C281   C865    1.415   .     S
C281   C868    1.429   .     S
C282   C289    1.433   .     A
C282   C286    1.414   .     A
C283   C287    1.393   .     A
C283   C866    1.429   1_554 S
C283   C869    1.418   1_554 S
C284   C285    1.396   .     A
C284   C860    1.419   .     S
C284   C868    1.418   .     S
C285   C286    1.382   .     A
C286   H294    1.077   .     S
C287   H290    1.078   .     S
C288   N314    1.427   .     S
H293   C864    1.082   1_554 S
C295   C304    1.402   .     A
C295   H296    1.083   .     S
C295   C492    1.383   .     S
C297   H298    1.083   .     S
C297   C299    1.400   .     A
C299   C300    1.402   .     A
C300   H301    1.083   .     S
C302   C304    1.400   .     A
C302   H303    1.083   .     S
C302   C495    1.384   .     S
C305   N313    1.366   .     A
C305   H306    1.082   .     S
C305   C372    1.417   .     S
C307   N309    1.368   .     A
C307   H308    1.082   .     S
N309   C310    1.353   .     A
C310   H311    1.083   .     S
C312   N313    1.390   .     A
C312   C320    1.484   .     S
C312   C375    1.417   .     S
N314   C316    1.449   .     S
N314   H315    1.031   .     S
C316   H319    1.108   .     S
C316   H318    1.111   .     S
C316   H382    1.109   .     S
C320   O322    1.222   .     D
C320   H321    1.072   .     S
C323   H324    1.085   .     S
C323   C860    1.497   .     S
C323   O390    1.219   .     S
O326   Cu332   1.966   .     S
O326   C328    1.293   .     A
O327   C328    1.291   .     A
O327   Cu333   1.963   .     S
C328   C369    1.450   .     S
O329   Cu332   1.963   .     S
O329   C331    1.313   .     A
O330   Cu333   1.954   .     S
O330   C331    1.287   .     A
C331   C354    1.485   .     S
Cu332  Cu333   2.681   .     S
Cu332  O336    1.954   .     S
Cu332  O334    1.963   .     S
Cu332  N374    2.015   .     S
Cu333  N378    2.014   .     S
Cu333  O337    1.963   .     S
Cu333  O335    1.966   .     S
O334   C338    1.291   .     A
O335   C338    1.293   .     A
O336   C339    1.296   .     A
O337   C339    1.295   .     A
C338   C364    1.450   .     S
C339   C342    1.467   .     S
C340   C353    1.419   .     A
C340   C934    1.419   1_554 S
C340   C973    1.497   1_554 S
H341   C350    1.083   .     S
C342   C352    1.397   .     A
C342   C353    1.414   .     A
C343   C354    1.401   .     A
C343   C344    1.389   .     A
C343   H356    1.083   .     S
C344   C930    1.393   .     S
C344   H943    1.082   .     S
C345   H357    1.077   .     S
C345   C929    1.393   1_554 S
C345   C931    1.415   1_554 S
C346   C347    1.417   .     A
C346   C930    1.415   .     S
C346   C933    1.429   .     S
C347   C354    1.433   .     A
C347   C351    1.414   .     A
C348   C352    1.393   .     A
C348   C931    1.429   1_554 S
C348   C934    1.418   1_554 S
C349   C350    1.396   .     A
C349   C925    1.419   .     S
C349   C933    1.418   .     S
C350   C351    1.382   .     A
C351   H359    1.077   .     S
C352   H355    1.078   .     S
C353   N379    1.427   .     S
H358   C929    1.082   1_554 S
C360   C369    1.402   .     A
C360   H361    1.083   .     S
C360   C557    1.383   .     S
C362   H363    1.083   .     S
C362   C364    1.400   .     A
C364   C365    1.402   .     A
C365   H366    1.083   .     S
C367   C369    1.400   .     A
C367   H368    1.083   .     S
C367   C560    1.384   .     S
C370   N378    1.366   .     A
C370   H371    1.082   .     S
C370   C242    1.417   1_655 S
C372   N374    1.368   .     A
C372   H373    1.082   .     S
N374   C375    1.353   .     A
C375   H376    1.083   .     S
C377   N378    1.390   .     A
C377   C385    1.484   .     S
C377   C245    1.417   1_655 S
N379   C381    1.449   .     S
N379   H380    1.031   .     S
C381   H384    1.108   .     S
C381   H383    1.111   .     S
C381   H252    1.109   1_655 S
C385   O387    1.222   .     D
C385   H386    1.072   .     S
C388   H389    1.085   .     S
C388   C925    1.497   .     S
C388   O260    1.219   1_655 S
O391   Cu397   1.966   .     S
O391   C393    1.293   .     A
O392   C393    1.291   .     A
O392   Cu398   1.963   .     S
C393   C434    1.450   .     S
O394   Cu397   1.963   .     S
O394   C396    1.313   .     A
O395   Cu398   1.954   .     S
O395   C396    1.287   .     A
C396   C419    1.485   .     S
Cu397  Cu398   2.681   .     S
Cu397  O401    1.954   .     S
Cu397  O399    1.963   .     S
Cu397  N439    2.015   .     S
Cu398  N443    2.014   .     S
Cu398  O402    1.963   .     S
Cu398  O400    1.966   .     S
O399   C403    1.291   .     A
O400   C403    1.293   .     A
O401   C404    1.296   .     A
O402   C404    1.295   .     A
C403   C429    1.450   .     S
C404   C407    1.467   .     S
C405   C418    1.419   .     A
C405   C999    1.419   1_554 S
C405   C1038   1.497   1_554 S
H406   C415    1.083   .     S
C407   C417    1.397   .     A
C407   C418    1.414   .     A
C408   C419    1.401   .     A
C408   C409    1.389   .     A
C408   H421    1.083   .     S
C409   C995    1.393   .     S
C409   H1008   1.082   .     S
C410   H422    1.077   .     S
C410   C994    1.393   1_554 S
C410   C996    1.415   1_554 S
C411   C412    1.417   .     A
C411   C995    1.415   .     S
C411   C998    1.429   .     S
C412   C419    1.433   .     A
C412   C416    1.414   .     A
C413   C417    1.393   .     A
C413   C996    1.429   1_554 S
C413   C999    1.418   1_554 S
C414   C415    1.396   .     A
C414   C990    1.419   .     S
C414   C998    1.418   .     S
C415   C416    1.382   .     A
C416   H424    1.077   .     S
C417   H420    1.078   .     S
C418   N444    1.427   .     S
H423   C994    1.082   1_554 S
C425   C434    1.402   .     A
C425   H426    1.083   .     S
C425   C37     1.383   1_565 S
C427   H428    1.083   .     S
C427   C429    1.400   .     A
C429   C430    1.402   .     A
C430   H431    1.083   .     S
C432   C434    1.400   .     A
C432   H433    1.083   .     S
C432   C40     1.384   1_565 S
C435   N443    1.366   .     A
C435   H436    1.082   .     S
C435   C502    1.417   .     S
C437   N439    1.368   .     A
C437   H438    1.082   .     S
C437   C565    1.417   1_455 S
N439   C440    1.353   .     A
C440   H441    1.083   .     S
C440   C572    1.417   1_455 S
C442   N443    1.390   .     A
C442   C450    1.484   .     S
C442   C505    1.417   .     S
N444   C446    1.449   .     S
N444   H445    1.031   .     S
C446   H449    1.108   .     S
C446   H448    1.111   .     S
C446   H512    1.109   .     S
H447   C576    1.109   1_455 S
C450   O452    1.222   .     D
C450   H451    1.072   .     S
C453   H454    1.085   .     S
C453   C990    1.497   .     S
C453   O520    1.219   .     S
O455   C583    1.219   1_455 S
O456   Cu462   1.966   .     S
O456   C458    1.293   .     A
O457   C458    1.291   .     A
O457   Cu463   1.963   .     S
C458   C499    1.450   .     S
O459   Cu462   1.963   .     S
O459   C461    1.313   .     A
O460   Cu463   1.954   .     S
O460   C461    1.287   .     A
C461   C484    1.485   .     S
Cu462  Cu463   2.681   .     S
Cu462  O466    1.954   .     S
Cu462  O464    1.963   .     S
Cu462  N504    2.015   .     S
Cu463  N508    2.014   .     S
Cu463  O467    1.963   .     S
Cu463  O465    1.966   .     S
O464   C468    1.291   .     A
O465   C468    1.293   .     A
O466   C469    1.296   .     A
O467   C469    1.295   .     A
C468   C494    1.450   .     S
C469   C472    1.467   .     S
C470   C483    1.419   .     A
C470   C1064   1.419   1_554 S
C470   C1103   1.497   1_554 S
H471   C480    1.083   .     S
C472   C482    1.397   .     A
C472   C483    1.414   .     A
C473   C484    1.401   .     A
C473   C474    1.389   .     A
C473   H486    1.083   .     S
C474   C1060   1.393   .     S
C474   H1073   1.082   .     S
C475   H487    1.077   .     S
C475   C1059   1.393   1_554 S
C475   C1061   1.415   1_554 S
C476   C477    1.417   .     A
C476   C1060   1.415   .     S
C476   C1063   1.429   .     S
C477   C484    1.433   .     A
C477   C481    1.414   .     A
C478   C482    1.393   .     A
C478   C1061   1.429   1_554 S
C478   C1064   1.418   1_554 S
C479   C480    1.396   .     A
C479   C1055   1.419   .     S
C479   C1063   1.418   .     S
C480   C481    1.382   .     A
C481   H489    1.077   .     S
C482   H485    1.078   .     S
C483   N509    1.427   .     S
H488   C1059   1.082   1_554 S
C490   C499    1.402   .     A
C490   H491    1.083   .     S
C490   C102    1.383   1_565 S
C492   H493    1.083   .     S
C492   C494    1.400   .     A
C494   C495    1.402   .     A
C495   H496    1.083   .     S
C497   C499    1.400   .     A
C497   H498    1.083   .     S
C497   C105    1.384   1_565 S
C500   N508    1.366   .     A
C500   H501    1.082   .     S
C500   C567    1.417   .     S
C502   N504    1.368   .     A
C502   H503    1.082   .     S
N504   C505    1.353   .     A
C505   H506    1.083   .     S
C507   N508    1.390   .     A
C507   C515    1.484   .     S
C507   C570    1.417   .     S
N509   C511    1.449   .     S
N509   H510    1.031   .     S
C511   H514    1.108   .     S
C511   H513    1.111   .     S
C511   H577    1.109   .     S
C515   O517    1.222   .     D
C515   H516    1.072   .     S
C518   H519    1.085   .     S
C518   C1055   1.497   .     S
C518   O585    1.219   .     S
O521   Cu527   1.966   .     S
O521   C523    1.293   .     A
O522   C523    1.291   .     A
O522   Cu528   1.963   .     S
C523   C564    1.450   .     S
O524   Cu527   1.963   .     S
O524   C526    1.313   .     A
O525   Cu528   1.954   .     S
O525   C526    1.287   .     A
C526   C549    1.485   .     S
Cu527  Cu528   2.681   .     S
Cu527  O531    1.954   .     S
Cu527  O529    1.963   .     S
Cu527  N569    2.015   .     S
Cu528  N573    2.014   .     S
Cu528  O532    1.963   .     S
Cu528  O530    1.966   .     S
O529   C533    1.291   .     A
O530   C533    1.293   .     A
O531   C534    1.296   .     A
O532   C534    1.295   .     A
C533   C559    1.450   .     S
C534   C537    1.467   .     S
C535   C548    1.419   .     A
C535   C1129   1.419   1_554 S
C535   C1168   1.497   1_554 S
H536   C545    1.083   .     S
C537   C547    1.397   .     A
C537   C548    1.414   .     A
C538   C549    1.401   .     A
C538   C539    1.389   .     A
C538   H551    1.083   .     S
C539   C1125   1.393   .     S
C539   H1138   1.082   .     S
C540   H552    1.077   .     S
C540   C1124   1.393   1_554 S
C540   C1126   1.415   1_554 S
C541   C542    1.417   .     A
C541   C1125   1.415   .     S
C541   C1128   1.429   .     S
C542   C549    1.433   .     A
C542   C546    1.414   .     A
C543   C547    1.393   .     A
C543   C1126   1.429   1_554 S
C543   C1129   1.418   1_554 S
C544   C545    1.396   .     A
C544   C1120   1.419   .     S
C544   C1128   1.418   .     S
C545   C546    1.382   .     A
C546   H554    1.077   .     S
C547   H550    1.078   .     S
C548   N574    1.427   .     S
H553   C1124   1.082   1_554 S
C555   C564    1.402   .     A
C555   H556    1.083   .     S
C555   C167    1.383   1_565 S
C557   H558    1.083   .     S
C557   C559    1.400   .     A
C559   C560    1.402   .     A
C560   H561    1.083   .     S
C562   C564    1.400   .     A
C562   H563    1.083   .     S
C562   C170    1.384   1_565 S
C565   N573    1.366   .     A
C565   H566    1.082   .     S
C565   C437    1.417   1_655 S
C567   N569    1.368   .     A
C567   H568    1.082   .     S
N569   C570    1.353   .     A
C570   H571    1.083   .     S
C572   N573    1.390   .     A
C572   C580    1.484   .     S
C572   C440    1.417   1_655 S
N574   C576    1.449   .     S
N574   H575    1.031   .     S
C576   H579    1.108   .     S
C576   H578    1.111   .     S
C576   H447    1.109   1_655 S
C580   O582    1.222   .     D
C580   H581    1.072   .     S
C583   H584    1.085   .     S
C583   C1120   1.497   .     S
C583   O455    1.219   1_655 S
O586   Cu592   1.966   .     S
O586   C588    1.293   .     A
O587   C588    1.291   .     A
O587   Cu593   1.963   .     S
C588   C629    1.450   .     S
O589   Cu592   1.963   .     S
O589   C591    1.313   .     A
O590   Cu593   1.954   .     S
O590   C591    1.287   .     A
C591   C614    1.485   .     S
Cu592  Cu593   2.681   .     S
Cu592  O596    1.954   .     S
Cu592  O594    1.963   .     S
Cu592  N634    2.015   .     S
Cu593  N638    2.014   .     S
Cu593  O597    1.963   .     S
Cu593  O595    1.966   .     S
O594   C598    1.291   .     A
O595   C598    1.293   .     A
O596   C599    1.296   .     A
O597   C599    1.295   .     A
C598   C624    1.450   .     S
C599   C602    1.467   .     S
C600   C613    1.419   .     A
H601   C610    1.083   .     S
C602   C612    1.397   .     A
C602   C613    1.414   .     A
C603   C614    1.401   .     A
C603   C604    1.389   .     A
C603   H616    1.083   .     S
C604   C20     1.393   1_556 S
C604   H33     1.082   1_556 S
C605   H617    1.077   .     S
C606   C607    1.417   .     A
C606   C20     1.415   1_556 S
C606   C23     1.429   1_556 S
C607   C614    1.433   .     A
C607   C611    1.414   .     A
C608   C612    1.393   .     A
C609   C610    1.396   .     A
C609   C15     1.419   1_556 S
C609   C23     1.418   1_556 S
C610   C611    1.382   .     A
C611   H619    1.077   .     S
C612   H615    1.078   .     S
C613   N639    1.427   .     S
C620   C629    1.402   .     A
C620   H621    1.083   .     S
C620   C817    1.383   .     S
C622   H623    1.083   .     S
C622   C624    1.400   .     A
C622   C1010   1.383   1_545 S
C624   C625    1.402   .     A
C625   H626    1.083   .     S
C625   C1017   1.384   1_545 S
C627   C629    1.400   .     A
C627   H628    1.083   .     S
C627   C820    1.384   .     S
C630   N638    1.366   .     A
C630   H631    1.082   .     S
C630   C697    1.417   .     S
C632   N634    1.368   .     A
C632   H633    1.082   .     S
C632   C760    1.417   1_455 S
N634   C635    1.353   .     A
C635   H636    1.083   .     S
C635   C767    1.417   1_455 S
C637   N638    1.390   .     A
C637   C645    1.484   .     S
C637   C700    1.417   .     S
N639   C641    1.449   .     S
N639   H640    1.031   .     S
C641   H644    1.108   .     S
C641   H643    1.111   .     S
C641   H707    1.109   .     S
H642   C771    1.109   1_455 S
C645   O647    1.222   .     D
C645   H646    1.072   .     S
C648   H649    1.085   .     S
C648   C15     1.497   1_556 S
C648   O715    1.219   .     S
O650   C778    1.219   1_455 S
O651   Cu657   1.966   .     S
O651   C653    1.293   .     A
O652   C653    1.291   .     A
O652   Cu658   1.963   .     S
C653   C694    1.450   .     S
O654   Cu657   1.963   .     S
O654   C656    1.313   .     A
O655   Cu658   1.954   .     S
O655   C656    1.287   .     A
C656   C679    1.485   .     S
Cu657  Cu658   2.681   .     S
Cu657  O661    1.954   .     S
Cu657  O659    1.963   .     S
Cu657  N699    2.015   .     S
Cu658  N703    2.014   .     S
Cu658  O662    1.963   .     S
Cu658  O660    1.966   .     S
O659   C663    1.291   .     A
O660   C663    1.293   .     A
O661   C664    1.296   .     A
O662   C664    1.295   .     A
C663   C689    1.450   .     S
C664   C667    1.467   .     S
C665   C678    1.419   .     A
H666   C675    1.083   .     S
C667   C677    1.397   .     A
C667   C678    1.414   .     A
C668   C679    1.401   .     A
C668   C669    1.389   .     A
C668   H681    1.083   .     S
C669   C85     1.393   1_556 S
C669   H98     1.082   1_556 S
C670   H682    1.077   .     S
C671   C672    1.417   .     A
C671   C85     1.415   1_556 S
C671   C88     1.429   1_556 S
C672   C679    1.433   .     A
C672   C676    1.414   .     A
C673   C677    1.393   .     A
C674   C675    1.396   .     A
C674   C80     1.419   1_556 S
C674   C88     1.418   1_556 S
C675   C676    1.382   .     A
C676   H684    1.077   .     S
C677   H680    1.078   .     S
C678   N704    1.427   .     S
C685   C694    1.402   .     A
C685   H686    1.083   .     S
C685   C882    1.383   .     S
C687   H688    1.083   .     S
C687   C689    1.400   .     A
C687   C1075   1.383   1_545 S
C689   C690    1.402   .     A
C690   H691    1.083   .     S
C690   C1082   1.384   1_545 S
C692   C694    1.400   .     A
C692   H693    1.083   .     S
C692   C885    1.384   .     S
C695   N703    1.366   .     A
C695   H696    1.082   .     S
C695   C762    1.417   .     S
C697   N699    1.368   .     A
C697   H698    1.082   .     S
N699   C700    1.353   .     A
C700   H701    1.083   .     S
C702   N703    1.390   .     A
C702   C710    1.484   .     S
C702   C765    1.417   .     S
N704   C706    1.449   .     S
N704   H705    1.031   .     S
C706   H709    1.108   .     S
C706   H708    1.111   .     S
C706   H772    1.109   .     S
C710   O712    1.222   .     D
C710   H711    1.072   .     S
C713   H714    1.085   .     S
C713   C80     1.497   1_556 S
C713   O780    1.219   .     S
O716   Cu722   1.966   .     S
O716   C718    1.293   .     A
O717   C718    1.291   .     A
O717   Cu723   1.963   .     S
C718   C759    1.450   .     S
O719   Cu722   1.963   .     S
O719   C721    1.313   .     A
O720   Cu723   1.954   .     S
O720   C721    1.287   .     A
C721   C744    1.485   .     S
Cu722  Cu723   2.681   .     S
Cu722  O726    1.954   .     S
Cu722  O724    1.963   .     S
Cu722  N764    2.015   .     S
Cu723  N768    2.014   .     S
Cu723  O727    1.963   .     S
Cu723  O725    1.966   .     S
O724   C728    1.291   .     A
O725   C728    1.293   .     A
O726   C729    1.296   .     A
O727   C729    1.295   .     A
C728   C754    1.450   .     S
C729   C732    1.467   .     S
C730   C743    1.419   .     A
H731   C740    1.083   .     S
C732   C742    1.397   .     A
C732   C743    1.414   .     A
C733   C744    1.401   .     A
C733   C734    1.389   .     A
C733   H746    1.083   .     S
C734   C150    1.393   1_556 S
C734   H163    1.082   1_556 S
C735   H747    1.077   .     S
C736   C737    1.417   .     A
C736   C150    1.415   1_556 S
C736   C153    1.429   1_556 S
C737   C744    1.433   .     A
C737   C741    1.414   .     A
C738   C742    1.393   .     A
C739   C740    1.396   .     A
C739   C145    1.419   1_556 S
C739   C153    1.418   1_556 S
C740   C741    1.382   .     A
C741   H749    1.077   .     S
C742   H745    1.078   .     S
C743   N769    1.427   .     S
C750   C759    1.402   .     A
C750   H751    1.083   .     S
C750   C947    1.383   .     S
C752   H753    1.083   .     S
C752   C754    1.400   .     A
C752   C1140   1.383   1_545 S
C754   C755    1.402   .     A
C755   H756    1.083   .     S
C755   C1147   1.384   1_545 S
C757   C759    1.400   .     A
C757   H758    1.083   .     S
C757   C950    1.384   .     S
C760   N768    1.366   .     A
C760   H761    1.082   .     S
C760   C632    1.417   1_655 S
C762   N764    1.368   .     A
C762   H763    1.082   .     S
N764   C765    1.353   .     A
C765   H766    1.083   .     S
C767   N768    1.390   .     A
C767   C775    1.484   .     S
C767   C635    1.417   1_655 S
N769   C771    1.449   .     S
N769   H770    1.031   .     S
C771   H774    1.108   .     S
C771   H773    1.111   .     S
C771   H642    1.109   1_655 S
C775   O777    1.222   .     D
C775   H776    1.072   .     S
C778   H779    1.085   .     S
C778   C145    1.497   1_556 S
C778   O650    1.219   1_655 S
O781   Cu787   1.966   .     S
O781   C783    1.293   .     A
O782   C783    1.291   .     A
O782   Cu788   1.963   .     S
C783   C824    1.450   .     S
O784   Cu787   1.963   .     S
O784   C786    1.313   .     A
O785   Cu788   1.954   .     S
O785   C786    1.287   .     A
C786   C809    1.485   .     S
Cu787  Cu788   2.681   .     S
Cu787  O791    1.954   .     S
Cu787  O789    1.963   .     S
Cu787  N829    2.015   .     S
Cu788  N833    2.014   .     S
Cu788  O792    1.963   .     S
Cu788  O790    1.966   .     S
O789   C793    1.291   .     A
O790   C793    1.293   .     A
O791   C794    1.296   .     A
O792   C794    1.295   .     A
C793   C819    1.450   .     S
C794   C797    1.467   .     S
C795   C808    1.419   .     A
H796   C805    1.083   .     S
C797   C807    1.397   .     A
C797   C808    1.414   .     A
C798   C809    1.401   .     A
C798   C799    1.389   .     A
C798   H811    1.083   .     S
C799   C215    1.393   1_556 S
C799   H228    1.082   1_556 S
C800   H812    1.077   .     S
C801   C802    1.417   .     A
C801   C215    1.415   1_556 S
C801   C218    1.429   1_556 S
C802   C809    1.433   .     A
C802   C806    1.414   .     A
C803   C807    1.393   .     A
C804   C805    1.396   .     A
C804   C210    1.419   1_556 S
C804   C218    1.418   1_556 S
C805   C806    1.382   .     A
C806   H814    1.077   .     S
C807   H810    1.078   .     S
C808   N834    1.427   .     S
C815   C824    1.402   .     A
C815   H816    1.083   .     S
C815   C1012   1.383   .     S
C817   H818    1.083   .     S
C817   C819    1.400   .     A
C819   C820    1.402   .     A
C820   H821    1.083   .     S
C822   C824    1.400   .     A
C822   H823    1.083   .     S
C822   C1015   1.384   .     S
C825   N833    1.366   .     A
C825   H826    1.082   .     S
C825   C892    1.417   .     S
C827   N829    1.368   .     A
C827   H828    1.082   .     S
C827   C955    1.417   1_455 S
N829   C830    1.353   .     A
C830   H831    1.083   .     S
C830   C962    1.417   1_455 S
C832   N833    1.390   .     A
C832   C840    1.484   .     S
C832   C895    1.417   .     S
N834   C836    1.449   .     S
N834   H835    1.031   .     S
C836   H839    1.108   .     S
C836   H838    1.111   .     S
C836   H902    1.109   .     S
H837   C966    1.109   1_455 S
C840   O842    1.222   .     D
C840   H841    1.072   .     S
C843   H844    1.085   .     S
C843   C210    1.497   1_556 S
C843   O910    1.219   .     S
O845   C973    1.219   1_455 S
O846   Cu852   1.966   .     S
O846   C848    1.293   .     A
O847   C848    1.291   .     A
O847   Cu853   1.963   .     S
C848   C889    1.450   .     S
O849   Cu852   1.963   .     S
O849   C851    1.313   .     A
O850   Cu853   1.954   .     S
O850   C851    1.287   .     A
C851   C874    1.485   .     S
Cu852  Cu853   2.681   .     S
Cu852  O856    1.954   .     S
Cu852  O854    1.963   .     S
Cu852  N894    2.015   .     S
Cu853  N898    2.014   .     S
Cu853  O857    1.963   .     S
Cu853  O855    1.966   .     S
O854   C858    1.291   .     A
O855   C858    1.293   .     A
O856   C859    1.296   .     A
O857   C859    1.295   .     A
C858   C884    1.450   .     S
C859   C862    1.467   .     S
C860   C873    1.419   .     A
H861   C870    1.083   .     S
C862   C872    1.397   .     A
C862   C873    1.414   .     A
C863   C874    1.401   .     A
C863   C864    1.389   .     A
C863   H876    1.083   .     S
C864   C280    1.393   1_556 S
C864   H293    1.082   1_556 S
C865   H877    1.077   .     S
C866   C867    1.417   .     A
C866   C280    1.415   1_556 S
C866   C283    1.429   1_556 S
C867   C874    1.433   .     A
C867   C871    1.414   .     A
C868   C872    1.393   .     A
C869   C870    1.396   .     A
C869   C275    1.419   1_556 S
C869   C283    1.418   1_556 S
C870   C871    1.382   .     A
C871   H879    1.077   .     S
C872   H875    1.078   .     S
C873   N899    1.427   .     S
C880   C889    1.402   .     A
C880   H881    1.083   .     S
C880   C1077   1.383   .     S
C882   H883    1.083   .     S
C882   C884    1.400   .     A
C884   C885    1.402   .     A
C885   H886    1.083   .     S
C887   C889    1.400   .     A
C887   H888    1.083   .     S
C887   C1080   1.384   .     S
C890   N898    1.366   .     A
C890   H891    1.082   .     S
C890   C957    1.417   .     S
C892   N894    1.368   .     A
C892   H893    1.082   .     S
N894   C895    1.353   .     A
C895   H896    1.083   .     S
C897   N898    1.390   .     A
C897   C905    1.484   .     S
C897   C960    1.417   .     S
N899   C901    1.449   .     S
N899   H900    1.031   .     S
C901   H904    1.108   .     S
C901   H903    1.111   .     S
C901   H967    1.109   .     S
C905   O907    1.222   .     D
C905   H906    1.072   .     S
C908   H909    1.085   .     S
C908   C275    1.497   1_556 S
C908   O975    1.219   .     S
O911   Cu917   1.966   .     S
O911   C913    1.293   .     A
O912   C913    1.291   .     A
O912   Cu918   1.963   .     S
C913   C954    1.450   .     S
O914   Cu917   1.963   .     S
O914   C916    1.313   .     A
O915   Cu918   1.954   .     S
O915   C916    1.287   .     A
C916   C939    1.485   .     S
Cu917  Cu918   2.681   .     S
Cu917  O921    1.954   .     S
Cu917  O919    1.963   .     S
Cu917  N959    2.015   .     S
Cu918  N963    2.014   .     S
Cu918  O922    1.963   .     S
Cu918  O920    1.966   .     S
O919   C923    1.291   .     A
O920   C923    1.293   .     A
O921   C924    1.296   .     A
O922   C924    1.295   .     A
C923   C949    1.450   .     S
C924   C927    1.467   .     S
C925   C938    1.419   .     A
H926   C935    1.083   .     S
C927   C937    1.397   .     A
C927   C938    1.414   .     A
C928   C939    1.401   .     A
C928   C929    1.389   .     A
C928   H941    1.083   .     S
C929   C345    1.393   1_556 S
C929   H358    1.082   1_556 S
C930   H942    1.077   .     S
C931   C932    1.417   .     A
C931   C345    1.415   1_556 S
C931   C348    1.429   1_556 S
C932   C939    1.433   .     A
C932   C936    1.414   .     A
C933   C937    1.393   .     A
C934   C935    1.396   .     A
C934   C340    1.419   1_556 S
C934   C348    1.418   1_556 S
C935   C936    1.382   .     A
C936   H944    1.077   .     S
C937   H940    1.078   .     S
C938   N964    1.427   .     S
C945   C954    1.402   .     A
C945   H946    1.083   .     S
C945   C1142   1.383   .     S
C947   H948    1.083   .     S
C947   C949    1.400   .     A
C949   C950    1.402   .     A
C950   H951    1.083   .     S
C952   C954    1.400   .     A
C952   H953    1.083   .     S
C952   C1145   1.384   .     S
C955   N963    1.366   .     A
C955   H956    1.082   .     S
C955   C827    1.417   1_655 S
C957   N959    1.368   .     A
C957   H958    1.082   .     S
N959   C960    1.353   .     A
C960   H961    1.083   .     S
C962   N963    1.390   .     A
C962   C970    1.484   .     S
C962   C830    1.417   1_655 S
N964   C966    1.449   .     S
N964   H965    1.031   .     S
C966   H969    1.108   .     S
C966   H968    1.111   .     S
C966   H837    1.109   1_655 S
C970   O972    1.222   .     D
C970   H971    1.072   .     S
C973   H974    1.085   .     S
C973   C340    1.497   1_556 S
C973   O845    1.219   1_655 S
O976   Cu982   1.966   .     S
O976   C978    1.293   .     A
O977   C978    1.291   .     A
O977   Cu983   1.963   .     S
C978   C1019   1.450   .     S
O979   Cu982   1.963   .     S
O979   C981    1.313   .     A
O980   Cu983   1.954   .     S
O980   C981    1.287   .     A
C981   C1004   1.485   .     S
Cu982  Cu983   2.681   .     S
Cu982  O986    1.954   .     S
Cu982  O984    1.963   .     S
Cu982  N1024   2.015   .     S
Cu983  N1028   2.014   .     S
Cu983  O987    1.963   .     S
Cu983  O985    1.966   .     S
O984   C988    1.291   .     A
O985   C988    1.293   .     A
O986   C989    1.296   .     A
O987   C989    1.295   .     A
C988   C1014   1.450   .     S
C989   C992    1.467   .     S
C990   C1003   1.419   .     A
H991   C1000   1.083   .     S
C992   C1002   1.397   .     A
C992   C1003   1.414   .     A
C993   C1004   1.401   .     A
C993   C994    1.389   .     A
C993   H1006   1.083   .     S
C994   C410    1.393   1_556 S
C994   H423    1.082   1_556 S
C995   H1007   1.077   .     S
C996   C997    1.417   .     A
C996   C410    1.415   1_556 S
C996   C413    1.429   1_556 S
C997   C1004   1.433   .     A
C997   C1001   1.414   .     A
C998   C1002   1.393   .     A
C999   C1000   1.396   .     A
C999   C405    1.419   1_556 S
C999   C413    1.418   1_556 S
C1000  C1001   1.382   .     A
C1001  H1009   1.077   .     S
C1002  H1005   1.078   .     S
C1003  N1029   1.427   .     S
C1010  C1019   1.402   .     A
C1010  H1011   1.083   .     S
C1010  C622    1.383   1_565 S
C1012  H1013   1.083   .     S
C1012  C1014   1.400   .     A
C1014  C1015   1.402   .     A
C1015  H1016   1.083   .     S
C1017  C1019   1.400   .     A
C1017  H1018   1.083   .     S
C1017  C625    1.384   1_565 S
C1020  N1028   1.366   .     A
C1020  H1021   1.082   .     S
C1020  C1087   1.417   .     S
C1022  N1024   1.368   .     A
C1022  H1023   1.082   .     S
C1022  C1150   1.417   1_455 S
N1024  C1025   1.353   .     A
C1025  H1026   1.083   .     S
C1025  C1157   1.417   1_455 S
C1027  N1028   1.390   .     A
C1027  C1035   1.484   .     S
C1027  C1090   1.417   .     S
N1029  C1031   1.449   .     S
N1029  H1030   1.031   .     S
C1031  H1034   1.108   .     S
C1031  H1033   1.111   .     S
C1031  H1097   1.109   .     S
H1032  C1161   1.109   1_455 S
C1035  O1037   1.222   .     D
C1035  H1036   1.072   .     S
C1038  H1039   1.085   .     S
C1038  C405    1.497   1_556 S
C1038  O1105   1.219   .     S
O1040  C1168   1.219   1_455 S
O1041  Cu1047  1.966   .     S
O1041  C1043   1.293   .     A
O1042  C1043   1.291   .     A
O1042  Cu1048  1.963   .     S
C1043  C1084   1.450   .     S
O1044  Cu1047  1.963   .     S
O1044  C1046   1.313   .     A
O1045  Cu1048  1.954   .     S
O1045  C1046   1.287   .     A
C1046  C1069   1.485   .     S
Cu1047 Cu1048  2.681   .     S
Cu1047 O1051   1.954   .     S
Cu1047 O1049   1.963   .     S
Cu1047 N1089   2.015   .     S
Cu1048 N1093   2.014   .     S
Cu1048 O1052   1.963   .     S
Cu1048 O1050   1.966   .     S
O1049  C1053   1.291   .     A
O1050  C1053   1.293   .     A
O1051  C1054   1.296   .     A
O1052  C1054   1.295   .     A
C1053  C1079   1.450   .     S
C1054  C1057   1.467   .     S
C1055  C1068   1.419   .     A
H1056  C1065   1.083   .     S
C1057  C1067   1.397   .     A
C1057  C1068   1.414   .     A
C1058  C1069   1.401   .     A
C1058  C1059   1.389   .     A
C1058  H1071   1.083   .     S
C1059  C475    1.393   1_556 S
C1059  H488    1.082   1_556 S
C1060  H1072   1.077   .     S
C1061  C1062   1.417   .     A
C1061  C475    1.415   1_556 S
C1061  C478    1.429   1_556 S
C1062  C1069   1.433   .     A
C1062  C1066   1.414   .     A
C1063  C1067   1.393   .     A
C1064  C1065   1.396   .     A
C1064  C470    1.419   1_556 S
C1064  C478    1.418   1_556 S
C1065  C1066   1.382   .     A
C1066  H1074   1.077   .     S
C1067  H1070   1.078   .     S
C1068  N1094   1.427   .     S
C1075  C1084   1.402   .     A
C1075  H1076   1.083   .     S
C1075  C687    1.383   1_565 S
C1077  H1078   1.083   .     S
C1077  C1079   1.400   .     A
C1079  C1080   1.402   .     A
C1080  H1081   1.083   .     S
C1082  C1084   1.400   .     A
C1082  H1083   1.083   .     S
C1082  C690    1.384   1_565 S
C1085  N1093   1.366   .     A
C1085  H1086   1.082   .     S
C1085  C1152   1.417   .     S
C1087  N1089   1.368   .     A
C1087  H1088   1.082   .     S
N1089  C1090   1.353   .     A
C1090  H1091   1.083   .     S
C1092  N1093   1.390   .     A
C1092  C1100   1.484   .     S
C1092  C1155   1.417   .     S
N1094  C1096   1.449   .     S
N1094  H1095   1.031   .     S
C1096  H1099   1.108   .     S
C1096  H1098   1.111   .     S
C1096  H1162   1.109   .     S
C1100  O1102   1.222   .     D
C1100  H1101   1.072   .     S
C1103  H1104   1.085   .     S
C1103  C470    1.497   1_556 S
C1103  O1170   1.219   .     S
O1106  Cu1112  1.966   .     S
O1106  C1108   1.293   .     A
O1107  C1108   1.291   .     A
O1107  Cu1113  1.963   .     S
C1108  C1149   1.450   .     S
O1109  Cu1112  1.963   .     S
O1109  C1111   1.313   .     A
O1110  Cu1113  1.954   .     S
O1110  C1111   1.287   .     A
C1111  C1134   1.485   .     S
Cu1112 Cu1113  2.681   .     S
Cu1112 O1116   1.954   .     S
Cu1112 O1114   1.963   .     S
Cu1112 N1154   2.015   .     S
Cu1113 N1158   2.014   .     S
Cu1113 O1117   1.963   .     S
Cu1113 O1115   1.966   .     S
O1114  C1118   1.291   .     A
O1115  C1118   1.293   .     A
O1116  C1119   1.296   .     A
O1117  C1119   1.295   .     A
C1118  C1144   1.450   .     S
C1119  C1122   1.467   .     S
C1120  C1133   1.419   .     A
H1121  C1130   1.083   .     S
C1122  C1132   1.397   .     A
C1122  C1133   1.414   .     A
C1123  C1134   1.401   .     A
C1123  C1124   1.389   .     A
C1123  H1136   1.083   .     S
C1124  C540    1.393   1_556 S
C1124  H553    1.082   1_556 S
C1125  H1137   1.077   .     S
C1126  C1127   1.417   .     A
C1126  C540    1.415   1_556 S
C1126  C543    1.429   1_556 S
C1127  C1134   1.433   .     A
C1127  C1131   1.414   .     A
C1128  C1132   1.393   .     A
C1129  C1130   1.396   .     A
C1129  C535    1.419   1_556 S
C1129  C543    1.418   1_556 S
C1130  C1131   1.382   .     A
C1131  H1139   1.077   .     S
C1132  H1135   1.078   .     S
C1133  N1159   1.427   .     S
C1140  C1149   1.402   .     A
C1140  H1141   1.083   .     S
C1140  C752    1.383   1_565 S
C1142  H1143   1.083   .     S
C1142  C1144   1.400   .     A
C1144  C1145   1.402   .     A
C1145  H1146   1.083   .     S
C1147  C1149   1.400   .     A
C1147  H1148   1.083   .     S
C1147  C755    1.384   1_565 S
C1150  N1158   1.366   .     A
C1150  H1151   1.082   .     S
C1150  C1022   1.417   1_655 S
C1152  N1154   1.368   .     A
C1152  H1153   1.082   .     S
N1154  C1155   1.353   .     A
C1155  H1156   1.083   .     S
C1157  N1158   1.390   .     A
C1157  C1165   1.484   .     S
C1157  C1025   1.417   1_655 S
N1159  C1161   1.449   .     S
N1159  H1160   1.031   .     S
C1161  H1164   1.108   .     S
C1161  H1163   1.111   .     S
C1161  H1032   1.109   1_655 S
C1165  O1167   1.222   .     D
C1165  H1166   1.072   .     S
C1168  H1169   1.085   .     S
C1168  C535    1.497   1_556 S
C1168  O1040   1.219   1_655 S
