data_str_m2_o1_o16_pcu_sym.52
_audit_creation_date              2020-01-03
_audit_creation_method            'Materials Studio'
_symmetry_space_group_name_H-M    'P1'
_symmetry_Int_Tables_number       1
_symmetry_cell_setting            triclinic
loop_
_symmetry_equiv_pos_as_xyz
  x,y,z
_cell_length_a                    28.7587
_cell_length_b                    32.2905
_cell_length_c                    27.0646
_cell_angle_alpha                 89.2771
_cell_angle_beta                  72.8793
_cell_angle_gamma                 87.9999
loop_
_atom_site_label
_atom_site_type_symbol
_atom_site_fract_x
_atom_site_fract_y
_atom_site_fract_z
_atom_site_U_iso_or_equiv
_atom_site_adp_type
_atom_site_occupancy
C1     C     0.16603   0.24584   0.24986   0.00000  Uiso   1.00
C2     C     0.13114   0.14921   0.40539   0.00000  Uiso   1.00
C3     C     0.18299   0.31060   0.28572   0.00000  Uiso   1.00
C4     C     0.14185   0.16114   0.34943   0.00000  Uiso   1.00
C5     C     0.18307   0.02008   0.28580   0.00000  Uiso   1.00
C6     C     0.16729   0.04270   0.24923   0.00000  Uiso   1.00
C7     C     0.14740   0.02253   0.21503   0.00000  Uiso   1.00
C8     C     0.14556   0.31294   0.21609   0.00000  Uiso   1.00
C9     C     0.16448   0.29040   0.25066   0.00000  Uiso   1.00
C10    C     0.29965   0.19685   0.27437   0.00000  Uiso   1.00
C11    C     0.01516   0.19751   0.27526   0.00000  Uiso   1.00
C12    C     0.14901   0.15553   0.48965   0.00000  Uiso   1.00
C13    C     0.03246   0.13566   0.22662   0.00000  Uiso   1.00
C14    C     0.31652   0.13591   0.22610   0.00000  Uiso   1.00
C15    C     0.16721   0.08741   0.24960   0.00000  Uiso   1.00
C16    C     0.19254   0.17000   0.15061   0.00000  Uiso   1.00
C17    C     0.25458   0.20678   0.01451   0.00000  Uiso   1.00
C18    C     0.20692   0.17649   0.09460   0.00000  Uiso   1.00
C19    C     0.08624   0.13210   0.43178   0.00000  Uiso   1.00
C20    C     0.07102   0.13121   0.48527   0.00000  Uiso   1.00
C21    C     0.09932   0.14564   0.01472   0.00000  Uiso   1.00
C22    C     0.23773   0.09773   0.36707   0.00000  Uiso   1.00
C23    C     0.16562   0.15494   0.43413   0.00000  Uiso   1.00
C24    C     0.28733   0.07475   0.34852   0.00000  Uiso   1.00
C25    C     0.28578   0.03293   0.32378   0.00000  Uiso   1.00
C26    C     0.18311   0.16727   0.01608   0.00000  Uiso   1.00
C27    C     0.22577   0.18750   0.48853   0.00000  Uiso   1.00
C28    C     0.24200   0.18431   0.43533   0.00000  Uiso   1.00
C29    C     0.21667   0.16075   0.41032   0.00000  Uiso   1.00
C30    C     0.17905   0.15719   0.06745   0.00000  Uiso   1.00
C31    C     0.24342   0.20409   0.06827   0.00000  Uiso   1.00
Cu32   Cu    0.11978   0.16666   0.25000   0.00000  Uiso   1.00
Cu33   Cu    0.21355   0.16667   0.25000   0.00000  Uiso   1.00
H34    H     0.19365   0.03536   0.31550   0.00000  Uiso   1.00
H35    H     0.03515   0.12007   0.00462   0.00000  Uiso   1.00
H36    H     0.19625   0.29328   0.31367   0.00000  Uiso   1.00
H37    H     0.24471   0.29653   0.14269   0.00000  Uiso   1.00
H38    H     0.07117   0.26336   0.35321   0.00000  Uiso   1.00
H39    H     0.03613   0.05115   0.44615   0.00000  Uiso   1.00
H40    H     0.06101   0.08587   0.09781   0.00000  Uiso   1.00
H41    H     0.21618   0.09202   0.34043   0.00000  Uiso   1.00
H42    H     0.21777   0.08527   0.40591   0.00000  Uiso   1.00
H43    H     0.31397   0.09400   0.32035   0.00000  Uiso   1.00
H44    H     0.30049   0.06915   0.38239   0.00000  Uiso   1.00
H45    H     0.13361   0.03996   0.18755   0.00000  Uiso   1.00
H46    H     0.25784   0.01341   0.34993   0.00000  Uiso   1.00
H47    H     0.32179   0.01660   0.31641   0.00000  Uiso   1.00
H48    H     0.27839   0.03743   0.28605   0.00000  Uiso   1.00
H49    H     0.13089   0.29730   0.18907   0.00000  Uiso   1.00
H50    H     0.27349   0.22080   0.29310   0.00000  Uiso   1.00
H51    H     0.05683   0.11036   0.20866   0.00000  Uiso   1.00
H52    H     0.30443   0.11112   0.20685   0.00000  Uiso   1.00
H53    H     0.27816   0.19414   0.41440   0.00000  Uiso   1.00
H54    H     0.28507   0.22470   0.49270   0.00000  Uiso   1.00
H55    H     0.15504   0.13355   0.08679   0.00000  Uiso   1.00
N56    N     0.04931   0.16666   0.24999   0.00000  Uiso   1.00
N57    N     0.28402   0.16669   0.25000   0.00000  Uiso   1.00
O58    O     0.12708   0.22678   0.25001   0.00000  Uiso   1.00
O59    O     0.31058   0.26194   0.06064   0.00000  Uiso   1.00
O60    O     0.22732   0.27563   0.12899   0.00000  Uiso   1.00
O61    O     0.04679   0.27479   0.26632   0.00000  Uiso   1.00
O62    O     0.31308   0.26004   0.34232   0.00000  Uiso   1.00
O63    O     0.06446   0.23521   0.34345   0.00000  Uiso   1.00
O64    O     0.01713   0.13953   0.38458   0.00000  Uiso   1.00
O65    O     0.07910   0.08407   0.35395   0.00000  Uiso   1.00
O66    O     0.01361   0.07403   0.44223   0.00000  Uiso   1.00
O67    O     0.08286   0.18856   0.10441   0.00000  Uiso   1.00
O68    O     0.01338   0.15667   0.08789   0.00000  Uiso   1.00
O69    O     0.20627   0.22679   0.25001   0.00000  Uiso   1.00
O70    O     0.07559   0.10802   0.11282   0.00000  Uiso   1.00
O71    O     0.24537   0.14081   0.36618   0.00000  Uiso   1.00
O72    O     0.10775   0.16665   0.32549   0.00000  Uiso   1.00
O73    O     0.18694   0.16666   0.32549   0.00000  Uiso   1.00
O74    O     0.12706   0.10654   0.25000   0.00000  Uiso   1.00
O75    O     0.20625   0.10655   0.24999   0.00000  Uiso   1.00
O76    O     0.14640   0.16667   0.17451   0.00000  Uiso   1.00
O77    O     0.22559   0.16668   0.17451   0.00000  Uiso   1.00
O78    O     0.29099   0.22032   0.13949   0.00000  Uiso   1.00
S79    S     0.27044   0.24026   0.09974   0.00000  Uiso   1.00
S80    S     0.02685   0.24266   0.30695   0.00000  Uiso   1.00
S81    S     0.04890   0.10746   0.40068   0.00000  Uiso   1.00
S82    S     0.06696   0.15147   0.08135   0.00000  Uiso   1.00
C83    C     0.49936   0.24584   0.24986   0.00000  Uiso   1.00
C84    C     0.46447   0.14921   0.40539   0.00000  Uiso   1.00
C85    C     0.51632   0.31060   0.28572   0.00000  Uiso   1.00
C86    C     0.47518   0.16114   0.34943   0.00000  Uiso   1.00
C87    C     0.51641   0.02008   0.28580   0.00000  Uiso   1.00
C88    C     0.50062   0.04270   0.24923   0.00000  Uiso   1.00
C89    C     0.48073   0.02253   0.21503   0.00000  Uiso   1.00
C90    C     0.47890   0.31294   0.21609   0.00000  Uiso   1.00
C91    C     0.49782   0.29040   0.25066   0.00000  Uiso   1.00
C92    C     0.63298   0.19685   0.27437   0.00000  Uiso   1.00
C93    C     0.34849   0.19751   0.27526   0.00000  Uiso   1.00
C94    C     0.48234   0.15553   0.48965   0.00000  Uiso   1.00
C95    C     0.36579   0.13566   0.22662   0.00000  Uiso   1.00
C96    C     0.64985   0.13591   0.22610   0.00000  Uiso   1.00
C97    C     0.50055   0.08741   0.24960   0.00000  Uiso   1.00
C98    C     0.52587   0.17000   0.15061   0.00000  Uiso   1.00
C99    C     0.58791   0.20678   0.01451   0.00000  Uiso   1.00
C100   C     0.54025   0.17649   0.09460   0.00000  Uiso   1.00
C101   C     0.41957   0.13210   0.43178   0.00000  Uiso   1.00
C102   C     0.40436   0.13121   0.48527   0.00000  Uiso   1.00
C103   C     0.43266   0.14564   0.01472   0.00000  Uiso   1.00
C104   C     0.57106   0.09773   0.36707   0.00000  Uiso   1.00
C105   C     0.49895   0.15494   0.43413   0.00000  Uiso   1.00
C106   C     0.62066   0.07475   0.34852   0.00000  Uiso   1.00
C107   C     0.61911   0.03293   0.32378   0.00000  Uiso   1.00
C108   C     0.51644   0.16727   0.01608   0.00000  Uiso   1.00
C109   C     0.55910   0.18750   0.48853   0.00000  Uiso   1.00
C110   C     0.57534   0.18431   0.43533   0.00000  Uiso   1.00
C111   C     0.55000   0.16075   0.41032   0.00000  Uiso   1.00
C112   C     0.51238   0.15719   0.06745   0.00000  Uiso   1.00
C113   C     0.57675   0.20409   0.06827   0.00000  Uiso   1.00
Cu114  Cu    0.45311   0.16666   0.25000   0.00000  Uiso   1.00
Cu115  Cu    0.54689   0.16667   0.25000   0.00000  Uiso   1.00
H116   H     0.52698   0.03536   0.31550   0.00000  Uiso   1.00
H117   H     0.36849   0.12007   0.00462   0.00000  Uiso   1.00
H118   H     0.52958   0.29328   0.31367   0.00000  Uiso   1.00
H119   H     0.57805   0.29653   0.14269   0.00000  Uiso   1.00
H120   H     0.40450   0.26336   0.35321   0.00000  Uiso   1.00
H121   H     0.36946   0.05115   0.44615   0.00000  Uiso   1.00
H122   H     0.39434   0.08587   0.09781   0.00000  Uiso   1.00
H123   H     0.54951   0.09202   0.34043   0.00000  Uiso   1.00
H124   H     0.55110   0.08527   0.40591   0.00000  Uiso   1.00
H125   H     0.64730   0.09400   0.32035   0.00000  Uiso   1.00
H126   H     0.63382   0.06915   0.38239   0.00000  Uiso   1.00
H127   H     0.46694   0.03996   0.18755   0.00000  Uiso   1.00
H128   H     0.59118   0.01341   0.34993   0.00000  Uiso   1.00
H129   H     0.65513   0.01660   0.31641   0.00000  Uiso   1.00
H130   H     0.61172   0.03743   0.28605   0.00000  Uiso   1.00
H131   H     0.46422   0.29730   0.18907   0.00000  Uiso   1.00
H132   H     0.60682   0.22080   0.29310   0.00000  Uiso   1.00
H133   H     0.39017   0.11036   0.20866   0.00000  Uiso   1.00
H134   H     0.63776   0.11112   0.20685   0.00000  Uiso   1.00
H135   H     0.61149   0.19414   0.41440   0.00000  Uiso   1.00
H136   H     0.61840   0.22470   0.49270   0.00000  Uiso   1.00
H137   H     0.48837   0.13355   0.08679   0.00000  Uiso   1.00
N138   N     0.38265   0.16666   0.24999   0.00000  Uiso   1.00
N139   N     0.61735   0.16669   0.25000   0.00000  Uiso   1.00
O140   O     0.46042   0.22678   0.25001   0.00000  Uiso   1.00
O141   O     0.64391   0.26194   0.06064   0.00000  Uiso   1.00
O142   O     0.56066   0.27563   0.12899   0.00000  Uiso   1.00
O143   O     0.38012   0.27479   0.26632   0.00000  Uiso   1.00
O144   O     0.64641   0.26004   0.34232   0.00000  Uiso   1.00
O145   O     0.39779   0.23521   0.34345   0.00000  Uiso   1.00
O146   O     0.35047   0.13953   0.38458   0.00000  Uiso   1.00
O147   O     0.41243   0.08407   0.35395   0.00000  Uiso   1.00
O148   O     0.34695   0.07403   0.44223   0.00000  Uiso   1.00
O149   O     0.41619   0.18856   0.10441   0.00000  Uiso   1.00
O150   O     0.34672   0.15667   0.08789   0.00000  Uiso   1.00
O151   O     0.53961   0.22679   0.25001   0.00000  Uiso   1.00
O152   O     0.40893   0.10802   0.11282   0.00000  Uiso   1.00
O153   O     0.57870   0.14081   0.36618   0.00000  Uiso   1.00
O154   O     0.44108   0.16665   0.32549   0.00000  Uiso   1.00
O155   O     0.52027   0.16666   0.32549   0.00000  Uiso   1.00
O156   O     0.46039   0.10654   0.25000   0.00000  Uiso   1.00
O157   O     0.53958   0.10655   0.24999   0.00000  Uiso   1.00
O158   O     0.47973   0.16667   0.17451   0.00000  Uiso   1.00
O159   O     0.55892   0.16668   0.17451   0.00000  Uiso   1.00
O160   O     0.62433   0.22032   0.13949   0.00000  Uiso   1.00
S161   S     0.60377   0.24026   0.09974   0.00000  Uiso   1.00
S162   S     0.36018   0.24266   0.30695   0.00000  Uiso   1.00
S163   S     0.38223   0.10746   0.40068   0.00000  Uiso   1.00
S164   S     0.40029   0.15147   0.08135   0.00000  Uiso   1.00
C165   C     0.83269   0.24584   0.24986   0.00000  Uiso   1.00
C166   C     0.79780   0.14921   0.40539   0.00000  Uiso   1.00
C167   C     0.84965   0.31060   0.28572   0.00000  Uiso   1.00
C168   C     0.80851   0.16114   0.34943   0.00000  Uiso   1.00
C169   C     0.84974   0.02008   0.28580   0.00000  Uiso   1.00
C170   C     0.83395   0.04270   0.24923   0.00000  Uiso   1.00
C171   C     0.81407   0.02253   0.21503   0.00000  Uiso   1.00
C172   C     0.81223   0.31294   0.21609   0.00000  Uiso   1.00
C173   C     0.83115   0.29040   0.25066   0.00000  Uiso   1.00
C174   C     0.96632   0.19685   0.27437   0.00000  Uiso   1.00
C175   C     0.68183   0.19751   0.27526   0.00000  Uiso   1.00
C176   C     0.81567   0.15553   0.48965   0.00000  Uiso   1.00
C177   C     0.69912   0.13566   0.22662   0.00000  Uiso   1.00
C178   C     0.98319   0.13591   0.22610   0.00000  Uiso   1.00
C179   C     0.83388   0.08741   0.24960   0.00000  Uiso   1.00
C180   C     0.85920   0.17000   0.15061   0.00000  Uiso   1.00
C181   C     0.92125   0.20678   0.01451   0.00000  Uiso   1.00
C182   C     0.87359   0.17649   0.09460   0.00000  Uiso   1.00
C183   C     0.75290   0.13210   0.43178   0.00000  Uiso   1.00
C184   C     0.73769   0.13121   0.48527   0.00000  Uiso   1.00
C185   C     0.76599   0.14564   0.01472   0.00000  Uiso   1.00
C186   C     0.90439   0.09773   0.36707   0.00000  Uiso   1.00
C187   C     0.83229   0.15494   0.43413   0.00000  Uiso   1.00
C188   C     0.95399   0.07475   0.34852   0.00000  Uiso   1.00
C189   C     0.95245   0.03293   0.32378   0.00000  Uiso   1.00
C190   C     0.84978   0.16727   0.01608   0.00000  Uiso   1.00
C191   C     0.89243   0.18750   0.48853   0.00000  Uiso   1.00
C192   C     0.90867   0.18431   0.43533   0.00000  Uiso   1.00
C193   C     0.88333   0.16075   0.41032   0.00000  Uiso   1.00
C194   C     0.84571   0.15719   0.06745   0.00000  Uiso   1.00
C195   C     0.91009   0.20409   0.06827   0.00000  Uiso   1.00
Cu196  Cu    0.78645   0.16666   0.25000   0.00000  Uiso   1.00
Cu197  Cu    0.88022   0.16667   0.25000   0.00000  Uiso   1.00
H198   H     0.86032   0.03536   0.31550   0.00000  Uiso   1.00
H199   H     0.70182   0.12007   0.00462   0.00000  Uiso   1.00
H200   H     0.86292   0.29328   0.31367   0.00000  Uiso   1.00
H201   H     0.91138   0.29653   0.14269   0.00000  Uiso   1.00
H202   H     0.73783   0.26336   0.35321   0.00000  Uiso   1.00
H203   H     0.70280   0.05115   0.44615   0.00000  Uiso   1.00
H204   H     0.72767   0.08587   0.09781   0.00000  Uiso   1.00
H205   H     0.88285   0.09202   0.34043   0.00000  Uiso   1.00
H206   H     0.88444   0.08527   0.40591   0.00000  Uiso   1.00
H207   H     0.98063   0.09400   0.32035   0.00000  Uiso   1.00
H208   H     0.96716   0.06915   0.38239   0.00000  Uiso   1.00
H209   H     0.80027   0.03996   0.18755   0.00000  Uiso   1.00
H210   H     0.92451   0.01341   0.34993   0.00000  Uiso   1.00
H211   H     0.98846   0.01660   0.31641   0.00000  Uiso   1.00
H212   H     0.94505   0.03743   0.28605   0.00000  Uiso   1.00
H213   H     0.79756   0.29730   0.18907   0.00000  Uiso   1.00
H214   H     0.94016   0.22080   0.29310   0.00000  Uiso   1.00
H215   H     0.72350   0.11036   0.20866   0.00000  Uiso   1.00
H216   H     0.97109   0.11112   0.20685   0.00000  Uiso   1.00
H217   H     0.94483   0.19414   0.41440   0.00000  Uiso   1.00
H218   H     0.95174   0.22470   0.49270   0.00000  Uiso   1.00
H219   H     0.82170   0.13355   0.08679   0.00000  Uiso   1.00
N220   N     0.71598   0.16666   0.24999   0.00000  Uiso   1.00
N221   N     0.95069   0.16669   0.25000   0.00000  Uiso   1.00
O222   O     0.79375   0.22678   0.25001   0.00000  Uiso   1.00
O223   O     0.97724   0.26194   0.06064   0.00000  Uiso   1.00
O224   O     0.89399   0.27563   0.12899   0.00000  Uiso   1.00
O225   O     0.71345   0.27479   0.26632   0.00000  Uiso   1.00
O226   O     0.97975   0.26004   0.34232   0.00000  Uiso   1.00
O227   O     0.73113   0.23521   0.34345   0.00000  Uiso   1.00
O228   O     0.68380   0.13953   0.38458   0.00000  Uiso   1.00
O229   O     0.74576   0.08407   0.35395   0.00000  Uiso   1.00
O230   O     0.68028   0.07403   0.44223   0.00000  Uiso   1.00
O231   O     0.74953   0.18856   0.10441   0.00000  Uiso   1.00
O232   O     0.68005   0.15667   0.08789   0.00000  Uiso   1.00
O233   O     0.87294   0.22679   0.25001   0.00000  Uiso   1.00
O234   O     0.74226   0.10802   0.11282   0.00000  Uiso   1.00
O235   O     0.91203   0.14081   0.36618   0.00000  Uiso   1.00
O236   O     0.77441   0.16665   0.32549   0.00000  Uiso   1.00
O237   O     0.85360   0.16666   0.32549   0.00000  Uiso   1.00
O238   O     0.79373   0.10654   0.25000   0.00000  Uiso   1.00
O239   O     0.87292   0.10655   0.24999   0.00000  Uiso   1.00
O240   O     0.81306   0.16667   0.17451   0.00000  Uiso   1.00
O241   O     0.89225   0.16668   0.17451   0.00000  Uiso   1.00
O242   O     0.95766   0.22032   0.13949   0.00000  Uiso   1.00
S243   S     0.93710   0.24026   0.09974   0.00000  Uiso   1.00
S244   S     0.69351   0.24266   0.30695   0.00000  Uiso   1.00
S245   S     0.71557   0.10746   0.40068   0.00000  Uiso   1.00
S246   S     0.73363   0.15147   0.08135   0.00000  Uiso   1.00
C247   C     0.16603   0.57917   0.24986   0.00000  Uiso   1.00
C248   C     0.13114   0.48255   0.40539   0.00000  Uiso   1.00
C249   C     0.18299   0.64394   0.28572   0.00000  Uiso   1.00
C250   C     0.14185   0.49447   0.34943   0.00000  Uiso   1.00
C251   C     0.18307   0.35341   0.28580   0.00000  Uiso   1.00
C252   C     0.16729   0.37603   0.24923   0.00000  Uiso   1.00
C253   C     0.14740   0.35586   0.21503   0.00000  Uiso   1.00
C254   C     0.14556   0.64628   0.21609   0.00000  Uiso   1.00
C255   C     0.16448   0.62374   0.25066   0.00000  Uiso   1.00
C256   C     0.29965   0.53019   0.27437   0.00000  Uiso   1.00
C257   C     0.01516   0.53084   0.27526   0.00000  Uiso   1.00
C258   C     0.14901   0.48886   0.48965   0.00000  Uiso   1.00
C259   C     0.03246   0.46899   0.22662   0.00000  Uiso   1.00
C260   C     0.31652   0.46925   0.22610   0.00000  Uiso   1.00
C261   C     0.16721   0.42075   0.24960   0.00000  Uiso   1.00
C262   C     0.19254   0.50333   0.15061   0.00000  Uiso   1.00
C263   C     0.25458   0.54011   0.01451   0.00000  Uiso   1.00
C264   C     0.20692   0.50982   0.09460   0.00000  Uiso   1.00
C265   C     0.08624   0.46543   0.43178   0.00000  Uiso   1.00
C266   C     0.07102   0.46455   0.48527   0.00000  Uiso   1.00
C267   C     0.09932   0.47898   0.01472   0.00000  Uiso   1.00
C268   C     0.23773   0.43106   0.36707   0.00000  Uiso   1.00
C269   C     0.16562   0.48827   0.43413   0.00000  Uiso   1.00
C270   C     0.28733   0.40808   0.34852   0.00000  Uiso   1.00
C271   C     0.28578   0.36626   0.32378   0.00000  Uiso   1.00
C272   C     0.18311   0.50060   0.01608   0.00000  Uiso   1.00
C273   C     0.22577   0.52084   0.48853   0.00000  Uiso   1.00
C274   C     0.24200   0.51764   0.43533   0.00000  Uiso   1.00
C275   C     0.21667   0.49408   0.41032   0.00000  Uiso   1.00
C276   C     0.17905   0.49052   0.06745   0.00000  Uiso   1.00
C277   C     0.24342   0.53742   0.06827   0.00000  Uiso   1.00
Cu278  Cu    0.11978   0.49999   0.25000   0.00000  Uiso   1.00
Cu279  Cu    0.21355   0.50001   0.25000   0.00000  Uiso   1.00
H280   H     0.19365   0.36870   0.31550   0.00000  Uiso   1.00
H281   H     0.03515   0.45340   0.00462   0.00000  Uiso   1.00
H282   H     0.19625   0.62661   0.31367   0.00000  Uiso   1.00
H283   H     0.24471   0.62986   0.14269   0.00000  Uiso   1.00
H284   H     0.07117   0.59669   0.35321   0.00000  Uiso   1.00
H285   H     0.03613   0.38449   0.44615   0.00000  Uiso   1.00
H286   H     0.06101   0.41920   0.09781   0.00000  Uiso   1.00
H287   H     0.21618   0.42535   0.34043   0.00000  Uiso   1.00
H288   H     0.21777   0.41860   0.40591   0.00000  Uiso   1.00
H289   H     0.31397   0.42733   0.32035   0.00000  Uiso   1.00
H290   H     0.30049   0.40249   0.38239   0.00000  Uiso   1.00
H291   H     0.13361   0.37329   0.18755   0.00000  Uiso   1.00
H292   H     0.25784   0.34674   0.34993   0.00000  Uiso   1.00
H293   H     0.32179   0.34993   0.31641   0.00000  Uiso   1.00
H294   H     0.27839   0.37077   0.28605   0.00000  Uiso   1.00
H295   H     0.13089   0.63063   0.18907   0.00000  Uiso   1.00
H296   H     0.27349   0.55413   0.29310   0.00000  Uiso   1.00
H297   H     0.05683   0.44370   0.20866   0.00000  Uiso   1.00
H298   H     0.30443   0.44446   0.20685   0.00000  Uiso   1.00
H299   H     0.27816   0.52748   0.41440   0.00000  Uiso   1.00
H300   H     0.28507   0.55803   0.49270   0.00000  Uiso   1.00
H301   H     0.15504   0.46688   0.08679   0.00000  Uiso   1.00
N302   N     0.04931   0.49999   0.24999   0.00000  Uiso   1.00
N303   N     0.28402   0.50002   0.25000   0.00000  Uiso   1.00
O304   O     0.12708   0.56011   0.25001   0.00000  Uiso   1.00
O305   O     0.31058   0.59528   0.06064   0.00000  Uiso   1.00
O306   O     0.22732   0.60897   0.12899   0.00000  Uiso   1.00
O307   O     0.04679   0.60812   0.26632   0.00000  Uiso   1.00
O308   O     0.31308   0.59337   0.34232   0.00000  Uiso   1.00
O309   O     0.06446   0.56854   0.34345   0.00000  Uiso   1.00
O310   O     0.01713   0.47286   0.38458   0.00000  Uiso   1.00
O311   O     0.07910   0.41741   0.35395   0.00000  Uiso   1.00
O312   O     0.01361   0.40737   0.44223   0.00000  Uiso   1.00
O313   O     0.08286   0.52190   0.10441   0.00000  Uiso   1.00
O314   O     0.01338   0.49000   0.08789   0.00000  Uiso   1.00
O315   O     0.20627   0.56012   0.25001   0.00000  Uiso   1.00
O316   O     0.07559   0.44135   0.11282   0.00000  Uiso   1.00
O317   O     0.24537   0.47414   0.36618   0.00000  Uiso   1.00
O318   O     0.10775   0.49998   0.32549   0.00000  Uiso   1.00
O319   O     0.18694   0.49999   0.32549   0.00000  Uiso   1.00
O320   O     0.12706   0.43988   0.25000   0.00000  Uiso   1.00
O321   O     0.20625   0.43989   0.24999   0.00000  Uiso   1.00
O322   O     0.14640   0.50001   0.17451   0.00000  Uiso   1.00
O323   O     0.22559   0.50002   0.17451   0.00000  Uiso   1.00
O324   O     0.29099   0.55365   0.13949   0.00000  Uiso   1.00
S325   S     0.27044   0.57359   0.09974   0.00000  Uiso   1.00
S326   S     0.02685   0.57599   0.30695   0.00000  Uiso   1.00
S327   S     0.04890   0.44080   0.40068   0.00000  Uiso   1.00
S328   S     0.06696   0.48480   0.08135   0.00000  Uiso   1.00
C329   C     0.49936   0.57917   0.24986   0.00000  Uiso   1.00
C330   C     0.46447   0.48255   0.40539   0.00000  Uiso   1.00
C331   C     0.51632   0.64394   0.28572   0.00000  Uiso   1.00
C332   C     0.47518   0.49447   0.34943   0.00000  Uiso   1.00
C333   C     0.51641   0.35341   0.28580   0.00000  Uiso   1.00
C334   C     0.50062   0.37603   0.24923   0.00000  Uiso   1.00
C335   C     0.48073   0.35586   0.21503   0.00000  Uiso   1.00
C336   C     0.47890   0.64628   0.21609   0.00000  Uiso   1.00
C337   C     0.49782   0.62374   0.25066   0.00000  Uiso   1.00
C338   C     0.63298   0.53019   0.27437   0.00000  Uiso   1.00
C339   C     0.34849   0.53084   0.27526   0.00000  Uiso   1.00
C340   C     0.48234   0.48886   0.48965   0.00000  Uiso   1.00
C341   C     0.36579   0.46899   0.22662   0.00000  Uiso   1.00
C342   C     0.64985   0.46925   0.22610   0.00000  Uiso   1.00
C343   C     0.50055   0.42075   0.24960   0.00000  Uiso   1.00
C344   C     0.52587   0.50333   0.15061   0.00000  Uiso   1.00
C345   C     0.58791   0.54011   0.01451   0.00000  Uiso   1.00
C346   C     0.54025   0.50982   0.09460   0.00000  Uiso   1.00
C347   C     0.41957   0.46543   0.43178   0.00000  Uiso   1.00
C348   C     0.40436   0.46455   0.48527   0.00000  Uiso   1.00
C349   C     0.43266   0.47898   0.01472   0.00000  Uiso   1.00
C350   C     0.57106   0.43106   0.36707   0.00000  Uiso   1.00
C351   C     0.49895   0.48827   0.43413   0.00000  Uiso   1.00
C352   C     0.62066   0.40808   0.34852   0.00000  Uiso   1.00
C353   C     0.61911   0.36626   0.32378   0.00000  Uiso   1.00
C354   C     0.51644   0.50060   0.01608   0.00000  Uiso   1.00
C355   C     0.55910   0.52084   0.48853   0.00000  Uiso   1.00
C356   C     0.57534   0.51764   0.43533   0.00000  Uiso   1.00
C357   C     0.55000   0.49408   0.41032   0.00000  Uiso   1.00
C358   C     0.51238   0.49052   0.06745   0.00000  Uiso   1.00
C359   C     0.57675   0.53742   0.06827   0.00000  Uiso   1.00
Cu360  Cu    0.45311   0.49999   0.25000   0.00000  Uiso   1.00
Cu361  Cu    0.54689   0.50001   0.25000   0.00000  Uiso   1.00
H362   H     0.52698   0.36870   0.31550   0.00000  Uiso   1.00
H363   H     0.36849   0.45340   0.00462   0.00000  Uiso   1.00
H364   H     0.52958   0.62661   0.31367   0.00000  Uiso   1.00
H365   H     0.57805   0.62986   0.14269   0.00000  Uiso   1.00
H366   H     0.40450   0.59669   0.35321   0.00000  Uiso   1.00
H367   H     0.36946   0.38449   0.44615   0.00000  Uiso   1.00
H368   H     0.39434   0.41920   0.09781   0.00000  Uiso   1.00
H369   H     0.54951   0.42535   0.34043   0.00000  Uiso   1.00
H370   H     0.55110   0.41860   0.40591   0.00000  Uiso   1.00
H371   H     0.64730   0.42733   0.32035   0.00000  Uiso   1.00
H372   H     0.63382   0.40249   0.38239   0.00000  Uiso   1.00
H373   H     0.46694   0.37329   0.18755   0.00000  Uiso   1.00
H374   H     0.59118   0.34674   0.34993   0.00000  Uiso   1.00
H375   H     0.65513   0.34993   0.31641   0.00000  Uiso   1.00
H376   H     0.61172   0.37077   0.28605   0.00000  Uiso   1.00
H377   H     0.46422   0.63063   0.18907   0.00000  Uiso   1.00
H378   H     0.60682   0.55413   0.29310   0.00000  Uiso   1.00
H379   H     0.39017   0.44370   0.20866   0.00000  Uiso   1.00
H380   H     0.63776   0.44446   0.20685   0.00000  Uiso   1.00
H381   H     0.61149   0.52748   0.41440   0.00000  Uiso   1.00
H382   H     0.61840   0.55803   0.49270   0.00000  Uiso   1.00
H383   H     0.48837   0.46688   0.08679   0.00000  Uiso   1.00
N384   N     0.38265   0.49999   0.24999   0.00000  Uiso   1.00
N385   N     0.61735   0.50002   0.25000   0.00000  Uiso   1.00
O386   O     0.46042   0.56011   0.25001   0.00000  Uiso   1.00
O387   O     0.64391   0.59528   0.06064   0.00000  Uiso   1.00
O388   O     0.56066   0.60897   0.12899   0.00000  Uiso   1.00
O389   O     0.38012   0.60812   0.26632   0.00000  Uiso   1.00
O390   O     0.64641   0.59337   0.34232   0.00000  Uiso   1.00
O391   O     0.39779   0.56854   0.34345   0.00000  Uiso   1.00
O392   O     0.35047   0.47286   0.38458   0.00000  Uiso   1.00
O393   O     0.41243   0.41741   0.35395   0.00000  Uiso   1.00
O394   O     0.34695   0.40737   0.44223   0.00000  Uiso   1.00
O395   O     0.41619   0.52190   0.10441   0.00000  Uiso   1.00
O396   O     0.34672   0.49000   0.08789   0.00000  Uiso   1.00
O397   O     0.53961   0.56012   0.25001   0.00000  Uiso   1.00
O398   O     0.40893   0.44135   0.11282   0.00000  Uiso   1.00
O399   O     0.57870   0.47414   0.36618   0.00000  Uiso   1.00
O400   O     0.44108   0.49998   0.32549   0.00000  Uiso   1.00
O401   O     0.52027   0.49999   0.32549   0.00000  Uiso   1.00
O402   O     0.46039   0.43988   0.25000   0.00000  Uiso   1.00
O403   O     0.53958   0.43989   0.24999   0.00000  Uiso   1.00
O404   O     0.47973   0.50001   0.17451   0.00000  Uiso   1.00
O405   O     0.55892   0.50002   0.17451   0.00000  Uiso   1.00
O406   O     0.62433   0.55365   0.13949   0.00000  Uiso   1.00
S407   S     0.60377   0.57359   0.09974   0.00000  Uiso   1.00
S408   S     0.36018   0.57599   0.30695   0.00000  Uiso   1.00
S409   S     0.38223   0.44080   0.40068   0.00000  Uiso   1.00
S410   S     0.40029   0.48480   0.08135   0.00000  Uiso   1.00
C411   C     0.83269   0.57917   0.24986   0.00000  Uiso   1.00
C412   C     0.79780   0.48255   0.40539   0.00000  Uiso   1.00
C413   C     0.84965   0.64394   0.28572   0.00000  Uiso   1.00
C414   C     0.80851   0.49447   0.34943   0.00000  Uiso   1.00
C415   C     0.84974   0.35341   0.28580   0.00000  Uiso   1.00
C416   C     0.83395   0.37603   0.24923   0.00000  Uiso   1.00
C417   C     0.81407   0.35586   0.21503   0.00000  Uiso   1.00
C418   C     0.81223   0.64628   0.21609   0.00000  Uiso   1.00
C419   C     0.83115   0.62374   0.25066   0.00000  Uiso   1.00
C420   C     0.96632   0.53019   0.27437   0.00000  Uiso   1.00
C421   C     0.68183   0.53084   0.27526   0.00000  Uiso   1.00
C422   C     0.81567   0.48886   0.48965   0.00000  Uiso   1.00
C423   C     0.69912   0.46899   0.22662   0.00000  Uiso   1.00
C424   C     0.98319   0.46925   0.22610   0.00000  Uiso   1.00
C425   C     0.83388   0.42075   0.24960   0.00000  Uiso   1.00
C426   C     0.85920   0.50333   0.15061   0.00000  Uiso   1.00
C427   C     0.92125   0.54011   0.01451   0.00000  Uiso   1.00
C428   C     0.87359   0.50982   0.09460   0.00000  Uiso   1.00
C429   C     0.75290   0.46543   0.43178   0.00000  Uiso   1.00
C430   C     0.73769   0.46455   0.48527   0.00000  Uiso   1.00
C431   C     0.76599   0.47898   0.01472   0.00000  Uiso   1.00
C432   C     0.90439   0.43106   0.36707   0.00000  Uiso   1.00
C433   C     0.83229   0.48827   0.43413   0.00000  Uiso   1.00
C434   C     0.95399   0.40808   0.34852   0.00000  Uiso   1.00
C435   C     0.95245   0.36626   0.32378   0.00000  Uiso   1.00
C436   C     0.84978   0.50060   0.01608   0.00000  Uiso   1.00
C437   C     0.89243   0.52084   0.48853   0.00000  Uiso   1.00
C438   C     0.90867   0.51764   0.43533   0.00000  Uiso   1.00
C439   C     0.88333   0.49408   0.41032   0.00000  Uiso   1.00
C440   C     0.84571   0.49052   0.06745   0.00000  Uiso   1.00
C441   C     0.91009   0.53742   0.06827   0.00000  Uiso   1.00
Cu442  Cu    0.78645   0.49999   0.25000   0.00000  Uiso   1.00
Cu443  Cu    0.88022   0.50001   0.25000   0.00000  Uiso   1.00
H444   H     0.86032   0.36870   0.31550   0.00000  Uiso   1.00
H445   H     0.70182   0.45340   0.00462   0.00000  Uiso   1.00
H446   H     0.86292   0.62661   0.31367   0.00000  Uiso   1.00
H447   H     0.91138   0.62986   0.14269   0.00000  Uiso   1.00
H448   H     0.73783   0.59669   0.35321   0.00000  Uiso   1.00
H449   H     0.70280   0.38449   0.44615   0.00000  Uiso   1.00
H450   H     0.72767   0.41920   0.09781   0.00000  Uiso   1.00
H451   H     0.88285   0.42535   0.34043   0.00000  Uiso   1.00
H452   H     0.88444   0.41860   0.40591   0.00000  Uiso   1.00
H453   H     0.98063   0.42733   0.32035   0.00000  Uiso   1.00
H454   H     0.96716   0.40249   0.38239   0.00000  Uiso   1.00
H455   H     0.80027   0.37329   0.18755   0.00000  Uiso   1.00
H456   H     0.92451   0.34674   0.34993   0.00000  Uiso   1.00
H457   H     0.98846   0.34993   0.31641   0.00000  Uiso   1.00
H458   H     0.94505   0.37077   0.28605   0.00000  Uiso   1.00
H459   H     0.79756   0.63063   0.18907   0.00000  Uiso   1.00
H460   H     0.94016   0.55413   0.29310   0.00000  Uiso   1.00
H461   H     0.72350   0.44370   0.20866   0.00000  Uiso   1.00
H462   H     0.97109   0.44446   0.20685   0.00000  Uiso   1.00
H463   H     0.94483   0.52748   0.41440   0.00000  Uiso   1.00
H464   H     0.95174   0.55803   0.49270   0.00000  Uiso   1.00
H465   H     0.82170   0.46688   0.08679   0.00000  Uiso   1.00
N466   N     0.71598   0.49999   0.24999   0.00000  Uiso   1.00
N467   N     0.95069   0.50002   0.25000   0.00000  Uiso   1.00
O468   O     0.79375   0.56011   0.25001   0.00000  Uiso   1.00
O469   O     0.97724   0.59528   0.06064   0.00000  Uiso   1.00
O470   O     0.89399   0.60897   0.12899   0.00000  Uiso   1.00
O471   O     0.71345   0.60812   0.26632   0.00000  Uiso   1.00
O472   O     0.97975   0.59337   0.34232   0.00000  Uiso   1.00
O473   O     0.73113   0.56854   0.34345   0.00000  Uiso   1.00
O474   O     0.68380   0.47286   0.38458   0.00000  Uiso   1.00
O475   O     0.74576   0.41741   0.35395   0.00000  Uiso   1.00
O476   O     0.68028   0.40737   0.44223   0.00000  Uiso   1.00
O477   O     0.74953   0.52190   0.10441   0.00000  Uiso   1.00
O478   O     0.68005   0.49000   0.08789   0.00000  Uiso   1.00
O479   O     0.87294   0.56012   0.25001   0.00000  Uiso   1.00
O480   O     0.74226   0.44135   0.11282   0.00000  Uiso   1.00
O481   O     0.91203   0.47414   0.36618   0.00000  Uiso   1.00
O482   O     0.77441   0.49998   0.32549   0.00000  Uiso   1.00
O483   O     0.85360   0.49999   0.32549   0.00000  Uiso   1.00
O484   O     0.79373   0.43988   0.25000   0.00000  Uiso   1.00
O485   O     0.87292   0.43989   0.24999   0.00000  Uiso   1.00
O486   O     0.81306   0.50001   0.17451   0.00000  Uiso   1.00
O487   O     0.89225   0.50002   0.17451   0.00000  Uiso   1.00
O488   O     0.95766   0.55365   0.13949   0.00000  Uiso   1.00
S489   S     0.93710   0.57359   0.09974   0.00000  Uiso   1.00
S490   S     0.69351   0.57599   0.30695   0.00000  Uiso   1.00
S491   S     0.71557   0.44080   0.40068   0.00000  Uiso   1.00
S492   S     0.73363   0.48480   0.08135   0.00000  Uiso   1.00
C493   C     0.16603   0.91251   0.24986   0.00000  Uiso   1.00
C494   C     0.13114   0.81588   0.40539   0.00000  Uiso   1.00
C495   C     0.18299   0.97727   0.28572   0.00000  Uiso   1.00
C496   C     0.14185   0.82780   0.34943   0.00000  Uiso   1.00
C497   C     0.18307   0.68675   0.28580   0.00000  Uiso   1.00
C498   C     0.16729   0.70937   0.24923   0.00000  Uiso   1.00
C499   C     0.14740   0.68919   0.21503   0.00000  Uiso   1.00
C500   C     0.14556   0.97961   0.21609   0.00000  Uiso   1.00
C501   C     0.16448   0.95707   0.25066   0.00000  Uiso   1.00
C502   C     0.29965   0.86352   0.27437   0.00000  Uiso   1.00
C503   C     0.01516   0.86417   0.27526   0.00000  Uiso   1.00
C504   C     0.14901   0.82220   0.48965   0.00000  Uiso   1.00
C505   C     0.03246   0.80232   0.22662   0.00000  Uiso   1.00
C506   C     0.31652   0.80258   0.22610   0.00000  Uiso   1.00
C507   C     0.16721   0.75408   0.24960   0.00000  Uiso   1.00
C508   C     0.19254   0.83667   0.15061   0.00000  Uiso   1.00
C509   C     0.25458   0.87344   0.01451   0.00000  Uiso   1.00
C510   C     0.20692   0.84316   0.09460   0.00000  Uiso   1.00
C511   C     0.08624   0.79876   0.43178   0.00000  Uiso   1.00
C512   C     0.07102   0.79788   0.48527   0.00000  Uiso   1.00
C513   C     0.09932   0.81231   0.01472   0.00000  Uiso   1.00
C514   C     0.23773   0.76440   0.36707   0.00000  Uiso   1.00
C515   C     0.16562   0.82161   0.43413   0.00000  Uiso   1.00
C516   C     0.28733   0.74142   0.34852   0.00000  Uiso   1.00
C517   C     0.28578   0.69960   0.32378   0.00000  Uiso   1.00
C518   C     0.18311   0.83394   0.01608   0.00000  Uiso   1.00
C519   C     0.22577   0.85417   0.48853   0.00000  Uiso   1.00
C520   C     0.24200   0.85098   0.43533   0.00000  Uiso   1.00
C521   C     0.21667   0.82741   0.41032   0.00000  Uiso   1.00
C522   C     0.17905   0.82386   0.06745   0.00000  Uiso   1.00
C523   C     0.24342   0.87076   0.06827   0.00000  Uiso   1.00
Cu524  Cu    0.11978   0.83333   0.25000   0.00000  Uiso   1.00
Cu525  Cu    0.21355   0.83334   0.25000   0.00000  Uiso   1.00
H526   H     0.19365   0.70203   0.31550   0.00000  Uiso   1.00
H527   H     0.03515   0.78673   0.00462   0.00000  Uiso   1.00
H528   H     0.19625   0.95994   0.31367   0.00000  Uiso   1.00
H529   H     0.24471   0.96319   0.14269   0.00000  Uiso   1.00
H530   H     0.07117   0.93003   0.35321   0.00000  Uiso   1.00
H531   H     0.03613   0.71782   0.44615   0.00000  Uiso   1.00
H532   H     0.06101   0.75254   0.09781   0.00000  Uiso   1.00
H533   H     0.21618   0.75869   0.34043   0.00000  Uiso   1.00
H534   H     0.21777   0.75194   0.40591   0.00000  Uiso   1.00
H535   H     0.31397   0.76066   0.32035   0.00000  Uiso   1.00
H536   H     0.30049   0.73582   0.38239   0.00000  Uiso   1.00
H537   H     0.13361   0.70662   0.18755   0.00000  Uiso   1.00
H538   H     0.25784   0.68007   0.34993   0.00000  Uiso   1.00
H539   H     0.32179   0.68327   0.31641   0.00000  Uiso   1.00
H540   H     0.27839   0.70410   0.28605   0.00000  Uiso   1.00
H541   H     0.13089   0.96397   0.18907   0.00000  Uiso   1.00
H542   H     0.27349   0.88746   0.29310   0.00000  Uiso   1.00
H543   H     0.05683   0.77703   0.20866   0.00000  Uiso   1.00
H544   H     0.30443   0.77779   0.20685   0.00000  Uiso   1.00
H545   H     0.27816   0.86081   0.41440   0.00000  Uiso   1.00
H546   H     0.28507   0.89137   0.49270   0.00000  Uiso   1.00
H547   H     0.15504   0.80021   0.08679   0.00000  Uiso   1.00
N548   N     0.04931   0.83332   0.24999   0.00000  Uiso   1.00
N549   N     0.28402   0.83335   0.25000   0.00000  Uiso   1.00
O550   O     0.12708   0.89345   0.25001   0.00000  Uiso   1.00
O551   O     0.31058   0.92861   0.06064   0.00000  Uiso   1.00
O552   O     0.22732   0.94230   0.12899   0.00000  Uiso   1.00
O553   O     0.04679   0.94145   0.26632   0.00000  Uiso   1.00
O554   O     0.31308   0.92670   0.34232   0.00000  Uiso   1.00
O555   O     0.06446   0.90187   0.34345   0.00000  Uiso   1.00
O556   O     0.01713   0.80620   0.38458   0.00000  Uiso   1.00
O557   O     0.07910   0.75074   0.35395   0.00000  Uiso   1.00
O558   O     0.01361   0.74070   0.44223   0.00000  Uiso   1.00
O559   O     0.08286   0.85523   0.10441   0.00000  Uiso   1.00
O560   O     0.01338   0.82333   0.08789   0.00000  Uiso   1.00
O561   O     0.20627   0.89346   0.25001   0.00000  Uiso   1.00
O562   O     0.07559   0.77468   0.11282   0.00000  Uiso   1.00
O563   O     0.24537   0.80748   0.36618   0.00000  Uiso   1.00
O564   O     0.10775   0.83332   0.32549   0.00000  Uiso   1.00
O565   O     0.18694   0.83333   0.32549   0.00000  Uiso   1.00
O566   O     0.12706   0.77321   0.25000   0.00000  Uiso   1.00
O567   O     0.20625   0.77322   0.24999   0.00000  Uiso   1.00
O568   O     0.14640   0.83334   0.17451   0.00000  Uiso   1.00
O569   O     0.22559   0.83335   0.17451   0.00000  Uiso   1.00
O570   O     0.29099   0.88698   0.13949   0.00000  Uiso   1.00
S571   S     0.27044   0.90692   0.09974   0.00000  Uiso   1.00
S572   S     0.02685   0.90932   0.30695   0.00000  Uiso   1.00
S573   S     0.04890   0.77413   0.40068   0.00000  Uiso   1.00
S574   S     0.06696   0.81813   0.08135   0.00000  Uiso   1.00
C575   C     0.49936   0.91251   0.24986   0.00000  Uiso   1.00
C576   C     0.46447   0.81588   0.40539   0.00000  Uiso   1.00
C577   C     0.51632   0.97727   0.28572   0.00000  Uiso   1.00
C578   C     0.47518   0.82780   0.34943   0.00000  Uiso   1.00
C579   C     0.51641   0.68675   0.28580   0.00000  Uiso   1.00
C580   C     0.50062   0.70937   0.24923   0.00000  Uiso   1.00
C581   C     0.48073   0.68919   0.21503   0.00000  Uiso   1.00
C582   C     0.47890   0.97961   0.21609   0.00000  Uiso   1.00
C583   C     0.49782   0.95707   0.25066   0.00000  Uiso   1.00
C584   C     0.63298   0.86352   0.27437   0.00000  Uiso   1.00
C585   C     0.34849   0.86417   0.27526   0.00000  Uiso   1.00
C586   C     0.48234   0.82220   0.48965   0.00000  Uiso   1.00
C587   C     0.36579   0.80232   0.22662   0.00000  Uiso   1.00
C588   C     0.64985   0.80258   0.22610   0.00000  Uiso   1.00
C589   C     0.50055   0.75408   0.24960   0.00000  Uiso   1.00
C590   C     0.52587   0.83667   0.15061   0.00000  Uiso   1.00
C591   C     0.58791   0.87344   0.01451   0.00000  Uiso   1.00
C592   C     0.54025   0.84316   0.09460   0.00000  Uiso   1.00
C593   C     0.41957   0.79876   0.43178   0.00000  Uiso   1.00
C594   C     0.40436   0.79788   0.48527   0.00000  Uiso   1.00
C595   C     0.43266   0.81231   0.01472   0.00000  Uiso   1.00
C596   C     0.57106   0.76440   0.36707   0.00000  Uiso   1.00
C597   C     0.49895   0.82161   0.43413   0.00000  Uiso   1.00
C598   C     0.62066   0.74142   0.34852   0.00000  Uiso   1.00
C599   C     0.61911   0.69960   0.32378   0.00000  Uiso   1.00
C600   C     0.51644   0.83394   0.01608   0.00000  Uiso   1.00
C601   C     0.55910   0.85417   0.48853   0.00000  Uiso   1.00
C602   C     0.57534   0.85098   0.43533   0.00000  Uiso   1.00
C603   C     0.55000   0.82741   0.41032   0.00000  Uiso   1.00
C604   C     0.51238   0.82386   0.06745   0.00000  Uiso   1.00
C605   C     0.57675   0.87076   0.06827   0.00000  Uiso   1.00
Cu606  Cu    0.45311   0.83333   0.25000   0.00000  Uiso   1.00
Cu607  Cu    0.54689   0.83334   0.25000   0.00000  Uiso   1.00
H608   H     0.52698   0.70203   0.31550   0.00000  Uiso   1.00
H609   H     0.36849   0.78673   0.00462   0.00000  Uiso   1.00
H610   H     0.52958   0.95994   0.31367   0.00000  Uiso   1.00
H611   H     0.57805   0.96319   0.14269   0.00000  Uiso   1.00
H612   H     0.40450   0.93003   0.35321   0.00000  Uiso   1.00
H613   H     0.36946   0.71782   0.44615   0.00000  Uiso   1.00
H614   H     0.39434   0.75254   0.09781   0.00000  Uiso   1.00
H615   H     0.54951   0.75869   0.34043   0.00000  Uiso   1.00
H616   H     0.55110   0.75194   0.40591   0.00000  Uiso   1.00
H617   H     0.64730   0.76066   0.32035   0.00000  Uiso   1.00
H618   H     0.63382   0.73582   0.38239   0.00000  Uiso   1.00
H619   H     0.46694   0.70662   0.18755   0.00000  Uiso   1.00
H620   H     0.59118   0.68007   0.34993   0.00000  Uiso   1.00
H621   H     0.65513   0.68327   0.31641   0.00000  Uiso   1.00
H622   H     0.61172   0.70410   0.28605   0.00000  Uiso   1.00
H623   H     0.46422   0.96397   0.18907   0.00000  Uiso   1.00
H624   H     0.60682   0.88746   0.29310   0.00000  Uiso   1.00
H625   H     0.39017   0.77703   0.20866   0.00000  Uiso   1.00
H626   H     0.63776   0.77779   0.20685   0.00000  Uiso   1.00
H627   H     0.61149   0.86081   0.41440   0.00000  Uiso   1.00
H628   H     0.61840   0.89137   0.49270   0.00000  Uiso   1.00
H629   H     0.48837   0.80021   0.08679   0.00000  Uiso   1.00
N630   N     0.38265   0.83332   0.24999   0.00000  Uiso   1.00
N631   N     0.61735   0.83335   0.25000   0.00000  Uiso   1.00
O632   O     0.46042   0.89345   0.25001   0.00000  Uiso   1.00
O633   O     0.64391   0.92861   0.06064   0.00000  Uiso   1.00
O634   O     0.56066   0.94230   0.12899   0.00000  Uiso   1.00
O635   O     0.38012   0.94145   0.26632   0.00000  Uiso   1.00
O636   O     0.64641   0.92670   0.34232   0.00000  Uiso   1.00
O637   O     0.39779   0.90187   0.34345   0.00000  Uiso   1.00
O638   O     0.35047   0.80620   0.38458   0.00000  Uiso   1.00
O639   O     0.41243   0.75074   0.35395   0.00000  Uiso   1.00
O640   O     0.34695   0.74070   0.44223   0.00000  Uiso   1.00
O641   O     0.41619   0.85523   0.10441   0.00000  Uiso   1.00
O642   O     0.34672   0.82333   0.08789   0.00000  Uiso   1.00
O643   O     0.53961   0.89346   0.25001   0.00000  Uiso   1.00
O644   O     0.40893   0.77468   0.11282   0.00000  Uiso   1.00
O645   O     0.57870   0.80748   0.36618   0.00000  Uiso   1.00
O646   O     0.44108   0.83332   0.32549   0.00000  Uiso   1.00
O647   O     0.52027   0.83333   0.32549   0.00000  Uiso   1.00
O648   O     0.46039   0.77321   0.25000   0.00000  Uiso   1.00
O649   O     0.53958   0.77322   0.24999   0.00000  Uiso   1.00
O650   O     0.47973   0.83334   0.17451   0.00000  Uiso   1.00
O651   O     0.55892   0.83335   0.17451   0.00000  Uiso   1.00
O652   O     0.62433   0.88698   0.13949   0.00000  Uiso   1.00
S653   S     0.60377   0.90692   0.09974   0.00000  Uiso   1.00
S654   S     0.36018   0.90932   0.30695   0.00000  Uiso   1.00
S655   S     0.38223   0.77413   0.40068   0.00000  Uiso   1.00
S656   S     0.40029   0.81813   0.08135   0.00000  Uiso   1.00
C657   C     0.83269   0.91251   0.24986   0.00000  Uiso   1.00
C658   C     0.79780   0.81588   0.40539   0.00000  Uiso   1.00
C659   C     0.84965   0.97727   0.28572   0.00000  Uiso   1.00
C660   C     0.80851   0.82780   0.34943   0.00000  Uiso   1.00
C661   C     0.84974   0.68675   0.28580   0.00000  Uiso   1.00
C662   C     0.83395   0.70937   0.24923   0.00000  Uiso   1.00
C663   C     0.81407   0.68919   0.21503   0.00000  Uiso   1.00
C664   C     0.81223   0.97961   0.21609   0.00000  Uiso   1.00
C665   C     0.83115   0.95707   0.25066   0.00000  Uiso   1.00
C666   C     0.96632   0.86352   0.27437   0.00000  Uiso   1.00
C667   C     0.68183   0.86417   0.27526   0.00000  Uiso   1.00
C668   C     0.81567   0.82220   0.48965   0.00000  Uiso   1.00
C669   C     0.69912   0.80232   0.22662   0.00000  Uiso   1.00
C670   C     0.98319   0.80258   0.22610   0.00000  Uiso   1.00
C671   C     0.83388   0.75408   0.24960   0.00000  Uiso   1.00
C672   C     0.85920   0.83667   0.15061   0.00000  Uiso   1.00
C673   C     0.92125   0.87344   0.01451   0.00000  Uiso   1.00
C674   C     0.87359   0.84316   0.09460   0.00000  Uiso   1.00
C675   C     0.75290   0.79876   0.43178   0.00000  Uiso   1.00
C676   C     0.73769   0.79788   0.48527   0.00000  Uiso   1.00
C677   C     0.76599   0.81231   0.01472   0.00000  Uiso   1.00
C678   C     0.90439   0.76440   0.36707   0.00000  Uiso   1.00
C679   C     0.83229   0.82161   0.43413   0.00000  Uiso   1.00
C680   C     0.95399   0.74142   0.34852   0.00000  Uiso   1.00
C681   C     0.95245   0.69960   0.32378   0.00000  Uiso   1.00
C682   C     0.84978   0.83394   0.01608   0.00000  Uiso   1.00
C683   C     0.89243   0.85417   0.48853   0.00000  Uiso   1.00
C684   C     0.90867   0.85098   0.43533   0.00000  Uiso   1.00
C685   C     0.88333   0.82741   0.41032   0.00000  Uiso   1.00
C686   C     0.84571   0.82386   0.06745   0.00000  Uiso   1.00
C687   C     0.91009   0.87076   0.06827   0.00000  Uiso   1.00
Cu688  Cu    0.78645   0.83333   0.25000   0.00000  Uiso   1.00
Cu689  Cu    0.88022   0.83334   0.25000   0.00000  Uiso   1.00
H690   H     0.86032   0.70203   0.31550   0.00000  Uiso   1.00
H691   H     0.70182   0.78673   0.00462   0.00000  Uiso   1.00
H692   H     0.86292   0.95994   0.31367   0.00000  Uiso   1.00
H693   H     0.91138   0.96319   0.14269   0.00000  Uiso   1.00
H694   H     0.73783   0.93003   0.35321   0.00000  Uiso   1.00
H695   H     0.70280   0.71782   0.44615   0.00000  Uiso   1.00
H696   H     0.72767   0.75254   0.09781   0.00000  Uiso   1.00
H697   H     0.88285   0.75869   0.34043   0.00000  Uiso   1.00
H698   H     0.88444   0.75194   0.40591   0.00000  Uiso   1.00
H699   H     0.98063   0.76066   0.32035   0.00000  Uiso   1.00
H700   H     0.96716   0.73582   0.38239   0.00000  Uiso   1.00
H701   H     0.80027   0.70662   0.18755   0.00000  Uiso   1.00
H702   H     0.92451   0.68007   0.34993   0.00000  Uiso   1.00
H703   H     0.98846   0.68327   0.31641   0.00000  Uiso   1.00
H704   H     0.94505   0.70410   0.28605   0.00000  Uiso   1.00
H705   H     0.79756   0.96397   0.18907   0.00000  Uiso   1.00
H706   H     0.94016   0.88746   0.29310   0.00000  Uiso   1.00
H707   H     0.72350   0.77703   0.20866   0.00000  Uiso   1.00
H708   H     0.97109   0.77779   0.20685   0.00000  Uiso   1.00
H709   H     0.94483   0.86081   0.41440   0.00000  Uiso   1.00
H710   H     0.95174   0.89137   0.49270   0.00000  Uiso   1.00
H711   H     0.82170   0.80021   0.08679   0.00000  Uiso   1.00
N712   N     0.71598   0.83332   0.24999   0.00000  Uiso   1.00
N713   N     0.95069   0.83335   0.25000   0.00000  Uiso   1.00
O714   O     0.79375   0.89345   0.25001   0.00000  Uiso   1.00
O715   O     0.97724   0.92861   0.06064   0.00000  Uiso   1.00
O716   O     0.89399   0.94230   0.12899   0.00000  Uiso   1.00
O717   O     0.71345   0.94145   0.26632   0.00000  Uiso   1.00
O718   O     0.97975   0.92670   0.34232   0.00000  Uiso   1.00
O719   O     0.73113   0.90187   0.34345   0.00000  Uiso   1.00
O720   O     0.68380   0.80620   0.38458   0.00000  Uiso   1.00
O721   O     0.74576   0.75074   0.35395   0.00000  Uiso   1.00
O722   O     0.68028   0.74070   0.44223   0.00000  Uiso   1.00
O723   O     0.74953   0.85523   0.10441   0.00000  Uiso   1.00
O724   O     0.68005   0.82333   0.08789   0.00000  Uiso   1.00
O725   O     0.87294   0.89346   0.25001   0.00000  Uiso   1.00
O726   O     0.74226   0.77468   0.11282   0.00000  Uiso   1.00
O727   O     0.91203   0.80748   0.36618   0.00000  Uiso   1.00
O728   O     0.77441   0.83332   0.32549   0.00000  Uiso   1.00
O729   O     0.85360   0.83333   0.32549   0.00000  Uiso   1.00
O730   O     0.79373   0.77321   0.25000   0.00000  Uiso   1.00
O731   O     0.87292   0.77322   0.24999   0.00000  Uiso   1.00
O732   O     0.81306   0.83334   0.17451   0.00000  Uiso   1.00
O733   O     0.89225   0.83335   0.17451   0.00000  Uiso   1.00
O734   O     0.95766   0.88698   0.13949   0.00000  Uiso   1.00
S735   S     0.93710   0.90692   0.09974   0.00000  Uiso   1.00
S736   S     0.69351   0.90932   0.30695   0.00000  Uiso   1.00
S737   S     0.71557   0.77413   0.40068   0.00000  Uiso   1.00
S738   S     0.73363   0.81813   0.08135   0.00000  Uiso   1.00
C739   C     0.16603   0.24584   0.74986   0.00000  Uiso   1.00
C740   C     0.13114   0.14921   0.90539   0.00000  Uiso   1.00
C741   C     0.18299   0.31060   0.78572   0.00000  Uiso   1.00
C742   C     0.14185   0.16114   0.84943   0.00000  Uiso   1.00
C743   C     0.18307   0.02008   0.78580   0.00000  Uiso   1.00
C744   C     0.16729   0.04270   0.74923   0.00000  Uiso   1.00
C745   C     0.14740   0.02253   0.71503   0.00000  Uiso   1.00
C746   C     0.14556   0.31294   0.71609   0.00000  Uiso   1.00
C747   C     0.16448   0.29040   0.75066   0.00000  Uiso   1.00
C748   C     0.29965   0.19685   0.77437   0.00000  Uiso   1.00
C749   C     0.01516   0.19751   0.77526   0.00000  Uiso   1.00
C750   C     0.14901   0.15553   0.98965   0.00000  Uiso   1.00
C751   C     0.03246   0.13566   0.72662   0.00000  Uiso   1.00
C752   C     0.31652   0.13591   0.72610   0.00000  Uiso   1.00
C753   C     0.16721   0.08741   0.74960   0.00000  Uiso   1.00
C754   C     0.19254   0.17000   0.65061   0.00000  Uiso   1.00
C755   C     0.25458   0.20678   0.51451   0.00000  Uiso   1.00
C756   C     0.20692   0.17649   0.59460   0.00000  Uiso   1.00
C757   C     0.08624   0.13210   0.93178   0.00000  Uiso   1.00
C758   C     0.07102   0.13121   0.98527   0.00000  Uiso   1.00
C759   C     0.09932   0.14564   0.51472   0.00000  Uiso   1.00
C760   C     0.23773   0.09773   0.86707   0.00000  Uiso   1.00
C761   C     0.16562   0.15494   0.93413   0.00000  Uiso   1.00
C762   C     0.28733   0.07475   0.84852   0.00000  Uiso   1.00
C763   C     0.28578   0.03293   0.82378   0.00000  Uiso   1.00
C764   C     0.18311   0.16727   0.51608   0.00000  Uiso   1.00
C765   C     0.22577   0.18750   0.98853   0.00000  Uiso   1.00
C766   C     0.24200   0.18431   0.93533   0.00000  Uiso   1.00
C767   C     0.21667   0.16075   0.91032   0.00000  Uiso   1.00
C768   C     0.17905   0.15719   0.56745   0.00000  Uiso   1.00
C769   C     0.24342   0.20409   0.56827   0.00000  Uiso   1.00
Cu770  Cu    0.11978   0.16666   0.75000   0.00000  Uiso   1.00
Cu771  Cu    0.21355   0.16667   0.75000   0.00000  Uiso   1.00
H772   H     0.19365   0.03536   0.81550   0.00000  Uiso   1.00
H773   H     0.03515   0.12007   0.50462   0.00000  Uiso   1.00
H774   H     0.19625   0.29328   0.81367   0.00000  Uiso   1.00
H775   H     0.24471   0.29653   0.64269   0.00000  Uiso   1.00
H776   H     0.07117   0.26336   0.85321   0.00000  Uiso   1.00
H777   H     0.03613   0.05115   0.94615   0.00000  Uiso   1.00
H778   H     0.06101   0.08587   0.59781   0.00000  Uiso   1.00
H779   H     0.21618   0.09202   0.84043   0.00000  Uiso   1.00
H780   H     0.21777   0.08527   0.90591   0.00000  Uiso   1.00
H781   H     0.31397   0.09400   0.82035   0.00000  Uiso   1.00
H782   H     0.30049   0.06915   0.88239   0.00000  Uiso   1.00
H783   H     0.13361   0.03996   0.68755   0.00000  Uiso   1.00
H784   H     0.25784   0.01341   0.84993   0.00000  Uiso   1.00
H785   H     0.32179   0.01660   0.81641   0.00000  Uiso   1.00
H786   H     0.27839   0.03743   0.78605   0.00000  Uiso   1.00
H787   H     0.13089   0.29730   0.68907   0.00000  Uiso   1.00
H788   H     0.27349   0.22080   0.79310   0.00000  Uiso   1.00
H789   H     0.05683   0.11036   0.70866   0.00000  Uiso   1.00
H790   H     0.30443   0.11112   0.70685   0.00000  Uiso   1.00
H791   H     0.27816   0.19414   0.91440   0.00000  Uiso   1.00
H792   H     0.28507   0.22470   0.99270   0.00000  Uiso   1.00
H793   H     0.15504   0.13355   0.58679   0.00000  Uiso   1.00
N794   N     0.04931   0.16666   0.74999   0.00000  Uiso   1.00
N795   N     0.28402   0.16669   0.75000   0.00000  Uiso   1.00
O796   O     0.12708   0.22678   0.75001   0.00000  Uiso   1.00
O797   O     0.31058   0.26194   0.56064   0.00000  Uiso   1.00
O798   O     0.22732   0.27563   0.62899   0.00000  Uiso   1.00
O799   O     0.04679   0.27479   0.76632   0.00000  Uiso   1.00
O800   O     0.31308   0.26004   0.84232   0.00000  Uiso   1.00
O801   O     0.06446   0.23521   0.84345   0.00000  Uiso   1.00
O802   O     0.01713   0.13953   0.88458   0.00000  Uiso   1.00
O803   O     0.07910   0.08407   0.85395   0.00000  Uiso   1.00
O804   O     0.01361   0.07403   0.94223   0.00000  Uiso   1.00
O805   O     0.08286   0.18856   0.60441   0.00000  Uiso   1.00
O806   O     0.01338   0.15667   0.58789   0.00000  Uiso   1.00
O807   O     0.20627   0.22679   0.75001   0.00000  Uiso   1.00
O808   O     0.07559   0.10802   0.61282   0.00000  Uiso   1.00
O809   O     0.24537   0.14081   0.86618   0.00000  Uiso   1.00
O810   O     0.10775   0.16665   0.82549   0.00000  Uiso   1.00
O811   O     0.18694   0.16666   0.82549   0.00000  Uiso   1.00
O812   O     0.12706   0.10654   0.75000   0.00000  Uiso   1.00
O813   O     0.20625   0.10655   0.74999   0.00000  Uiso   1.00
O814   O     0.14640   0.16667   0.67451   0.00000  Uiso   1.00
O815   O     0.22559   0.16668   0.67451   0.00000  Uiso   1.00
O816   O     0.29099   0.22032   0.63949   0.00000  Uiso   1.00
S817   S     0.27044   0.24026   0.59974   0.00000  Uiso   1.00
S818   S     0.02685   0.24266   0.80695   0.00000  Uiso   1.00
S819   S     0.04890   0.10746   0.90068   0.00000  Uiso   1.00
S820   S     0.06696   0.15147   0.58135   0.00000  Uiso   1.00
C821   C     0.49936   0.24584   0.74986   0.00000  Uiso   1.00
C822   C     0.46447   0.14921   0.90539   0.00000  Uiso   1.00
C823   C     0.51632   0.31060   0.78572   0.00000  Uiso   1.00
C824   C     0.47518   0.16114   0.84943   0.00000  Uiso   1.00
C825   C     0.51641   0.02008   0.78580   0.00000  Uiso   1.00
C826   C     0.50062   0.04270   0.74923   0.00000  Uiso   1.00
C827   C     0.48073   0.02253   0.71503   0.00000  Uiso   1.00
C828   C     0.47890   0.31294   0.71609   0.00000  Uiso   1.00
C829   C     0.49782   0.29040   0.75066   0.00000  Uiso   1.00
C830   C     0.63298   0.19685   0.77437   0.00000  Uiso   1.00
C831   C     0.34849   0.19751   0.77526   0.00000  Uiso   1.00
C832   C     0.48234   0.15553   0.98965   0.00000  Uiso   1.00
C833   C     0.36579   0.13566   0.72662   0.00000  Uiso   1.00
C834   C     0.64985   0.13591   0.72610   0.00000  Uiso   1.00
C835   C     0.50055   0.08741   0.74960   0.00000  Uiso   1.00
C836   C     0.52587   0.17000   0.65061   0.00000  Uiso   1.00
C837   C     0.58791   0.20678   0.51451   0.00000  Uiso   1.00
C838   C     0.54025   0.17649   0.59460   0.00000  Uiso   1.00
C839   C     0.41957   0.13210   0.93178   0.00000  Uiso   1.00
C840   C     0.40436   0.13121   0.98527   0.00000  Uiso   1.00
C841   C     0.43266   0.14564   0.51472   0.00000  Uiso   1.00
C842   C     0.57106   0.09773   0.86707   0.00000  Uiso   1.00
C843   C     0.49895   0.15494   0.93413   0.00000  Uiso   1.00
C844   C     0.62066   0.07475   0.84852   0.00000  Uiso   1.00
C845   C     0.61911   0.03293   0.82378   0.00000  Uiso   1.00
C846   C     0.51644   0.16727   0.51608   0.00000  Uiso   1.00
C847   C     0.55910   0.18750   0.98853   0.00000  Uiso   1.00
C848   C     0.57534   0.18431   0.93533   0.00000  Uiso   1.00
C849   C     0.55000   0.16075   0.91032   0.00000  Uiso   1.00
C850   C     0.51238   0.15719   0.56745   0.00000  Uiso   1.00
C851   C     0.57675   0.20409   0.56827   0.00000  Uiso   1.00
Cu852  Cu    0.45311   0.16666   0.75000   0.00000  Uiso   1.00
Cu853  Cu    0.54689   0.16667   0.75000   0.00000  Uiso   1.00
H854   H     0.52698   0.03536   0.81550   0.00000  Uiso   1.00
H855   H     0.36849   0.12007   0.50462   0.00000  Uiso   1.00
H856   H     0.52958   0.29328   0.81367   0.00000  Uiso   1.00
H857   H     0.57805   0.29653   0.64269   0.00000  Uiso   1.00
H858   H     0.40450   0.26336   0.85321   0.00000  Uiso   1.00
H859   H     0.36946   0.05115   0.94615   0.00000  Uiso   1.00
H860   H     0.39434   0.08587   0.59781   0.00000  Uiso   1.00
H861   H     0.54951   0.09202   0.84043   0.00000  Uiso   1.00
H862   H     0.55110   0.08527   0.90591   0.00000  Uiso   1.00
H863   H     0.64730   0.09400   0.82035   0.00000  Uiso   1.00
H864   H     0.63382   0.06915   0.88239   0.00000  Uiso   1.00
H865   H     0.46694   0.03996   0.68755   0.00000  Uiso   1.00
H866   H     0.59118   0.01341   0.84993   0.00000  Uiso   1.00
H867   H     0.65513   0.01660   0.81641   0.00000  Uiso   1.00
H868   H     0.61172   0.03743   0.78605   0.00000  Uiso   1.00
H869   H     0.46422   0.29730   0.68907   0.00000  Uiso   1.00
H870   H     0.60682   0.22080   0.79310   0.00000  Uiso   1.00
H871   H     0.39017   0.11036   0.70866   0.00000  Uiso   1.00
H872   H     0.63776   0.11112   0.70685   0.00000  Uiso   1.00
H873   H     0.61149   0.19414   0.91440   0.00000  Uiso   1.00
H874   H     0.61840   0.22470   0.99270   0.00000  Uiso   1.00
H875   H     0.48837   0.13355   0.58679   0.00000  Uiso   1.00
N876   N     0.38265   0.16666   0.74999   0.00000  Uiso   1.00
N877   N     0.61735   0.16669   0.75000   0.00000  Uiso   1.00
O878   O     0.46042   0.22678   0.75001   0.00000  Uiso   1.00
O879   O     0.64391   0.26194   0.56064   0.00000  Uiso   1.00
O880   O     0.56066   0.27563   0.62899   0.00000  Uiso   1.00
O881   O     0.38012   0.27479   0.76632   0.00000  Uiso   1.00
O882   O     0.64641   0.26004   0.84232   0.00000  Uiso   1.00
O883   O     0.39779   0.23521   0.84345   0.00000  Uiso   1.00
O884   O     0.35047   0.13953   0.88458   0.00000  Uiso   1.00
O885   O     0.41243   0.08407   0.85395   0.00000  Uiso   1.00
O886   O     0.34695   0.07403   0.94223   0.00000  Uiso   1.00
O887   O     0.41619   0.18856   0.60441   0.00000  Uiso   1.00
O888   O     0.34672   0.15667   0.58789   0.00000  Uiso   1.00
O889   O     0.53961   0.22679   0.75001   0.00000  Uiso   1.00
O890   O     0.40893   0.10802   0.61282   0.00000  Uiso   1.00
O891   O     0.57870   0.14081   0.86618   0.00000  Uiso   1.00
O892   O     0.44108   0.16665   0.82549   0.00000  Uiso   1.00
O893   O     0.52027   0.16666   0.82549   0.00000  Uiso   1.00
O894   O     0.46039   0.10654   0.75000   0.00000  Uiso   1.00
O895   O     0.53958   0.10655   0.74999   0.00000  Uiso   1.00
O896   O     0.47973   0.16667   0.67451   0.00000  Uiso   1.00
O897   O     0.55892   0.16668   0.67451   0.00000  Uiso   1.00
O898   O     0.62433   0.22032   0.63949   0.00000  Uiso   1.00
S899   S     0.60377   0.24026   0.59974   0.00000  Uiso   1.00
S900   S     0.36018   0.24266   0.80695   0.00000  Uiso   1.00
S901   S     0.38223   0.10746   0.90068   0.00000  Uiso   1.00
S902   S     0.40029   0.15147   0.58135   0.00000  Uiso   1.00
C903   C     0.83269   0.24584   0.74986   0.00000  Uiso   1.00
C904   C     0.79780   0.14921   0.90539   0.00000  Uiso   1.00
C905   C     0.84965   0.31060   0.78572   0.00000  Uiso   1.00
C906   C     0.80851   0.16114   0.84943   0.00000  Uiso   1.00
C907   C     0.84974   0.02008   0.78580   0.00000  Uiso   1.00
C908   C     0.83395   0.04270   0.74923   0.00000  Uiso   1.00
C909   C     0.81407   0.02253   0.71503   0.00000  Uiso   1.00
C910   C     0.81223   0.31294   0.71609   0.00000  Uiso   1.00
C911   C     0.83115   0.29040   0.75066   0.00000  Uiso   1.00
C912   C     0.96632   0.19685   0.77437   0.00000  Uiso   1.00
C913   C     0.68183   0.19751   0.77526   0.00000  Uiso   1.00
C914   C     0.81567   0.15553   0.98965   0.00000  Uiso   1.00
C915   C     0.69912   0.13566   0.72662   0.00000  Uiso   1.00
C916   C     0.98319   0.13591   0.72610   0.00000  Uiso   1.00
C917   C     0.83388   0.08741   0.74960   0.00000  Uiso   1.00
C918   C     0.85920   0.17000   0.65061   0.00000  Uiso   1.00
C919   C     0.92125   0.20678   0.51451   0.00000  Uiso   1.00
C920   C     0.87359   0.17649   0.59460   0.00000  Uiso   1.00
C921   C     0.75290   0.13210   0.93178   0.00000  Uiso   1.00
C922   C     0.73769   0.13121   0.98527   0.00000  Uiso   1.00
C923   C     0.76599   0.14564   0.51472   0.00000  Uiso   1.00
C924   C     0.90439   0.09773   0.86707   0.00000  Uiso   1.00
C925   C     0.83229   0.15494   0.93413   0.00000  Uiso   1.00
C926   C     0.95399   0.07475   0.84852   0.00000  Uiso   1.00
C927   C     0.95245   0.03293   0.82378   0.00000  Uiso   1.00
C928   C     0.84978   0.16727   0.51608   0.00000  Uiso   1.00
C929   C     0.89243   0.18750   0.98853   0.00000  Uiso   1.00
C930   C     0.90867   0.18431   0.93533   0.00000  Uiso   1.00
C931   C     0.88333   0.16075   0.91032   0.00000  Uiso   1.00
C932   C     0.84571   0.15719   0.56745   0.00000  Uiso   1.00
C933   C     0.91009   0.20409   0.56827   0.00000  Uiso   1.00
Cu934  Cu    0.78645   0.16666   0.75000   0.00000  Uiso   1.00
Cu935  Cu    0.88022   0.16667   0.75000   0.00000  Uiso   1.00
H936   H     0.86032   0.03536   0.81550   0.00000  Uiso   1.00
H937   H     0.70182   0.12007   0.50462   0.00000  Uiso   1.00
H938   H     0.86292   0.29328   0.81367   0.00000  Uiso   1.00
H939   H     0.91138   0.29653   0.64269   0.00000  Uiso   1.00
H940   H     0.73783   0.26336   0.85321   0.00000  Uiso   1.00
H941   H     0.70280   0.05115   0.94615   0.00000  Uiso   1.00
H942   H     0.72767   0.08587   0.59781   0.00000  Uiso   1.00
H943   H     0.88285   0.09202   0.84043   0.00000  Uiso   1.00
H944   H     0.88444   0.08527   0.90591   0.00000  Uiso   1.00
H945   H     0.98063   0.09400   0.82035   0.00000  Uiso   1.00
H946   H     0.96716   0.06915   0.88239   0.00000  Uiso   1.00
H947   H     0.80027   0.03996   0.68755   0.00000  Uiso   1.00
H948   H     0.92451   0.01341   0.84993   0.00000  Uiso   1.00
H949   H     0.98846   0.01660   0.81641   0.00000  Uiso   1.00
H950   H     0.94505   0.03743   0.78605   0.00000  Uiso   1.00
H951   H     0.79756   0.29730   0.68907   0.00000  Uiso   1.00
H952   H     0.94016   0.22080   0.79310   0.00000  Uiso   1.00
H953   H     0.72350   0.11036   0.70866   0.00000  Uiso   1.00
H954   H     0.97109   0.11112   0.70685   0.00000  Uiso   1.00
H955   H     0.94483   0.19414   0.91440   0.00000  Uiso   1.00
H956   H     0.95174   0.22470   0.99270   0.00000  Uiso   1.00
H957   H     0.82170   0.13355   0.58679   0.00000  Uiso   1.00
N958   N     0.71598   0.16666   0.74999   0.00000  Uiso   1.00
N959   N     0.95069   0.16669   0.75000   0.00000  Uiso   1.00
O960   O     0.79375   0.22678   0.75001   0.00000  Uiso   1.00
O961   O     0.97724   0.26194   0.56064   0.00000  Uiso   1.00
O962   O     0.89399   0.27563   0.62899   0.00000  Uiso   1.00
O963   O     0.71345   0.27479   0.76632   0.00000  Uiso   1.00
O964   O     0.97975   0.26004   0.84232   0.00000  Uiso   1.00
O965   O     0.73113   0.23521   0.84345   0.00000  Uiso   1.00
O966   O     0.68380   0.13953   0.88458   0.00000  Uiso   1.00
O967   O     0.74576   0.08407   0.85395   0.00000  Uiso   1.00
O968   O     0.68028   0.07403   0.94223   0.00000  Uiso   1.00
O969   O     0.74953   0.18856   0.60441   0.00000  Uiso   1.00
O970   O     0.68005   0.15667   0.58789   0.00000  Uiso   1.00
O971   O     0.87294   0.22679   0.75001   0.00000  Uiso   1.00
O972   O     0.74226   0.10802   0.61282   0.00000  Uiso   1.00
O973   O     0.91203   0.14081   0.86618   0.00000  Uiso   1.00
O974   O     0.77441   0.16665   0.82549   0.00000  Uiso   1.00
O975   O     0.85360   0.16666   0.82549   0.00000  Uiso   1.00
O976   O     0.79373   0.10654   0.75000   0.00000  Uiso   1.00
O977   O     0.87292   0.10655   0.74999   0.00000  Uiso   1.00
O978   O     0.81306   0.16667   0.67451   0.00000  Uiso   1.00
O979   O     0.89225   0.16668   0.67451   0.00000  Uiso   1.00
O980   O     0.95766   0.22032   0.63949   0.00000  Uiso   1.00
S981   S     0.93710   0.24026   0.59974   0.00000  Uiso   1.00
S982   S     0.69351   0.24266   0.80695   0.00000  Uiso   1.00
S983   S     0.71557   0.10746   0.90068   0.00000  Uiso   1.00
S984   S     0.73363   0.15147   0.58135   0.00000  Uiso   1.00
C985   C     0.16603   0.57917   0.74986   0.00000  Uiso   1.00
C986   C     0.13114   0.48255   0.90539   0.00000  Uiso   1.00
C987   C     0.18299   0.64394   0.78572   0.00000  Uiso   1.00
C988   C     0.14185   0.49447   0.84943   0.00000  Uiso   1.00
C989   C     0.18307   0.35341   0.78580   0.00000  Uiso   1.00
C990   C     0.16729   0.37603   0.74923   0.00000  Uiso   1.00
C991   C     0.14740   0.35586   0.71503   0.00000  Uiso   1.00
C992   C     0.14556   0.64628   0.71609   0.00000  Uiso   1.00
C993   C     0.16448   0.62374   0.75066   0.00000  Uiso   1.00
C994   C     0.29965   0.53019   0.77437   0.00000  Uiso   1.00
C995   C     0.01516   0.53084   0.77526   0.00000  Uiso   1.00
C996   C     0.14901   0.48886   0.98965   0.00000  Uiso   1.00
C997   C     0.03246   0.46899   0.72662   0.00000  Uiso   1.00
C998   C     0.31652   0.46925   0.72610   0.00000  Uiso   1.00
C999   C     0.16721   0.42075   0.74960   0.00000  Uiso   1.00
C1000  C     0.19254   0.50333   0.65061   0.00000  Uiso   1.00
C1001  C     0.25458   0.54011   0.51451   0.00000  Uiso   1.00
C1002  C     0.20692   0.50982   0.59460   0.00000  Uiso   1.00
C1003  C     0.08624   0.46543   0.93178   0.00000  Uiso   1.00
C1004  C     0.07102   0.46455   0.98527   0.00000  Uiso   1.00
C1005  C     0.09932   0.47898   0.51472   0.00000  Uiso   1.00
C1006  C     0.23773   0.43106   0.86707   0.00000  Uiso   1.00
C1007  C     0.16562   0.48827   0.93413   0.00000  Uiso   1.00
C1008  C     0.28733   0.40808   0.84852   0.00000  Uiso   1.00
C1009  C     0.28578   0.36626   0.82378   0.00000  Uiso   1.00
C1010  C     0.18311   0.50060   0.51608   0.00000  Uiso   1.00
C1011  C     0.22577   0.52084   0.98853   0.00000  Uiso   1.00
C1012  C     0.24200   0.51764   0.93533   0.00000  Uiso   1.00
C1013  C     0.21667   0.49408   0.91032   0.00000  Uiso   1.00
C1014  C     0.17905   0.49052   0.56745   0.00000  Uiso   1.00
C1015  C     0.24342   0.53742   0.56827   0.00000  Uiso   1.00
Cu1016 Cu    0.11978   0.49999   0.75000   0.00000  Uiso   1.00
Cu1017 Cu    0.21355   0.50001   0.75000   0.00000  Uiso   1.00
H1018  H     0.19365   0.36870   0.81550   0.00000  Uiso   1.00
H1019  H     0.03515   0.45340   0.50462   0.00000  Uiso   1.00
H1020  H     0.19625   0.62661   0.81367   0.00000  Uiso   1.00
H1021  H     0.24471   0.62986   0.64269   0.00000  Uiso   1.00
H1022  H     0.07117   0.59669   0.85321   0.00000  Uiso   1.00
H1023  H     0.03613   0.38449   0.94615   0.00000  Uiso   1.00
H1024  H     0.06101   0.41920   0.59781   0.00000  Uiso   1.00
H1025  H     0.21618   0.42535   0.84043   0.00000  Uiso   1.00
H1026  H     0.21777   0.41860   0.90591   0.00000  Uiso   1.00
H1027  H     0.31397   0.42733   0.82035   0.00000  Uiso   1.00
H1028  H     0.30049   0.40249   0.88239   0.00000  Uiso   1.00
H1029  H     0.13361   0.37329   0.68755   0.00000  Uiso   1.00
H1030  H     0.25784   0.34674   0.84993   0.00000  Uiso   1.00
H1031  H     0.32179   0.34993   0.81641   0.00000  Uiso   1.00
H1032  H     0.27839   0.37077   0.78605   0.00000  Uiso   1.00
H1033  H     0.13089   0.63063   0.68907   0.00000  Uiso   1.00
H1034  H     0.27349   0.55413   0.79310   0.00000  Uiso   1.00
H1035  H     0.05683   0.44370   0.70866   0.00000  Uiso   1.00
H1036  H     0.30443   0.44446   0.70685   0.00000  Uiso   1.00
H1037  H     0.27816   0.52748   0.91440   0.00000  Uiso   1.00
H1038  H     0.28507   0.55803   0.99270   0.00000  Uiso   1.00
H1039  H     0.15504   0.46688   0.58679   0.00000  Uiso   1.00
N1040  N     0.04931   0.49999   0.74999   0.00000  Uiso   1.00
N1041  N     0.28402   0.50002   0.75000   0.00000  Uiso   1.00
O1042  O     0.12708   0.56011   0.75001   0.00000  Uiso   1.00
O1043  O     0.31058   0.59528   0.56064   0.00000  Uiso   1.00
O1044  O     0.22732   0.60897   0.62899   0.00000  Uiso   1.00
O1045  O     0.04679   0.60812   0.76632   0.00000  Uiso   1.00
O1046  O     0.31308   0.59337   0.84232   0.00000  Uiso   1.00
O1047  O     0.06446   0.56854   0.84345   0.00000  Uiso   1.00
O1048  O     0.01713   0.47286   0.88458   0.00000  Uiso   1.00
O1049  O     0.07910   0.41741   0.85395   0.00000  Uiso   1.00
O1050  O     0.01361   0.40737   0.94223   0.00000  Uiso   1.00
O1051  O     0.08286   0.52190   0.60441   0.00000  Uiso   1.00
O1052  O     0.01338   0.49000   0.58789   0.00000  Uiso   1.00
O1053  O     0.20627   0.56012   0.75001   0.00000  Uiso   1.00
O1054  O     0.07559   0.44135   0.61282   0.00000  Uiso   1.00
O1055  O     0.24537   0.47414   0.86618   0.00000  Uiso   1.00
O1056  O     0.10775   0.49998   0.82549   0.00000  Uiso   1.00
O1057  O     0.18694   0.49999   0.82549   0.00000  Uiso   1.00
O1058  O     0.12706   0.43988   0.75000   0.00000  Uiso   1.00
O1059  O     0.20625   0.43989   0.74999   0.00000  Uiso   1.00
O1060  O     0.14640   0.50001   0.67451   0.00000  Uiso   1.00
O1061  O     0.22559   0.50002   0.67451   0.00000  Uiso   1.00
O1062  O     0.29099   0.55365   0.63949   0.00000  Uiso   1.00
S1063  S     0.27044   0.57359   0.59974   0.00000  Uiso   1.00
S1064  S     0.02685   0.57599   0.80695   0.00000  Uiso   1.00
S1065  S     0.04890   0.44080   0.90068   0.00000  Uiso   1.00
S1066  S     0.06696   0.48480   0.58135   0.00000  Uiso   1.00
C1067  C     0.49936   0.57917   0.74986   0.00000  Uiso   1.00
C1068  C     0.46447   0.48255   0.90539   0.00000  Uiso   1.00
C1069  C     0.51632   0.64394   0.78572   0.00000  Uiso   1.00
C1070  C     0.47518   0.49447   0.84943   0.00000  Uiso   1.00
C1071  C     0.51641   0.35341   0.78580   0.00000  Uiso   1.00
C1072  C     0.50062   0.37603   0.74923   0.00000  Uiso   1.00
C1073  C     0.48073   0.35586   0.71503   0.00000  Uiso   1.00
C1074  C     0.47890   0.64628   0.71609   0.00000  Uiso   1.00
C1075  C     0.49782   0.62374   0.75066   0.00000  Uiso   1.00
C1076  C     0.63298   0.53019   0.77437   0.00000  Uiso   1.00
C1077  C     0.34849   0.53084   0.77526   0.00000  Uiso   1.00
C1078  C     0.48234   0.48886   0.98965   0.00000  Uiso   1.00
C1079  C     0.36579   0.46899   0.72662   0.00000  Uiso   1.00
C1080  C     0.64985   0.46925   0.72610   0.00000  Uiso   1.00
C1081  C     0.50055   0.42075   0.74960   0.00000  Uiso   1.00
C1082  C     0.52587   0.50333   0.65061   0.00000  Uiso   1.00
C1083  C     0.58791   0.54011   0.51451   0.00000  Uiso   1.00
C1084  C     0.54025   0.50982   0.59460   0.00000  Uiso   1.00
C1085  C     0.41957   0.46543   0.93178   0.00000  Uiso   1.00
C1086  C     0.40436   0.46455   0.98527   0.00000  Uiso   1.00
C1087  C     0.43266   0.47898   0.51472   0.00000  Uiso   1.00
C1088  C     0.57106   0.43106   0.86707   0.00000  Uiso   1.00
C1089  C     0.49895   0.48827   0.93413   0.00000  Uiso   1.00
C1090  C     0.62066   0.40808   0.84852   0.00000  Uiso   1.00
C1091  C     0.61911   0.36626   0.82378   0.00000  Uiso   1.00
C1092  C     0.51644   0.50060   0.51608   0.00000  Uiso   1.00
C1093  C     0.55910   0.52084   0.98853   0.00000  Uiso   1.00
C1094  C     0.57534   0.51764   0.93533   0.00000  Uiso   1.00
C1095  C     0.55000   0.49408   0.91032   0.00000  Uiso   1.00
C1096  C     0.51238   0.49052   0.56745   0.00000  Uiso   1.00
C1097  C     0.57675   0.53742   0.56827   0.00000  Uiso   1.00
Cu1098 Cu    0.45311   0.49999   0.75000   0.00000  Uiso   1.00
Cu1099 Cu    0.54689   0.50001   0.75000   0.00000  Uiso   1.00
H1100  H     0.52698   0.36870   0.81550   0.00000  Uiso   1.00
H1101  H     0.36849   0.45340   0.50462   0.00000  Uiso   1.00
H1102  H     0.52958   0.62661   0.81367   0.00000  Uiso   1.00
H1103  H     0.57805   0.62986   0.64269   0.00000  Uiso   1.00
H1104  H     0.40450   0.59669   0.85321   0.00000  Uiso   1.00
H1105  H     0.36946   0.38449   0.94615   0.00000  Uiso   1.00
H1106  H     0.39434   0.41920   0.59781   0.00000  Uiso   1.00
H1107  H     0.54951   0.42535   0.84043   0.00000  Uiso   1.00
H1108  H     0.55110   0.41860   0.90591   0.00000  Uiso   1.00
H1109  H     0.64730   0.42733   0.82035   0.00000  Uiso   1.00
H1110  H     0.63382   0.40249   0.88239   0.00000  Uiso   1.00
H1111  H     0.46694   0.37329   0.68755   0.00000  Uiso   1.00
H1112  H     0.59118   0.34674   0.84993   0.00000  Uiso   1.00
H1113  H     0.65513   0.34993   0.81641   0.00000  Uiso   1.00
H1114  H     0.61172   0.37077   0.78605   0.00000  Uiso   1.00
H1115  H     0.46422   0.63063   0.68907   0.00000  Uiso   1.00
H1116  H     0.60682   0.55413   0.79310   0.00000  Uiso   1.00
H1117  H     0.39017   0.44370   0.70866   0.00000  Uiso   1.00
H1118  H     0.63776   0.44446   0.70685   0.00000  Uiso   1.00
H1119  H     0.61149   0.52748   0.91440   0.00000  Uiso   1.00
H1120  H     0.61840   0.55803   0.99270   0.00000  Uiso   1.00
H1121  H     0.48837   0.46688   0.58679   0.00000  Uiso   1.00
N1122  N     0.38265   0.49999   0.74999   0.00000  Uiso   1.00
N1123  N     0.61735   0.50002   0.75000   0.00000  Uiso   1.00
O1124  O     0.46042   0.56011   0.75001   0.00000  Uiso   1.00
O1125  O     0.64391   0.59528   0.56064   0.00000  Uiso   1.00
O1126  O     0.56066   0.60897   0.62899   0.00000  Uiso   1.00
O1127  O     0.38012   0.60812   0.76632   0.00000  Uiso   1.00
O1128  O     0.64641   0.59337   0.84232   0.00000  Uiso   1.00
O1129  O     0.39779   0.56854   0.84345   0.00000  Uiso   1.00
O1130  O     0.35047   0.47286   0.88458   0.00000  Uiso   1.00
O1131  O     0.41243   0.41741   0.85395   0.00000  Uiso   1.00
O1132  O     0.34695   0.40737   0.94223   0.00000  Uiso   1.00
O1133  O     0.41619   0.52190   0.60441   0.00000  Uiso   1.00
O1134  O     0.34672   0.49000   0.58789   0.00000  Uiso   1.00
O1135  O     0.53961   0.56012   0.75001   0.00000  Uiso   1.00
O1136  O     0.40893   0.44135   0.61282   0.00000  Uiso   1.00
O1137  O     0.57870   0.47414   0.86618   0.00000  Uiso   1.00
O1138  O     0.44108   0.49998   0.82549   0.00000  Uiso   1.00
O1139  O     0.52027   0.49999   0.82549   0.00000  Uiso   1.00
O1140  O     0.46039   0.43988   0.75000   0.00000  Uiso   1.00
O1141  O     0.53958   0.43989   0.74999   0.00000  Uiso   1.00
O1142  O     0.47973   0.50001   0.67451   0.00000  Uiso   1.00
O1143  O     0.55892   0.50002   0.67451   0.00000  Uiso   1.00
O1144  O     0.62433   0.55365   0.63949   0.00000  Uiso   1.00
S1145  S     0.60377   0.57359   0.59974   0.00000  Uiso   1.00
S1146  S     0.36018   0.57599   0.80695   0.00000  Uiso   1.00
S1147  S     0.38223   0.44080   0.90068   0.00000  Uiso   1.00
S1148  S     0.40029   0.48480   0.58135   0.00000  Uiso   1.00
C1149  C     0.83269   0.57917   0.74986   0.00000  Uiso   1.00
C1150  C     0.79780   0.48255   0.90539   0.00000  Uiso   1.00
C1151  C     0.84965   0.64394   0.78572   0.00000  Uiso   1.00
C1152  C     0.80851   0.49447   0.84943   0.00000  Uiso   1.00
C1153  C     0.84974   0.35341   0.78580   0.00000  Uiso   1.00
C1154  C     0.83395   0.37603   0.74923   0.00000  Uiso   1.00
C1155  C     0.81407   0.35586   0.71503   0.00000  Uiso   1.00
C1156  C     0.81223   0.64628   0.71609   0.00000  Uiso   1.00
C1157  C     0.83115   0.62374   0.75066   0.00000  Uiso   1.00
C1158  C     0.96632   0.53019   0.77437   0.00000  Uiso   1.00
C1159  C     0.68183   0.53084   0.77526   0.00000  Uiso   1.00
C1160  C     0.81567   0.48886   0.98965   0.00000  Uiso   1.00
C1161  C     0.69912   0.46899   0.72662   0.00000  Uiso   1.00
C1162  C     0.98319   0.46925   0.72610   0.00000  Uiso   1.00
C1163  C     0.83388   0.42075   0.74960   0.00000  Uiso   1.00
C1164  C     0.85920   0.50333   0.65061   0.00000  Uiso   1.00
C1165  C     0.92125   0.54011   0.51451   0.00000  Uiso   1.00
C1166  C     0.87359   0.50982   0.59460   0.00000  Uiso   1.00
C1167  C     0.75290   0.46543   0.93178   0.00000  Uiso   1.00
C1168  C     0.73769   0.46455   0.98527   0.00000  Uiso   1.00
C1169  C     0.76599   0.47898   0.51472   0.00000  Uiso   1.00
C1170  C     0.90439   0.43106   0.86707   0.00000  Uiso   1.00
C1171  C     0.83229   0.48827   0.93413   0.00000  Uiso   1.00
C1172  C     0.95399   0.40808   0.84852   0.00000  Uiso   1.00
C1173  C     0.95245   0.36626   0.82378   0.00000  Uiso   1.00
C1174  C     0.84978   0.50060   0.51608   0.00000  Uiso   1.00
C1175  C     0.89243   0.52084   0.98853   0.00000  Uiso   1.00
C1176  C     0.90867   0.51764   0.93533   0.00000  Uiso   1.00
C1177  C     0.88333   0.49408   0.91032   0.00000  Uiso   1.00
C1178  C     0.84571   0.49052   0.56745   0.00000  Uiso   1.00
C1179  C     0.91009   0.53742   0.56827   0.00000  Uiso   1.00
Cu1180 Cu    0.78645   0.49999   0.75000   0.00000  Uiso   1.00
Cu1181 Cu    0.88022   0.50001   0.75000   0.00000  Uiso   1.00
H1182  H     0.86032   0.36870   0.81550   0.00000  Uiso   1.00
H1183  H     0.70182   0.45340   0.50462   0.00000  Uiso   1.00
H1184  H     0.86292   0.62661   0.81367   0.00000  Uiso   1.00
H1185  H     0.91138   0.62986   0.64269   0.00000  Uiso   1.00
H1186  H     0.73783   0.59669   0.85321   0.00000  Uiso   1.00
H1187  H     0.70280   0.38449   0.94615   0.00000  Uiso   1.00
H1188  H     0.72767   0.41920   0.59781   0.00000  Uiso   1.00
H1189  H     0.88285   0.42535   0.84043   0.00000  Uiso   1.00
H1190  H     0.88444   0.41860   0.90591   0.00000  Uiso   1.00
H1191  H     0.98063   0.42733   0.82035   0.00000  Uiso   1.00
H1192  H     0.96716   0.40249   0.88239   0.00000  Uiso   1.00
H1193  H     0.80027   0.37329   0.68755   0.00000  Uiso   1.00
H1194  H     0.92451   0.34674   0.84993   0.00000  Uiso   1.00
H1195  H     0.98846   0.34993   0.81641   0.00000  Uiso   1.00
H1196  H     0.94505   0.37077   0.78605   0.00000  Uiso   1.00
H1197  H     0.79756   0.63063   0.68907   0.00000  Uiso   1.00
H1198  H     0.94016   0.55413   0.79310   0.00000  Uiso   1.00
H1199  H     0.72350   0.44370   0.70866   0.00000  Uiso   1.00
H1200  H     0.97109   0.44446   0.70685   0.00000  Uiso   1.00
H1201  H     0.94483   0.52748   0.91440   0.00000  Uiso   1.00
H1202  H     0.95174   0.55803   0.99270   0.00000  Uiso   1.00
H1203  H     0.82170   0.46688   0.58679   0.00000  Uiso   1.00
N1204  N     0.71598   0.49999   0.74999   0.00000  Uiso   1.00
N1205  N     0.95069   0.50002   0.75000   0.00000  Uiso   1.00
O1206  O     0.79375   0.56011   0.75001   0.00000  Uiso   1.00
O1207  O     0.97724   0.59528   0.56064   0.00000  Uiso   1.00
O1208  O     0.89399   0.60897   0.62899   0.00000  Uiso   1.00
O1209  O     0.71345   0.60812   0.76632   0.00000  Uiso   1.00
O1210  O     0.97975   0.59337   0.84232   0.00000  Uiso   1.00
O1211  O     0.73113   0.56854   0.84345   0.00000  Uiso   1.00
O1212  O     0.68380   0.47286   0.88458   0.00000  Uiso   1.00
O1213  O     0.74576   0.41741   0.85395   0.00000  Uiso   1.00
O1214  O     0.68028   0.40737   0.94223   0.00000  Uiso   1.00
O1215  O     0.74953   0.52190   0.60441   0.00000  Uiso   1.00
O1216  O     0.68005   0.49000   0.58789   0.00000  Uiso   1.00
O1217  O     0.87294   0.56012   0.75001   0.00000  Uiso   1.00
O1218  O     0.74226   0.44135   0.61282   0.00000  Uiso   1.00
O1219  O     0.91203   0.47414   0.86618   0.00000  Uiso   1.00
O1220  O     0.77441   0.49998   0.82549   0.00000  Uiso   1.00
O1221  O     0.85360   0.49999   0.82549   0.00000  Uiso   1.00
O1222  O     0.79373   0.43988   0.75000   0.00000  Uiso   1.00
O1223  O     0.87292   0.43989   0.74999   0.00000  Uiso   1.00
O1224  O     0.81306   0.50001   0.67451   0.00000  Uiso   1.00
O1225  O     0.89225   0.50002   0.67451   0.00000  Uiso   1.00
O1226  O     0.95766   0.55365   0.63949   0.00000  Uiso   1.00
S1227  S     0.93710   0.57359   0.59974   0.00000  Uiso   1.00
S1228  S     0.69351   0.57599   0.80695   0.00000  Uiso   1.00
S1229  S     0.71557   0.44080   0.90068   0.00000  Uiso   1.00
S1230  S     0.73363   0.48480   0.58135   0.00000  Uiso   1.00
C1231  C     0.16603   0.91251   0.74986   0.00000  Uiso   1.00
C1232  C     0.13114   0.81588   0.90539   0.00000  Uiso   1.00
C1233  C     0.18299   0.97727   0.78572   0.00000  Uiso   1.00
C1234  C     0.14185   0.82780   0.84943   0.00000  Uiso   1.00
C1235  C     0.18307   0.68675   0.78580   0.00000  Uiso   1.00
C1236  C     0.16729   0.70937   0.74923   0.00000  Uiso   1.00
C1237  C     0.14740   0.68919   0.71503   0.00000  Uiso   1.00
C1238  C     0.14556   0.97961   0.71609   0.00000  Uiso   1.00
C1239  C     0.16448   0.95707   0.75066   0.00000  Uiso   1.00
C1240  C     0.29965   0.86352   0.77437   0.00000  Uiso   1.00
C1241  C     0.01516   0.86417   0.77526   0.00000  Uiso   1.00
C1242  C     0.14901   0.82220   0.98965   0.00000  Uiso   1.00
C1243  C     0.03246   0.80232   0.72662   0.00000  Uiso   1.00
C1244  C     0.31652   0.80258   0.72610   0.00000  Uiso   1.00
C1245  C     0.16721   0.75408   0.74960   0.00000  Uiso   1.00
C1246  C     0.19254   0.83667   0.65061   0.00000  Uiso   1.00
C1247  C     0.25458   0.87344   0.51451   0.00000  Uiso   1.00
C1248  C     0.20692   0.84316   0.59460   0.00000  Uiso   1.00
C1249  C     0.08624   0.79876   0.93178   0.00000  Uiso   1.00
C1250  C     0.07102   0.79788   0.98527   0.00000  Uiso   1.00
C1251  C     0.09932   0.81231   0.51472   0.00000  Uiso   1.00
C1252  C     0.23773   0.76440   0.86707   0.00000  Uiso   1.00
C1253  C     0.16562   0.82161   0.93413   0.00000  Uiso   1.00
C1254  C     0.28733   0.74142   0.84852   0.00000  Uiso   1.00
C1255  C     0.28578   0.69960   0.82378   0.00000  Uiso   1.00
C1256  C     0.18311   0.83394   0.51608   0.00000  Uiso   1.00
C1257  C     0.22577   0.85417   0.98853   0.00000  Uiso   1.00
C1258  C     0.24200   0.85098   0.93533   0.00000  Uiso   1.00
C1259  C     0.21667   0.82741   0.91032   0.00000  Uiso   1.00
C1260  C     0.17905   0.82386   0.56745   0.00000  Uiso   1.00
C1261  C     0.24342   0.87076   0.56827   0.00000  Uiso   1.00
Cu1262 Cu    0.11978   0.83333   0.75000   0.00000  Uiso   1.00
Cu1263 Cu    0.21355   0.83334   0.75000   0.00000  Uiso   1.00
H1264  H     0.19365   0.70203   0.81550   0.00000  Uiso   1.00
H1265  H     0.03515   0.78673   0.50462   0.00000  Uiso   1.00
H1266  H     0.19625   0.95994   0.81367   0.00000  Uiso   1.00
H1267  H     0.24471   0.96319   0.64269   0.00000  Uiso   1.00
H1268  H     0.07117   0.93003   0.85321   0.00000  Uiso   1.00
H1269  H     0.03613   0.71782   0.94615   0.00000  Uiso   1.00
H1270  H     0.06101   0.75254   0.59781   0.00000  Uiso   1.00
H1271  H     0.21618   0.75869   0.84043   0.00000  Uiso   1.00
H1272  H     0.21777   0.75194   0.90591   0.00000  Uiso   1.00
H1273  H     0.31397   0.76066   0.82035   0.00000  Uiso   1.00
H1274  H     0.30049   0.73582   0.88239   0.00000  Uiso   1.00
H1275  H     0.13361   0.70662   0.68755   0.00000  Uiso   1.00
H1276  H     0.25784   0.68007   0.84993   0.00000  Uiso   1.00
H1277  H     0.32179   0.68327   0.81641   0.00000  Uiso   1.00
H1278  H     0.27839   0.70410   0.78605   0.00000  Uiso   1.00
H1279  H     0.13089   0.96397   0.68907   0.00000  Uiso   1.00
H1280  H     0.27349   0.88746   0.79310   0.00000  Uiso   1.00
H1281  H     0.05683   0.77703   0.70866   0.00000  Uiso   1.00
H1282  H     0.30443   0.77779   0.70685   0.00000  Uiso   1.00
H1283  H     0.27816   0.86081   0.91440   0.00000  Uiso   1.00
H1284  H     0.28507   0.89137   0.99270   0.00000  Uiso   1.00
H1285  H     0.15504   0.80021   0.58679   0.00000  Uiso   1.00
N1286  N     0.04931   0.83332   0.74999   0.00000  Uiso   1.00
N1287  N     0.28402   0.83335   0.75000   0.00000  Uiso   1.00
O1288  O     0.12708   0.89345   0.75001   0.00000  Uiso   1.00
O1289  O     0.31058   0.92861   0.56064   0.00000  Uiso   1.00
O1290  O     0.22732   0.94230   0.62899   0.00000  Uiso   1.00
O1291  O     0.04679   0.94145   0.76632   0.00000  Uiso   1.00
O1292  O     0.31308   0.92670   0.84232   0.00000  Uiso   1.00
O1293  O     0.06446   0.90187   0.84345   0.00000  Uiso   1.00
O1294  O     0.01713   0.80620   0.88458   0.00000  Uiso   1.00
O1295  O     0.07910   0.75074   0.85395   0.00000  Uiso   1.00
O1296  O     0.01361   0.74070   0.94223   0.00000  Uiso   1.00
O1297  O     0.08286   0.85523   0.60441   0.00000  Uiso   1.00
O1298  O     0.01338   0.82333   0.58789   0.00000  Uiso   1.00
O1299  O     0.20627   0.89346   0.75001   0.00000  Uiso   1.00
O1300  O     0.07559   0.77468   0.61282   0.00000  Uiso   1.00
O1301  O     0.24537   0.80748   0.86618   0.00000  Uiso   1.00
O1302  O     0.10775   0.83332   0.82549   0.00000  Uiso   1.00
O1303  O     0.18694   0.83333   0.82549   0.00000  Uiso   1.00
O1304  O     0.12706   0.77321   0.75000   0.00000  Uiso   1.00
O1305  O     0.20625   0.77322   0.74999   0.00000  Uiso   1.00
O1306  O     0.14640   0.83334   0.67451   0.00000  Uiso   1.00
O1307  O     0.22559   0.83335   0.67451   0.00000  Uiso   1.00
O1308  O     0.29099   0.88698   0.63949   0.00000  Uiso   1.00
S1309  S     0.27044   0.90692   0.59974   0.00000  Uiso   1.00
S1310  S     0.02685   0.90932   0.80695   0.00000  Uiso   1.00
S1311  S     0.04890   0.77413   0.90068   0.00000  Uiso   1.00
S1312  S     0.06696   0.81813   0.58135   0.00000  Uiso   1.00
C1313  C     0.49936   0.91251   0.74986   0.00000  Uiso   1.00
C1314  C     0.46447   0.81588   0.90539   0.00000  Uiso   1.00
C1315  C     0.51632   0.97727   0.78572   0.00000  Uiso   1.00
C1316  C     0.47518   0.82780   0.84943   0.00000  Uiso   1.00
C1317  C     0.51641   0.68675   0.78580   0.00000  Uiso   1.00
C1318  C     0.50062   0.70937   0.74923   0.00000  Uiso   1.00
C1319  C     0.48073   0.68919   0.71503   0.00000  Uiso   1.00
C1320  C     0.47890   0.97961   0.71609   0.00000  Uiso   1.00
C1321  C     0.49782   0.95707   0.75066   0.00000  Uiso   1.00
C1322  C     0.63298   0.86352   0.77437   0.00000  Uiso   1.00
C1323  C     0.34849   0.86417   0.77526   0.00000  Uiso   1.00
C1324  C     0.48234   0.82220   0.98965   0.00000  Uiso   1.00
C1325  C     0.36579   0.80232   0.72662   0.00000  Uiso   1.00
C1326  C     0.64985   0.80258   0.72610   0.00000  Uiso   1.00
C1327  C     0.50055   0.75408   0.74960   0.00000  Uiso   1.00
C1328  C     0.52587   0.83667   0.65061   0.00000  Uiso   1.00
C1329  C     0.58791   0.87344   0.51451   0.00000  Uiso   1.00
C1330  C     0.54025   0.84316   0.59460   0.00000  Uiso   1.00
C1331  C     0.41957   0.79876   0.93178   0.00000  Uiso   1.00
C1332  C     0.40436   0.79788   0.98527   0.00000  Uiso   1.00
C1333  C     0.43266   0.81231   0.51472   0.00000  Uiso   1.00
C1334  C     0.57106   0.76440   0.86707   0.00000  Uiso   1.00
C1335  C     0.49895   0.82161   0.93413   0.00000  Uiso   1.00
C1336  C     0.62066   0.74142   0.84852   0.00000  Uiso   1.00
C1337  C     0.61911   0.69960   0.82378   0.00000  Uiso   1.00
C1338  C     0.51644   0.83394   0.51608   0.00000  Uiso   1.00
C1339  C     0.55910   0.85417   0.98853   0.00000  Uiso   1.00
C1340  C     0.57534   0.85098   0.93533   0.00000  Uiso   1.00
C1341  C     0.55000   0.82741   0.91032   0.00000  Uiso   1.00
C1342  C     0.51238   0.82386   0.56745   0.00000  Uiso   1.00
C1343  C     0.57675   0.87076   0.56827   0.00000  Uiso   1.00
Cu1344 Cu    0.45311   0.83333   0.75000   0.00000  Uiso   1.00
Cu1345 Cu    0.54689   0.83334   0.75000   0.00000  Uiso   1.00
H1346  H     0.52698   0.70203   0.81550   0.00000  Uiso   1.00
H1347  H     0.36849   0.78673   0.50462   0.00000  Uiso   1.00
H1348  H     0.52958   0.95994   0.81367   0.00000  Uiso   1.00
H1349  H     0.57805   0.96319   0.64269   0.00000  Uiso   1.00
H1350  H     0.40450   0.93003   0.85321   0.00000  Uiso   1.00
H1351  H     0.36946   0.71782   0.94615   0.00000  Uiso   1.00
H1352  H     0.39434   0.75254   0.59781   0.00000  Uiso   1.00
H1353  H     0.54951   0.75869   0.84043   0.00000  Uiso   1.00
H1354  H     0.55110   0.75194   0.90591   0.00000  Uiso   1.00
H1355  H     0.64730   0.76066   0.82035   0.00000  Uiso   1.00
H1356  H     0.63382   0.73582   0.88239   0.00000  Uiso   1.00
H1357  H     0.46694   0.70662   0.68755   0.00000  Uiso   1.00
H1358  H     0.59118   0.68007   0.84993   0.00000  Uiso   1.00
H1359  H     0.65513   0.68327   0.81641   0.00000  Uiso   1.00
H1360  H     0.61172   0.70410   0.78605   0.00000  Uiso   1.00
H1361  H     0.46422   0.96397   0.68907   0.00000  Uiso   1.00
H1362  H     0.60682   0.88746   0.79310   0.00000  Uiso   1.00
H1363  H     0.39017   0.77703   0.70866   0.00000  Uiso   1.00
H1364  H     0.63776   0.77779   0.70685   0.00000  Uiso   1.00
H1365  H     0.61149   0.86081   0.91440   0.00000  Uiso   1.00
H1366  H     0.61840   0.89137   0.99270   0.00000  Uiso   1.00
H1367  H     0.48837   0.80021   0.58679   0.00000  Uiso   1.00
N1368  N     0.38265   0.83332   0.74999   0.00000  Uiso   1.00
N1369  N     0.61735   0.83335   0.75000   0.00000  Uiso   1.00
O1370  O     0.46042   0.89345   0.75001   0.00000  Uiso   1.00
O1371  O     0.64391   0.92861   0.56064   0.00000  Uiso   1.00
O1372  O     0.56066   0.94230   0.62899   0.00000  Uiso   1.00
O1373  O     0.38012   0.94145   0.76632   0.00000  Uiso   1.00
O1374  O     0.64641   0.92670   0.84232   0.00000  Uiso   1.00
O1375  O     0.39779   0.90187   0.84345   0.00000  Uiso   1.00
O1376  O     0.35047   0.80620   0.88458   0.00000  Uiso   1.00
O1377  O     0.41243   0.75074   0.85395   0.00000  Uiso   1.00
O1378  O     0.34695   0.74070   0.94223   0.00000  Uiso   1.00
O1379  O     0.41619   0.85523   0.60441   0.00000  Uiso   1.00
O1380  O     0.34672   0.82333   0.58789   0.00000  Uiso   1.00
O1381  O     0.53961   0.89346   0.75001   0.00000  Uiso   1.00
O1382  O     0.40893   0.77468   0.61282   0.00000  Uiso   1.00
O1383  O     0.57870   0.80748   0.86618   0.00000  Uiso   1.00
O1384  O     0.44108   0.83332   0.82549   0.00000  Uiso   1.00
O1385  O     0.52027   0.83333   0.82549   0.00000  Uiso   1.00
O1386  O     0.46039   0.77321   0.75000   0.00000  Uiso   1.00
O1387  O     0.53958   0.77322   0.74999   0.00000  Uiso   1.00
O1388  O     0.47973   0.83334   0.67451   0.00000  Uiso   1.00
O1389  O     0.55892   0.83335   0.67451   0.00000  Uiso   1.00
O1390  O     0.62433   0.88698   0.63949   0.00000  Uiso   1.00
S1391  S     0.60377   0.90692   0.59974   0.00000  Uiso   1.00
S1392  S     0.36018   0.90932   0.80695   0.00000  Uiso   1.00
S1393  S     0.38223   0.77413   0.90068   0.00000  Uiso   1.00
S1394  S     0.40029   0.81813   0.58135   0.00000  Uiso   1.00
C1395  C     0.83269   0.91251   0.74986   0.00000  Uiso   1.00
C1396  C     0.79780   0.81588   0.90539   0.00000  Uiso   1.00
C1397  C     0.84965   0.97727   0.78572   0.00000  Uiso   1.00
C1398  C     0.80851   0.82780   0.84943   0.00000  Uiso   1.00
C1399  C     0.84974   0.68675   0.78580   0.00000  Uiso   1.00
C1400  C     0.83395   0.70937   0.74923   0.00000  Uiso   1.00
C1401  C     0.81407   0.68919   0.71503   0.00000  Uiso   1.00
C1402  C     0.81223   0.97961   0.71609   0.00000  Uiso   1.00
C1403  C     0.83115   0.95707   0.75066   0.00000  Uiso   1.00
C1404  C     0.96632   0.86352   0.77437   0.00000  Uiso   1.00
C1405  C     0.68183   0.86417   0.77526   0.00000  Uiso   1.00
C1406  C     0.81567   0.82220   0.98965   0.00000  Uiso   1.00
C1407  C     0.69912   0.80232   0.72662   0.00000  Uiso   1.00
C1408  C     0.98319   0.80258   0.72610   0.00000  Uiso   1.00
C1409  C     0.83388   0.75408   0.74960   0.00000  Uiso   1.00
C1410  C     0.85920   0.83667   0.65061   0.00000  Uiso   1.00
C1411  C     0.92125   0.87344   0.51451   0.00000  Uiso   1.00
C1412  C     0.87359   0.84316   0.59460   0.00000  Uiso   1.00
C1413  C     0.75290   0.79876   0.93178   0.00000  Uiso   1.00
C1414  C     0.73769   0.79788   0.98527   0.00000  Uiso   1.00
C1415  C     0.76599   0.81231   0.51472   0.00000  Uiso   1.00
C1416  C     0.90439   0.76440   0.86707   0.00000  Uiso   1.00
C1417  C     0.83229   0.82161   0.93413   0.00000  Uiso   1.00
C1418  C     0.95399   0.74142   0.84852   0.00000  Uiso   1.00
C1419  C     0.95245   0.69960   0.82378   0.00000  Uiso   1.00
C1420  C     0.84978   0.83394   0.51608   0.00000  Uiso   1.00
C1421  C     0.89243   0.85417   0.98853   0.00000  Uiso   1.00
C1422  C     0.90867   0.85098   0.93533   0.00000  Uiso   1.00
C1423  C     0.88333   0.82741   0.91032   0.00000  Uiso   1.00
C1424  C     0.84571   0.82386   0.56745   0.00000  Uiso   1.00
C1425  C     0.91009   0.87076   0.56827   0.00000  Uiso   1.00
Cu1426 Cu    0.78645   0.83333   0.75000   0.00000  Uiso   1.00
Cu1427 Cu    0.88022   0.83334   0.75000   0.00000  Uiso   1.00
H1428  H     0.86032   0.70203   0.81550   0.00000  Uiso   1.00
H1429  H     0.70182   0.78673   0.50462   0.00000  Uiso   1.00
H1430  H     0.86292   0.95994   0.81367   0.00000  Uiso   1.00
H1431  H     0.91138   0.96319   0.64269   0.00000  Uiso   1.00
H1432  H     0.73783   0.93003   0.85321   0.00000  Uiso   1.00
H1433  H     0.70280   0.71782   0.94615   0.00000  Uiso   1.00
H1434  H     0.72767   0.75254   0.59781   0.00000  Uiso   1.00
H1435  H     0.88285   0.75869   0.84043   0.00000  Uiso   1.00
H1436  H     0.88444   0.75194   0.90591   0.00000  Uiso   1.00
H1437  H     0.98063   0.76066   0.82035   0.00000  Uiso   1.00
H1438  H     0.96716   0.73582   0.88239   0.00000  Uiso   1.00
H1439  H     0.80027   0.70662   0.68755   0.00000  Uiso   1.00
H1440  H     0.92451   0.68007   0.84993   0.00000  Uiso   1.00
H1441  H     0.98846   0.68327   0.81641   0.00000  Uiso   1.00
H1442  H     0.94505   0.70410   0.78605   0.00000  Uiso   1.00
H1443  H     0.79756   0.96397   0.68907   0.00000  Uiso   1.00
H1444  H     0.94016   0.88746   0.79310   0.00000  Uiso   1.00
H1445  H     0.72350   0.77703   0.70866   0.00000  Uiso   1.00
H1446  H     0.97109   0.77779   0.70685   0.00000  Uiso   1.00
H1447  H     0.94483   0.86081   0.91440   0.00000  Uiso   1.00
H1448  H     0.95174   0.89137   0.99270   0.00000  Uiso   1.00
H1449  H     0.82170   0.80021   0.58679   0.00000  Uiso   1.00
N1450  N     0.71598   0.83332   0.74999   0.00000  Uiso   1.00
N1451  N     0.95069   0.83335   0.75000   0.00000  Uiso   1.00
O1452  O     0.79375   0.89345   0.75001   0.00000  Uiso   1.00
O1453  O     0.97724   0.92861   0.56064   0.00000  Uiso   1.00
O1454  O     0.89399   0.94230   0.62899   0.00000  Uiso   1.00
O1455  O     0.71345   0.94145   0.76632   0.00000  Uiso   1.00
O1456  O     0.97975   0.92670   0.84232   0.00000  Uiso   1.00
O1457  O     0.73113   0.90187   0.84345   0.00000  Uiso   1.00
O1458  O     0.68380   0.80620   0.88458   0.00000  Uiso   1.00
O1459  O     0.74576   0.75074   0.85395   0.00000  Uiso   1.00
O1460  O     0.68028   0.74070   0.94223   0.00000  Uiso   1.00
O1461  O     0.74953   0.85523   0.60441   0.00000  Uiso   1.00
O1462  O     0.68005   0.82333   0.58789   0.00000  Uiso   1.00
O1463  O     0.87294   0.89346   0.75001   0.00000  Uiso   1.00
O1464  O     0.74226   0.77468   0.61282   0.00000  Uiso   1.00
O1465  O     0.91203   0.80748   0.86618   0.00000  Uiso   1.00
O1466  O     0.77441   0.83332   0.82549   0.00000  Uiso   1.00
O1467  O     0.85360   0.83333   0.82549   0.00000  Uiso   1.00
O1468  O     0.79373   0.77321   0.75000   0.00000  Uiso   1.00
O1469  O     0.87292   0.77322   0.74999   0.00000  Uiso   1.00
O1470  O     0.81306   0.83334   0.67451   0.00000  Uiso   1.00
O1471  O     0.89225   0.83335   0.67451   0.00000  Uiso   1.00
O1472  O     0.95766   0.88698   0.63949   0.00000  Uiso   1.00
S1473  S     0.93710   0.90692   0.59974   0.00000  Uiso   1.00
S1474  S     0.69351   0.90932   0.80695   0.00000  Uiso   1.00
S1475  S     0.71557   0.77413   0.90068   0.00000  Uiso   1.00
S1476  S     0.73363   0.81813   0.58135   0.00000  Uiso   1.00
loop_
_geom_bond_atom_site_label_1
_geom_bond_atom_site_label_2
_geom_bond_distance
_geom_bond_site_symmetry_2
_ccdc_geom_bond_type
C1     C9      1.438   .     S
C1     O69     1.293   .     A
C1     O58     1.296   .     A
C2     C4      1.502   .     S
C2     C19     1.407   .     A
C2     C23     1.447   .     A
C3     C9      1.395   .     A
C3     H36     1.084   .     S
C3     C251    1.383   .     S
C4     O73     1.285   .     A
C4     O72     1.331   .     A
C5     C6      1.394   .     A
C5     H34     1.071   .     S
C5     C495    1.383   1_545 S
C6     C15     1.444   .     S
C6     C7      1.401   .     A
C7     H45     1.084   .     S
C7     C500    1.388   1_545 S
C8     C9      1.399   .     A
C8     H49     1.084   .     S
C8     C253    1.388   .     S
C10    N57     1.344   .     A
C10    H50     1.080   .     S
C10    C93     1.413   .     S
C11    S80     1.791   .     S
C11    N56     1.407   .     A
C11    C174    1.413   1_455 S
C12    C23     1.437   .     A
C12    C759    1.435   .     S
C12    C764    1.436   .     S
C13    H51     1.079   .     S
C13    N56     1.366   .     A
C13    C178    1.421   1_455 S
C14    H52     1.081   .     S
C14    N57     1.369   .     A
C14    C95     1.421   .     S
C15    O75     1.303   .     A
C15    O74     1.288   .     A
C16    O77     1.299   .     A
C16    O76     1.301   .     A
C16    C18     1.464   .     S
C17    C31     1.397   .     A
C17    C765    1.400   1_554 S
C17    H792    1.084   1_554 S
C18    C30     1.401   .     A
C18    C31     1.419   .     A
C19    C20     1.384   .     A
C19    S81     1.762   .     S
C20    C759    1.390   .     S
C20    H773    1.082   .     S
C21    S82     1.778   .     S
C21    C758    1.390   1_554 S
C21    C750    1.435   1_554 S
C22    H41     1.101   .     S
C22    C24     1.533   .     S
C22    O71     1.415   .     S
C22    H42     1.117   .     S
C23    C29     1.437   .     A
C24    C25     1.523   .     S
C24    H44     1.101   .     S
C24    H43     1.110   .     S
C25    H47     1.111   .     S
C25    H48     1.110   .     S
C25    H46     1.111   .     S
C26    C30     1.396   .     A
C26    C750    1.436   1_554 S
C26    C765    1.412   1_554 S
C27    C28     1.381   .     A
C27    C755    1.400   .     S
C27    C764    1.412   .     S
C28    C29     1.382   .     A
C28    H53     1.084   .     S
C29    O71     1.387   .     S
C30    H55     1.071   .     S
C31    S79     1.781   .     S
Cu32   O58     1.960   .     S
Cu32   O72     1.969   .     S
Cu32   O74     1.945   .     S
Cu32   O76     1.959   .     S
Cu32   Cu33    2.697   .     S
Cu32   N56     2.027   .     S
Cu33   O75     1.960   .     S
Cu33   O69     1.945   .     S
Cu33   O73     1.959   .     S
Cu33   N57     2.027   .     S
Cu33   O77     1.969   .     S
H35    C758    1.082   1_554 S
H37    O60     0.991   .     S
H38    O63     0.991   .     S
H39    O66     0.991   .     S
H40    O70     0.990   .     S
H54    C755    1.084   .     S
O59    S79     1.504   .     D
O60    S79     1.678   .     S
O61    S80     1.502   .     D
O62    S162    1.504   .     S
O63    S80     1.676   .     S
O64    S81     1.501   .     D
O65    S81     1.502   .     D
O66    S81     1.683   .     S
O67    S82     1.503   .     D
O68    S82     1.502   .     D
O70    S82     1.681   .     S
O78    S79     1.501   .     D
S80    O226    1.504   1_455 S
C83    C91     1.438   .     S
C83    O151    1.293   .     A
C83    O140    1.296   .     A
C84    C86     1.502   .     S
C84    C101    1.407   .     A
C84    C105    1.447   .     A
C85    C91     1.395   .     A
C85    H118    1.084   .     S
C85    C333    1.383   .     S
C86    O155    1.285   .     A
C86    O154    1.331   .     A
C87    C88     1.394   .     A
C87    H116    1.071   .     S
C87    C577    1.383   1_545 S
C88    C97     1.444   .     S
C88    C89     1.401   .     A
C89    H127    1.084   .     S
C89    C582    1.388   1_545 S
C90    C91     1.399   .     A
C90    H131    1.084   .     S
C90    C335    1.388   .     S
C92    N139    1.344   .     A
C92    H132    1.080   .     S
C92    C175    1.413   .     S
C93    S162    1.791   .     S
C93    N138    1.407   .     A
C94    C105    1.437   .     A
C94    C841    1.435   .     S
C94    C846    1.436   .     S
C95    H133    1.079   .     S
C95    N138    1.366   .     A
C96    H134    1.081   .     S
C96    N139    1.369   .     A
C96    C177    1.421   .     S
C97    O157    1.303   .     A
C97    O156    1.288   .     A
C98    O159    1.299   .     A
C98    O158    1.301   .     A
C98    C100    1.464   .     S
C99    C113    1.397   .     A
C99    C847    1.400   1_554 S
C99    H874    1.084   1_554 S
C100   C112    1.401   .     A
C100   C113    1.419   .     A
C101   C102    1.384   .     A
C101   S163    1.762   .     S
C102   C841    1.390   .     S
C102   H855    1.082   .     S
C103   S164    1.778   .     S
C103   C840    1.390   1_554 S
C103   C832    1.435   1_554 S
C104   H123    1.101   .     S
C104   C106    1.533   .     S
C104   O153    1.415   .     S
C104   H124    1.117   .     S
C105   C111    1.437   .     A
C106   C107    1.523   .     S
C106   H126    1.101   .     S
C106   H125    1.110   .     S
C107   H129    1.111   .     S
C107   H130    1.110   .     S
C107   H128    1.111   .     S
C108   C112    1.396   .     A
C108   C832    1.436   1_554 S
C108   C847    1.412   1_554 S
C109   C110    1.381   .     A
C109   C837    1.400   .     S
C109   C846    1.412   .     S
C110   C111    1.382   .     A
C110   H135    1.084   .     S
C111   O153    1.387   .     S
C112   H137    1.071   .     S
C113   S161    1.781   .     S
Cu114  O140    1.960   .     S
Cu114  O154    1.969   .     S
Cu114  O156    1.945   .     S
Cu114  O158    1.959   .     S
Cu114  Cu115   2.697   .     S
Cu114  N138    2.027   .     S
Cu115  O157    1.960   .     S
Cu115  O151    1.945   .     S
Cu115  O155    1.959   .     S
Cu115  N139    2.027   .     S
Cu115  O159    1.969   .     S
H117   C840    1.082   1_554 S
H119   O142    0.991   .     S
H120   O145    0.991   .     S
H121   O148    0.991   .     S
H122   O152    0.990   .     S
H136   C837    1.084   .     S
O141   S161    1.504   .     D
O142   S161    1.678   .     S
O143   S162    1.502   .     D
O144   S244    1.504   .     S
O145   S162    1.676   .     S
O146   S163    1.501   .     D
O147   S163    1.502   .     D
O148   S163    1.683   .     S
O149   S164    1.503   .     D
O150   S164    1.502   .     D
O152   S164    1.681   .     S
O160   S161    1.501   .     D
C165   C173    1.438   .     S
C165   O233    1.293   .     A
C165   O222    1.296   .     A
C166   C168    1.502   .     S
C166   C183    1.407   .     A
C166   C187    1.447   .     A
C167   C173    1.395   .     A
C167   H200    1.084   .     S
C167   C415    1.383   .     S
C168   O237    1.285   .     A
C168   O236    1.331   .     A
C169   C170    1.394   .     A
C169   H198    1.071   .     S
C169   C659    1.383   1_545 S
C170   C179    1.444   .     S
C170   C171    1.401   .     A
C171   H209    1.084   .     S
C171   C664    1.388   1_545 S
C172   C173    1.399   .     A
C172   H213    1.084   .     S
C172   C417    1.388   .     S
C174   N221    1.344   .     A
C174   H214    1.080   .     S
C174   C11     1.413   1_655 S
C175   S244    1.791   .     S
C175   N220    1.407   .     A
C176   C187    1.437   .     A
C176   C923    1.435   .     S
C176   C928    1.436   .     S
C177   H215    1.079   .     S
C177   N220    1.366   .     A
C178   H216    1.081   .     S
C178   N221    1.369   .     A
C178   C13     1.421   1_655 S
C179   O239    1.303   .     A
C179   O238    1.288   .     A
C180   O241    1.299   .     A
C180   O240    1.301   .     A
C180   C182    1.464   .     S
C181   C195    1.397   .     A
C181   C929    1.400   1_554 S
C181   H956    1.084   1_554 S
C182   C194    1.401   .     A
C182   C195    1.419   .     A
C183   C184    1.384   .     A
C183   S245    1.762   .     S
C184   C923    1.390   .     S
C184   H937    1.082   .     S
C185   S246    1.778   .     S
C185   C922    1.390   1_554 S
C185   C914    1.435   1_554 S
C186   H205    1.101   .     S
C186   C188    1.533   .     S
C186   O235    1.415   .     S
C186   H206    1.117   .     S
C187   C193    1.437   .     A
C188   C189    1.523   .     S
C188   H208    1.101   .     S
C188   H207    1.110   .     S
C189   H211    1.111   .     S
C189   H212    1.110   .     S
C189   H210    1.111   .     S
C190   C194    1.396   .     A
C190   C914    1.436   1_554 S
C190   C929    1.412   1_554 S
C191   C192    1.381   .     A
C191   C919    1.400   .     S
C191   C928    1.412   .     S
C192   C193    1.382   .     A
C192   H217    1.084   .     S
C193   O235    1.387   .     S
C194   H219    1.071   .     S
C195   S243    1.781   .     S
Cu196  O222    1.960   .     S
Cu196  O236    1.969   .     S
Cu196  O238    1.945   .     S
Cu196  O240    1.959   .     S
Cu196  Cu197   2.697   .     S
Cu196  N220    2.027   .     S
Cu197  O239    1.960   .     S
Cu197  O233    1.945   .     S
Cu197  O237    1.959   .     S
Cu197  N221    2.027   .     S
Cu197  O241    1.969   .     S
H199   C922    1.082   1_554 S
H201   O224    0.991   .     S
H202   O227    0.991   .     S
H203   O230    0.991   .     S
H204   O234    0.990   .     S
H218   C919    1.084   .     S
O223   S243    1.504   .     D
O224   S243    1.678   .     S
O225   S244    1.502   .     D
O226   S80     1.504   1_655 S
O227   S244    1.676   .     S
O228   S245    1.501   .     D
O229   S245    1.502   .     D
O230   S245    1.683   .     S
O231   S246    1.503   .     D
O232   S246    1.502   .     D
O234   S246    1.681   .     S
O242   S243    1.501   .     D
C247   C255    1.438   .     S
C247   O315    1.293   .     A
C247   O304    1.296   .     A
C248   C250    1.502   .     S
C248   C265    1.407   .     A
C248   C269    1.447   .     A
C249   C255    1.395   .     A
C249   H282    1.084   .     S
C249   C497    1.383   .     S
C250   O319    1.285   .     A
C250   O318    1.331   .     A
C251   C252    1.394   .     A
C251   H280    1.071   .     S
C252   C261    1.444   .     S
C252   C253    1.401   .     A
C253   H291    1.084   .     S
C254   C255    1.399   .     A
C254   H295    1.084   .     S
C254   C499    1.388   .     S
C256   N303    1.344   .     A
C256   H296    1.080   .     S
C256   C339    1.413   .     S
C257   S326    1.791   .     S
C257   N302    1.407   .     A
C257   C420    1.413   1_455 S
C258   C269    1.437   .     A
C258   C1005   1.435   .     S
C258   C1010   1.436   .     S
C259   H297    1.079   .     S
C259   N302    1.366   .     A
C259   C424    1.421   1_455 S
C260   H298    1.081   .     S
C260   N303    1.369   .     A
C260   C341    1.421   .     S
C261   O321    1.303   .     A
C261   O320    1.288   .     A
C262   O323    1.299   .     A
C262   O322    1.301   .     A
C262   C264    1.464   .     S
C263   C277    1.397   .     A
C263   C1011   1.400   1_554 S
C263   H1038   1.084   1_554 S
C264   C276    1.401   .     A
C264   C277    1.419   .     A
C265   C266    1.384   .     A
C265   S327    1.762   .     S
C266   C1005   1.390   .     S
C266   H1019   1.082   .     S
C267   S328    1.778   .     S
C267   C1004   1.390   1_554 S
C267   C996    1.435   1_554 S
C268   H287    1.101   .     S
C268   C270    1.533   .     S
C268   O317    1.415   .     S
C268   H288    1.117   .     S
C269   C275    1.437   .     A
C270   C271    1.523   .     S
C270   H290    1.101   .     S
C270   H289    1.110   .     S
C271   H293    1.111   .     S
C271   H294    1.110   .     S
C271   H292    1.111   .     S
C272   C276    1.396   .     A
C272   C996    1.436   1_554 S
C272   C1011   1.412   1_554 S
C273   C274    1.381   .     A
C273   C1001   1.400   .     S
C273   C1010   1.412   .     S
C274   C275    1.382   .     A
C274   H299    1.084   .     S
C275   O317    1.387   .     S
C276   H301    1.071   .     S
C277   S325    1.781   .     S
Cu278  O304    1.960   .     S
Cu278  O318    1.969   .     S
Cu278  O320    1.945   .     S
Cu278  O322    1.959   .     S
Cu278  Cu279   2.697   .     S
Cu278  N302    2.027   .     S
Cu279  O321    1.960   .     S
Cu279  O315    1.945   .     S
Cu279  O319    1.959   .     S
Cu279  N303    2.027   .     S
Cu279  O323    1.969   .     S
H281   C1004   1.082   1_554 S
H283   O306    0.991   .     S
H284   O309    0.991   .     S
H285   O312    0.991   .     S
H286   O316    0.990   .     S
H300   C1001   1.084   .     S
O305   S325    1.504   .     D
O306   S325    1.678   .     S
O307   S326    1.502   .     D
O308   S408    1.504   .     S
O309   S326    1.676   .     S
O310   S327    1.501   .     D
O311   S327    1.502   .     D
O312   S327    1.683   .     S
O313   S328    1.503   .     D
O314   S328    1.502   .     D
O316   S328    1.681   .     S
O324   S325    1.501   .     D
S326   O472    1.504   1_455 S
C329   C337    1.438   .     S
C329   O397    1.293   .     A
C329   O386    1.296   .     A
C330   C332    1.502   .     S
C330   C347    1.407   .     A
C330   C351    1.447   .     A
C331   C337    1.395   .     A
C331   H364    1.084   .     S
C331   C579    1.383   .     S
C332   O401    1.285   .     A
C332   O400    1.331   .     A
C333   C334    1.394   .     A
C333   H362    1.071   .     S
C334   C343    1.444   .     S
C334   C335    1.401   .     A
C335   H373    1.084   .     S
C336   C337    1.399   .     A
C336   H377    1.084   .     S
C336   C581    1.388   .     S
C338   N385    1.344   .     A
C338   H378    1.080   .     S
C338   C421    1.413   .     S
C339   S408    1.791   .     S
C339   N384    1.407   .     A
C340   C351    1.437   .     A
C340   C1087   1.435   .     S
C340   C1092   1.436   .     S
C341   H379    1.079   .     S
C341   N384    1.366   .     A
C342   H380    1.081   .     S
C342   N385    1.369   .     A
C342   C423    1.421   .     S
C343   O403    1.303   .     A
C343   O402    1.288   .     A
C344   O405    1.299   .     A
C344   O404    1.301   .     A
C344   C346    1.464   .     S
C345   C359    1.397   .     A
C345   C1093   1.400   1_554 S
C345   H1120   1.084   1_554 S
C346   C358    1.401   .     A
C346   C359    1.419   .     A
C347   C348    1.384   .     A
C347   S409    1.762   .     S
C348   C1087   1.390   .     S
C348   H1101   1.082   .     S
C349   S410    1.778   .     S
C349   C1086   1.390   1_554 S
C349   C1078   1.435   1_554 S
C350   H369    1.101   .     S
C350   C352    1.533   .     S
C350   O399    1.415   .     S
C350   H370    1.117   .     S
C351   C357    1.437   .     A
C352   C353    1.523   .     S
C352   H372    1.101   .     S
C352   H371    1.110   .     S
C353   H375    1.111   .     S
C353   H376    1.110   .     S
C353   H374    1.111   .     S
C354   C358    1.396   .     A
C354   C1078   1.436   1_554 S
C354   C1093   1.412   1_554 S
C355   C356    1.381   .     A
C355   C1083   1.400   .     S
C355   C1092   1.412   .     S
C356   C357    1.382   .     A
C356   H381    1.084   .     S
C357   O399    1.387   .     S
C358   H383    1.071   .     S
C359   S407    1.781   .     S
Cu360  O386    1.960   .     S
Cu360  O400    1.969   .     S
Cu360  O402    1.945   .     S
Cu360  O404    1.959   .     S
Cu360  Cu361   2.697   .     S
Cu360  N384    2.027   .     S
Cu361  O403    1.960   .     S
Cu361  O397    1.945   .     S
Cu361  O401    1.959   .     S
Cu361  N385    2.027   .     S
Cu361  O405    1.969   .     S
H363   C1086   1.082   1_554 S
H365   O388    0.991   .     S
H366   O391    0.991   .     S
H367   O394    0.991   .     S
H368   O398    0.990   .     S
H382   C1083   1.084   .     S
O387   S407    1.504   .     D
O388   S407    1.678   .     S
O389   S408    1.502   .     D
O390   S490    1.504   .     S
O391   S408    1.676   .     S
O392   S409    1.501   .     D
O393   S409    1.502   .     D
O394   S409    1.683   .     S
O395   S410    1.503   .     D
O396   S410    1.502   .     D
O398   S410    1.681   .     S
O406   S407    1.501   .     D
C411   C419    1.438   .     S
C411   O479    1.293   .     A
C411   O468    1.296   .     A
C412   C414    1.502   .     S
C412   C429    1.407   .     A
C412   C433    1.447   .     A
C413   C419    1.395   .     A
C413   H446    1.084   .     S
C413   C661    1.383   .     S
C414   O483    1.285   .     A
C414   O482    1.331   .     A
C415   C416    1.394   .     A
C415   H444    1.071   .     S
C416   C425    1.444   .     S
C416   C417    1.401   .     A
C417   H455    1.084   .     S
C418   C419    1.399   .     A
C418   H459    1.084   .     S
C418   C663    1.388   .     S
C420   N467    1.344   .     A
C420   H460    1.080   .     S
C420   C257    1.413   1_655 S
C421   S490    1.791   .     S
C421   N466    1.407   .     A
C422   C433    1.437   .     A
C422   C1169   1.435   .     S
C422   C1174   1.436   .     S
C423   H461    1.079   .     S
C423   N466    1.366   .     A
C424   H462    1.081   .     S
C424   N467    1.369   .     A
C424   C259    1.421   1_655 S
C425   O485    1.303   .     A
C425   O484    1.288   .     A
C426   O487    1.299   .     A
C426   O486    1.301   .     A
C426   C428    1.464   .     S
C427   C441    1.397   .     A
C427   C1175   1.400   1_554 S
C427   H1202   1.084   1_554 S
C428   C440    1.401   .     A
C428   C441    1.419   .     A
C429   C430    1.384   .     A
C429   S491    1.762   .     S
C430   C1169   1.390   .     S
C430   H1183   1.082   .     S
C431   S492    1.778   .     S
C431   C1168   1.390   1_554 S
C431   C1160   1.435   1_554 S
C432   H451    1.101   .     S
C432   C434    1.533   .     S
C432   O481    1.415   .     S
C432   H452    1.117   .     S
C433   C439    1.437   .     A
C434   C435    1.523   .     S
C434   H454    1.101   .     S
C434   H453    1.110   .     S
C435   H457    1.111   .     S
C435   H458    1.110   .     S
C435   H456    1.111   .     S
C436   C440    1.396   .     A
C436   C1160   1.436   1_554 S
C436   C1175   1.412   1_554 S
C437   C438    1.381   .     A
C437   C1165   1.400   .     S
C437   C1174   1.412   .     S
C438   C439    1.382   .     A
C438   H463    1.084   .     S
C439   O481    1.387   .     S
C440   H465    1.071   .     S
C441   S489    1.781   .     S
Cu442  O468    1.960   .     S
Cu442  O482    1.969   .     S
Cu442  O484    1.945   .     S
Cu442  O486    1.959   .     S
Cu442  Cu443   2.697   .     S
Cu442  N466    2.027   .     S
Cu443  O485    1.960   .     S
Cu443  O479    1.945   .     S
Cu443  O483    1.959   .     S
Cu443  N467    2.027   .     S
Cu443  O487    1.969   .     S
H445   C1168   1.082   1_554 S
H447   O470    0.991   .     S
H448   O473    0.991   .     S
H449   O476    0.991   .     S
H450   O480    0.990   .     S
H464   C1165   1.084   .     S
O469   S489    1.504   .     D
O470   S489    1.678   .     S
O471   S490    1.502   .     D
O472   S326    1.504   1_655 S
O473   S490    1.676   .     S
O474   S491    1.501   .     D
O475   S491    1.502   .     D
O476   S491    1.683   .     S
O477   S492    1.503   .     D
O478   S492    1.502   .     D
O480   S492    1.681   .     S
O488   S489    1.501   .     D
C493   C501    1.438   .     S
C493   O561    1.293   .     A
C493   O550    1.296   .     A
C494   C496    1.502   .     S
C494   C511    1.407   .     A
C494   C515    1.447   .     A
C495   C501    1.395   .     A
C495   H528    1.084   .     S
C495   C5      1.383   1_565 S
C496   O565    1.285   .     A
C496   O564    1.331   .     A
C497   C498    1.394   .     A
C497   H526    1.071   .     S
C498   C507    1.444   .     S
C498   C499    1.401   .     A
C499   H537    1.084   .     S
C500   C501    1.399   .     A
C500   H541    1.084   .     S
C500   C7      1.388   1_565 S
C502   N549    1.344   .     A
C502   H542    1.080   .     S
C502   C585    1.413   .     S
C503   S572    1.791   .     S
C503   N548    1.407   .     A
C503   C666    1.413   1_455 S
C504   C515    1.437   .     A
C504   C1251   1.435   .     S
C504   C1256   1.436   .     S
C505   H543    1.079   .     S
C505   N548    1.366   .     A
C505   C670    1.421   1_455 S
C506   H544    1.081   .     S
C506   N549    1.369   .     A
C506   C587    1.421   .     S
C507   O567    1.303   .     A
C507   O566    1.288   .     A
C508   O569    1.299   .     A
C508   O568    1.301   .     A
C508   C510    1.464   .     S
C509   C523    1.397   .     A
C509   C1257   1.400   1_554 S
C509   H1284   1.084   1_554 S
C510   C522    1.401   .     A
C510   C523    1.419   .     A
C511   C512    1.384   .     A
C511   S573    1.762   .     S
C512   C1251   1.390   .     S
C512   H1265   1.082   .     S
C513   S574    1.778   .     S
C513   C1250   1.390   1_554 S
C513   C1242   1.435   1_554 S
C514   H533    1.101   .     S
C514   C516    1.533   .     S
C514   O563    1.415   .     S
C514   H534    1.117   .     S
C515   C521    1.437   .     A
C516   C517    1.523   .     S
C516   H536    1.101   .     S
C516   H535    1.110   .     S
C517   H539    1.111   .     S
C517   H540    1.110   .     S
C517   H538    1.111   .     S
C518   C522    1.396   .     A
C518   C1242   1.436   1_554 S
C518   C1257   1.412   1_554 S
C519   C520    1.381   .     A
C519   C1247   1.400   .     S
C519   C1256   1.412   .     S
C520   C521    1.382   .     A
C520   H545    1.084   .     S
C521   O563    1.387   .     S
C522   H547    1.071   .     S
C523   S571    1.781   .     S
Cu524  O550    1.960   .     S
Cu524  O564    1.969   .     S
Cu524  O566    1.945   .     S
Cu524  O568    1.959   .     S
Cu524  Cu525   2.697   .     S
Cu524  N548    2.027   .     S
Cu525  O567    1.960   .     S
Cu525  O561    1.945   .     S
Cu525  O565    1.959   .     S
Cu525  N549    2.027   .     S
Cu525  O569    1.969   .     S
H527   C1250   1.082   1_554 S
H529   O552    0.991   .     S
H530   O555    0.991   .     S
H531   O558    0.991   .     S
H532   O562    0.990   .     S
H546   C1247   1.084   .     S
O551   S571    1.504   .     D
O552   S571    1.678   .     S
O553   S572    1.502   .     D
O554   S654    1.504   .     S
O555   S572    1.676   .     S
O556   S573    1.501   .     D
O557   S573    1.502   .     D
O558   S573    1.683   .     S
O559   S574    1.503   .     D
O560   S574    1.502   .     D
O562   S574    1.681   .     S
O570   S571    1.501   .     D
S572   O718    1.504   1_455 S
C575   C583    1.438   .     S
C575   O643    1.293   .     A
C575   O632    1.296   .     A
C576   C578    1.502   .     S
C576   C593    1.407   .     A
C576   C597    1.447   .     A
C577   C583    1.395   .     A
C577   H610    1.084   .     S
C577   C87     1.383   1_565 S
C578   O647    1.285   .     A
C578   O646    1.331   .     A
C579   C580    1.394   .     A
C579   H608    1.071   .     S
C580   C589    1.444   .     S
C580   C581    1.401   .     A
C581   H619    1.084   .     S
C582   C583    1.399   .     A
C582   H623    1.084   .     S
C582   C89     1.388   1_565 S
C584   N631    1.344   .     A
C584   H624    1.080   .     S
C584   C667    1.413   .     S
C585   S654    1.791   .     S
C585   N630    1.407   .     A
C586   C597    1.437   .     A
C586   C1333   1.435   .     S
C586   C1338   1.436   .     S
C587   H625    1.079   .     S
C587   N630    1.366   .     A
C588   H626    1.081   .     S
C588   N631    1.369   .     A
C588   C669    1.421   .     S
C589   O649    1.303   .     A
C589   O648    1.288   .     A
C590   O651    1.299   .     A
C590   O650    1.301   .     A
C590   C592    1.464   .     S
C591   C605    1.397   .     A
C591   C1339   1.400   1_554 S
C591   H1366   1.084   1_554 S
C592   C604    1.401   .     A
C592   C605    1.419   .     A
C593   C594    1.384   .     A
C593   S655    1.762   .     S
C594   C1333   1.390   .     S
C594   H1347   1.082   .     S
C595   S656    1.778   .     S
C595   C1332   1.390   1_554 S
C595   C1324   1.435   1_554 S
C596   H615    1.101   .     S
C596   C598    1.533   .     S
C596   O645    1.415   .     S
C596   H616    1.117   .     S
C597   C603    1.437   .     A
C598   C599    1.523   .     S
C598   H618    1.101   .     S
C598   H617    1.110   .     S
C599   H621    1.111   .     S
C599   H622    1.110   .     S
C599   H620    1.111   .     S
C600   C604    1.396   .     A
C600   C1324   1.436   1_554 S
C600   C1339   1.412   1_554 S
C601   C602    1.381   .     A
C601   C1329   1.400   .     S
C601   C1338   1.412   .     S
C602   C603    1.382   .     A
C602   H627    1.084   .     S
C603   O645    1.387   .     S
C604   H629    1.071   .     S
C605   S653    1.781   .     S
Cu606  O632    1.960   .     S
Cu606  O646    1.969   .     S
Cu606  O648    1.945   .     S
Cu606  O650    1.959   .     S
Cu606  Cu607   2.697   .     S
Cu606  N630    2.027   .     S
Cu607  O649    1.960   .     S
Cu607  O643    1.945   .     S
Cu607  O647    1.959   .     S
Cu607  N631    2.027   .     S
Cu607  O651    1.969   .     S
H609   C1332   1.082   1_554 S
H611   O634    0.991   .     S
H612   O637    0.991   .     S
H613   O640    0.991   .     S
H614   O644    0.990   .     S
H628   C1329   1.084   .     S
O633   S653    1.504   .     D
O634   S653    1.678   .     S
O635   S654    1.502   .     D
O636   S736    1.504   .     S
O637   S654    1.676   .     S
O638   S655    1.501   .     D
O639   S655    1.502   .     D
O640   S655    1.683   .     S
O641   S656    1.503   .     D
O642   S656    1.502   .     D
O644   S656    1.681   .     S
O652   S653    1.501   .     D
C657   C665    1.438   .     S
C657   O725    1.293   .     A
C657   O714    1.296   .     A
C658   C660    1.502   .     S
C658   C675    1.407   .     A
C658   C679    1.447   .     A
C659   C665    1.395   .     A
C659   H692    1.084   .     S
C659   C169    1.383   1_565 S
C660   O729    1.285   .     A
C660   O728    1.331   .     A
C661   C662    1.394   .     A
C661   H690    1.071   .     S
C662   C671    1.444   .     S
C662   C663    1.401   .     A
C663   H701    1.084   .     S
C664   C665    1.399   .     A
C664   H705    1.084   .     S
C664   C171    1.388   1_565 S
C666   N713    1.344   .     A
C666   H706    1.080   .     S
C666   C503    1.413   1_655 S
C667   S736    1.791   .     S
C667   N712    1.407   .     A
C668   C679    1.437   .     A
C668   C1415   1.435   .     S
C668   C1420   1.436   .     S
C669   H707    1.079   .     S
C669   N712    1.366   .     A
C670   H708    1.081   .     S
C670   N713    1.369   .     A
C670   C505    1.421   1_655 S
C671   O731    1.303   .     A
C671   O730    1.288   .     A
C672   O733    1.299   .     A
C672   O732    1.301   .     A
C672   C674    1.464   .     S
C673   C687    1.397   .     A
C673   C1421   1.400   1_554 S
C673   H1448   1.084   1_554 S
C674   C686    1.401   .     A
C674   C687    1.419   .     A
C675   C676    1.384   .     A
C675   S737    1.762   .     S
C676   C1415   1.390   .     S
C676   H1429   1.082   .     S
C677   S738    1.778   .     S
C677   C1414   1.390   1_554 S
C677   C1406   1.435   1_554 S
C678   H697    1.101   .     S
C678   C680    1.533   .     S
C678   O727    1.415   .     S
C678   H698    1.117   .     S
C679   C685    1.437   .     A
C680   C681    1.523   .     S
C680   H700    1.101   .     S
C680   H699    1.110   .     S
C681   H703    1.111   .     S
C681   H704    1.110   .     S
C681   H702    1.111   .     S
C682   C686    1.396   .     A
C682   C1406   1.436   1_554 S
C682   C1421   1.412   1_554 S
C683   C684    1.381   .     A
C683   C1411   1.400   .     S
C683   C1420   1.412   .     S
C684   C685    1.382   .     A
C684   H709    1.084   .     S
C685   O727    1.387   .     S
C686   H711    1.071   .     S
C687   S735    1.781   .     S
Cu688  O714    1.960   .     S
Cu688  O728    1.969   .     S
Cu688  O730    1.945   .     S
Cu688  O732    1.959   .     S
Cu688  Cu689   2.697   .     S
Cu688  N712    2.027   .     S
Cu689  O731    1.960   .     S
Cu689  O725    1.945   .     S
Cu689  O729    1.959   .     S
Cu689  N713    2.027   .     S
Cu689  O733    1.969   .     S
H691   C1414   1.082   1_554 S
H693   O716    0.991   .     S
H694   O719    0.991   .     S
H695   O722    0.991   .     S
H696   O726    0.990   .     S
H710   C1411   1.084   .     S
O715   S735    1.504   .     D
O716   S735    1.678   .     S
O717   S736    1.502   .     D
O718   S572    1.504   1_655 S
O719   S736    1.676   .     S
O720   S737    1.501   .     D
O721   S737    1.502   .     D
O722   S737    1.683   .     S
O723   S738    1.503   .     D
O724   S738    1.502   .     D
O726   S738    1.681   .     S
O734   S735    1.501   .     D
C739   C747    1.438   .     S
C739   O807    1.293   .     A
C739   O796    1.296   .     A
C740   C742    1.502   .     S
C740   C757    1.407   .     A
C740   C761    1.447   .     A
C741   C747    1.395   .     A
C741   H774    1.084   .     S
C741   C989    1.383   .     S
C742   O811    1.285   .     A
C742   O810    1.331   .     A
C743   C744    1.394   .     A
C743   H772    1.071   .     S
C743   C1233   1.383   1_545 S
C744   C753    1.444   .     S
C744   C745    1.401   .     A
C745   H783    1.084   .     S
C745   C1238   1.388   1_545 S
C746   C747    1.399   .     A
C746   H787    1.084   .     S
C746   C991    1.388   .     S
C748   N795    1.344   .     A
C748   H788    1.080   .     S
C748   C831    1.413   .     S
C749   S818    1.791   .     S
C749   N794    1.407   .     A
C749   C912    1.413   1_455 S
C750   C761    1.437   .     A
C750   C21     1.435   1_556 S
C750   C26     1.436   1_556 S
C751   H789    1.079   .     S
C751   N794    1.366   .     A
C751   C916    1.421   1_455 S
C752   H790    1.081   .     S
C752   N795    1.369   .     A
C752   C833    1.421   .     S
C753   O813    1.303   .     A
C753   O812    1.288   .     A
C754   O815    1.299   .     A
C754   O814    1.301   .     A
C754   C756    1.464   .     S
C755   C769    1.397   .     A
C756   C768    1.401   .     A
C756   C769    1.419   .     A
C757   C758    1.384   .     A
C757   S819    1.762   .     S
C758   C21     1.390   1_556 S
C758   H35     1.082   1_556 S
C759   S820    1.778   .     S
C760   H779    1.101   .     S
C760   C762    1.533   .     S
C760   O809    1.415   .     S
C760   H780    1.117   .     S
C761   C767    1.437   .     A
C762   C763    1.523   .     S
C762   H782    1.101   .     S
C762   H781    1.110   .     S
C763   H785    1.111   .     S
C763   H786    1.110   .     S
C763   H784    1.111   .     S
C764   C768    1.396   .     A
C765   C766    1.381   .     A
C765   C17     1.400   1_556 S
C765   C26     1.412   1_556 S
C766   C767    1.382   .     A
C766   H791    1.084   .     S
C767   O809    1.387   .     S
C768   H793    1.071   .     S
C769   S817    1.781   .     S
Cu770  O796    1.960   .     S
Cu770  O810    1.969   .     S
Cu770  O812    1.945   .     S
Cu770  O814    1.959   .     S
Cu770  Cu771   2.697   .     S
Cu770  N794    2.027   .     S
Cu771  O813    1.960   .     S
Cu771  O807    1.945   .     S
Cu771  O811    1.959   .     S
Cu771  N795    2.027   .     S
Cu771  O815    1.969   .     S
H775   O798    0.991   .     S
H776   O801    0.991   .     S
H777   O804    0.991   .     S
H778   O808    0.990   .     S
H792   C17     1.084   1_556 S
O797   S817    1.504   .     D
O798   S817    1.678   .     S
O799   S818    1.502   .     D
O800   S900    1.504   .     S
O801   S818    1.676   .     S
O802   S819    1.501   .     D
O803   S819    1.502   .     D
O804   S819    1.683   .     S
O805   S820    1.503   .     D
O806   S820    1.502   .     D
O808   S820    1.681   .     S
O816   S817    1.501   .     D
S818   O964    1.504   1_455 S
C821   C829    1.438   .     S
C821   O889    1.293   .     A
C821   O878    1.296   .     A
C822   C824    1.502   .     S
C822   C839    1.407   .     A
C822   C843    1.447   .     A
C823   C829    1.395   .     A
C823   H856    1.084   .     S
C823   C1071   1.383   .     S
C824   O893    1.285   .     A
C824   O892    1.331   .     A
C825   C826    1.394   .     A
C825   H854    1.071   .     S
C825   C1315   1.383   1_545 S
C826   C835    1.444   .     S
C826   C827    1.401   .     A
C827   H865    1.084   .     S
C827   C1320   1.388   1_545 S
C828   C829    1.399   .     A
C828   H869    1.084   .     S
C828   C1073   1.388   .     S
C830   N877    1.344   .     A
C830   H870    1.080   .     S
C830   C913    1.413   .     S
C831   S900    1.791   .     S
C831   N876    1.407   .     A
C832   C843    1.437   .     A
C832   C103    1.435   1_556 S
C832   C108    1.436   1_556 S
C833   H871    1.079   .     S
C833   N876    1.366   .     A
C834   H872    1.081   .     S
C834   N877    1.369   .     A
C834   C915    1.421   .     S
C835   O895    1.303   .     A
C835   O894    1.288   .     A
C836   O897    1.299   .     A
C836   O896    1.301   .     A
C836   C838    1.464   .     S
C837   C851    1.397   .     A
C838   C850    1.401   .     A
C838   C851    1.419   .     A
C839   C840    1.384   .     A
C839   S901    1.762   .     S
C840   C103    1.390   1_556 S
C840   H117    1.082   1_556 S
C841   S902    1.778   .     S
C842   H861    1.101   .     S
C842   C844    1.533   .     S
C842   O891    1.415   .     S
C842   H862    1.117   .     S
C843   C849    1.437   .     A
C844   C845    1.523   .     S
C844   H864    1.101   .     S
C844   H863    1.110   .     S
C845   H867    1.111   .     S
C845   H868    1.110   .     S
C845   H866    1.111   .     S
C846   C850    1.396   .     A
C847   C848    1.381   .     A
C847   C99     1.400   1_556 S
C847   C108    1.412   1_556 S
C848   C849    1.382   .     A
C848   H873    1.084   .     S
C849   O891    1.387   .     S
C850   H875    1.071   .     S
C851   S899    1.781   .     S
Cu852  O878    1.960   .     S
Cu852  O892    1.969   .     S
Cu852  O894    1.945   .     S
Cu852  O896    1.959   .     S
Cu852  Cu853   2.697   .     S
Cu852  N876    2.027   .     S
Cu853  O895    1.960   .     S
Cu853  O889    1.945   .     S
Cu853  O893    1.959   .     S
Cu853  N877    2.027   .     S
Cu853  O897    1.969   .     S
H857   O880    0.991   .     S
H858   O883    0.991   .     S
H859   O886    0.991   .     S
H860   O890    0.990   .     S
H874   C99     1.084   1_556 S
O879   S899    1.504   .     D
O880   S899    1.678   .     S
O881   S900    1.502   .     D
O882   S982    1.504   .     S
O883   S900    1.676   .     S
O884   S901    1.501   .     D
O885   S901    1.502   .     D
O886   S901    1.683   .     S
O887   S902    1.503   .     D
O888   S902    1.502   .     D
O890   S902    1.681   .     S
O898   S899    1.501   .     D
C903   C911    1.438   .     S
C903   O971    1.293   .     A
C903   O960    1.296   .     A
C904   C906    1.502   .     S
C904   C921    1.407   .     A
C904   C925    1.447   .     A
C905   C911    1.395   .     A
C905   H938    1.084   .     S
C905   C1153   1.383   .     S
C906   O975    1.285   .     A
C906   O974    1.331   .     A
C907   C908    1.394   .     A
C907   H936    1.071   .     S
C907   C1397   1.383   1_545 S
C908   C917    1.444   .     S
C908   C909    1.401   .     A
C909   H947    1.084   .     S
C909   C1402   1.388   1_545 S
C910   C911    1.399   .     A
C910   H951    1.084   .     S
C910   C1155   1.388   .     S
C912   N959    1.344   .     A
C912   H952    1.080   .     S
C912   C749    1.413   1_655 S
C913   S982    1.791   .     S
C913   N958    1.407   .     A
C914   C925    1.437   .     A
C914   C185    1.435   1_556 S
C914   C190    1.436   1_556 S
C915   H953    1.079   .     S
C915   N958    1.366   .     A
C916   H954    1.081   .     S
C916   N959    1.369   .     A
C916   C751    1.421   1_655 S
C917   O977    1.303   .     A
C917   O976    1.288   .     A
C918   O979    1.299   .     A
C918   O978    1.301   .     A
C918   C920    1.464   .     S
C919   C933    1.397   .     A
C920   C932    1.401   .     A
C920   C933    1.419   .     A
C921   C922    1.384   .     A
C921   S983    1.762   .     S
C922   C185    1.390   1_556 S
C922   H199    1.082   1_556 S
C923   S984    1.778   .     S
C924   H943    1.101   .     S
C924   C926    1.533   .     S
C924   O973    1.415   .     S
C924   H944    1.117   .     S
C925   C931    1.437   .     A
C926   C927    1.523   .     S
C926   H946    1.101   .     S
C926   H945    1.110   .     S
C927   H949    1.111   .     S
C927   H950    1.110   .     S
C927   H948    1.111   .     S
C928   C932    1.396   .     A
C929   C930    1.381   .     A
C929   C181    1.400   1_556 S
C929   C190    1.412   1_556 S
C930   C931    1.382   .     A
C930   H955    1.084   .     S
C931   O973    1.387   .     S
C932   H957    1.071   .     S
C933   S981    1.781   .     S
Cu934  O960    1.960   .     S
Cu934  O974    1.969   .     S
Cu934  O976    1.945   .     S
Cu934  O978    1.959   .     S
Cu934  Cu935   2.697   .     S
Cu934  N958    2.027   .     S
Cu935  O977    1.960   .     S
Cu935  O971    1.945   .     S
Cu935  O975    1.959   .     S
Cu935  N959    2.027   .     S
Cu935  O979    1.969   .     S
H939   O962    0.991   .     S
H940   O965    0.991   .     S
H941   O968    0.991   .     S
H942   O972    0.990   .     S
H956   C181    1.084   1_556 S
O961   S981    1.504   .     D
O962   S981    1.678   .     S
O963   S982    1.502   .     D
O964   S818    1.504   1_655 S
O965   S982    1.676   .     S
O966   S983    1.501   .     D
O967   S983    1.502   .     D
O968   S983    1.683   .     S
O969   S984    1.503   .     D
O970   S984    1.502   .     D
O972   S984    1.681   .     S
O980   S981    1.501   .     D
C985   C993    1.438   .     S
C985   O1053   1.293   .     A
C985   O1042   1.296   .     A
C986   C988    1.502   .     S
C986   C1003   1.407   .     A
C986   C1007   1.447   .     A
C987   C993    1.395   .     A
C987   H1020   1.084   .     S
C987   C1235   1.383   .     S
C988   O1057   1.285   .     A
C988   O1056   1.331   .     A
C989   C990    1.394   .     A
C989   H1018   1.071   .     S
C990   C999    1.444   .     S
C990   C991    1.401   .     A
C991   H1029   1.084   .     S
C992   C993    1.399   .     A
C992   H1033   1.084   .     S
C992   C1237   1.388   .     S
C994   N1041   1.344   .     A
C994   H1034   1.080   .     S
C994   C1077   1.413   .     S
C995   S1064   1.791   .     S
C995   N1040   1.407   .     A
C995   C1158   1.413   1_455 S
C996   C1007   1.437   .     A
C996   C267    1.435   1_556 S
C996   C272    1.436   1_556 S
C997   H1035   1.079   .     S
C997   N1040   1.366   .     A
C997   C1162   1.421   1_455 S
C998   H1036   1.081   .     S
C998   N1041   1.369   .     A
C998   C1079   1.421   .     S
C999   O1059   1.303   .     A
C999   O1058   1.288   .     A
C1000  O1061   1.299   .     A
C1000  O1060   1.301   .     A
C1000  C1002   1.464   .     S
C1001  C1015   1.397   .     A
C1002  C1014   1.401   .     A
C1002  C1015   1.419   .     A
C1003  C1004   1.384   .     A
C1003  S1065   1.762   .     S
C1004  C267    1.390   1_556 S
C1004  H281    1.082   1_556 S
C1005  S1066   1.778   .     S
C1006  H1025   1.101   .     S
C1006  C1008   1.533   .     S
C1006  O1055   1.415   .     S
C1006  H1026   1.117   .     S
C1007  C1013   1.437   .     A
C1008  C1009   1.523   .     S
C1008  H1028   1.101   .     S
C1008  H1027   1.110   .     S
C1009  H1031   1.111   .     S
C1009  H1032   1.110   .     S
C1009  H1030   1.111   .     S
C1010  C1014   1.396   .     A
C1011  C1012   1.381   .     A
C1011  C263    1.400   1_556 S
C1011  C272    1.412   1_556 S
C1012  C1013   1.382   .     A
C1012  H1037   1.084   .     S
C1013  O1055   1.387   .     S
C1014  H1039   1.071   .     S
C1015  S1063   1.781   .     S
Cu1016 O1042   1.960   .     S
Cu1016 O1056   1.969   .     S
Cu1016 O1058   1.945   .     S
Cu1016 O1060   1.959   .     S
Cu1016 Cu1017  2.697   .     S
Cu1016 N1040   2.027   .     S
Cu1017 O1059   1.960   .     S
Cu1017 O1053   1.945   .     S
Cu1017 O1057   1.959   .     S
Cu1017 N1041   2.027   .     S
Cu1017 O1061   1.969   .     S
H1021  O1044   0.991   .     S
H1022  O1047   0.991   .     S
H1023  O1050   0.991   .     S
H1024  O1054   0.990   .     S
H1038  C263    1.084   1_556 S
O1043  S1063   1.504   .     D
O1044  S1063   1.678   .     S
O1045  S1064   1.502   .     D
O1046  S1146   1.504   .     S
O1047  S1064   1.676   .     S
O1048  S1065   1.501   .     D
O1049  S1065   1.502   .     D
O1050  S1065   1.683   .     S
O1051  S1066   1.503   .     D
O1052  S1066   1.502   .     D
O1054  S1066   1.681   .     S
O1062  S1063   1.501   .     D
S1064  O1210   1.504   1_455 S
C1067  C1075   1.438   .     S
C1067  O1135   1.293   .     A
C1067  O1124   1.296   .     A
C1068  C1070   1.502   .     S
C1068  C1085   1.407   .     A
C1068  C1089   1.447   .     A
C1069  C1075   1.395   .     A
C1069  H1102   1.084   .     S
C1069  C1317   1.383   .     S
C1070  O1139   1.285   .     A
C1070  O1138   1.331   .     A
C1071  C1072   1.394   .     A
C1071  H1100   1.071   .     S
C1072  C1081   1.444   .     S
C1072  C1073   1.401   .     A
C1073  H1111   1.084   .     S
C1074  C1075   1.399   .     A
C1074  H1115   1.084   .     S
C1074  C1319   1.388   .     S
C1076  N1123   1.344   .     A
C1076  H1116   1.080   .     S
C1076  C1159   1.413   .     S
C1077  S1146   1.791   .     S
C1077  N1122   1.407   .     A
C1078  C1089   1.437   .     A
C1078  C349    1.435   1_556 S
C1078  C354    1.436   1_556 S
C1079  H1117   1.079   .     S
C1079  N1122   1.366   .     A
C1080  H1118   1.081   .     S
C1080  N1123   1.369   .     A
C1080  C1161   1.421   .     S
C1081  O1141   1.303   .     A
C1081  O1140   1.288   .     A
C1082  O1143   1.299   .     A
C1082  O1142   1.301   .     A
C1082  C1084   1.464   .     S
C1083  C1097   1.397   .     A
C1084  C1096   1.401   .     A
C1084  C1097   1.419   .     A
C1085  C1086   1.384   .     A
C1085  S1147   1.762   .     S
C1086  C349    1.390   1_556 S
C1086  H363    1.082   1_556 S
C1087  S1148   1.778   .     S
C1088  H1107   1.101   .     S
C1088  C1090   1.533   .     S
C1088  O1137   1.415   .     S
C1088  H1108   1.117   .     S
C1089  C1095   1.437   .     A
C1090  C1091   1.523   .     S
C1090  H1110   1.101   .     S
C1090  H1109   1.110   .     S
C1091  H1113   1.111   .     S
C1091  H1114   1.110   .     S
C1091  H1112   1.111   .     S
C1092  C1096   1.396   .     A
C1093  C1094   1.381   .     A
C1093  C345    1.400   1_556 S
C1093  C354    1.412   1_556 S
C1094  C1095   1.382   .     A
C1094  H1119   1.084   .     S
C1095  O1137   1.387   .     S
C1096  H1121   1.071   .     S
C1097  S1145   1.781   .     S
Cu1098 O1124   1.960   .     S
Cu1098 O1138   1.969   .     S
Cu1098 O1140   1.945   .     S
Cu1098 O1142   1.959   .     S
Cu1098 Cu1099  2.697   .     S
Cu1098 N1122   2.027   .     S
Cu1099 O1141   1.960   .     S
Cu1099 O1135   1.945   .     S
Cu1099 O1139   1.959   .     S
Cu1099 N1123   2.027   .     S
Cu1099 O1143   1.969   .     S
H1103  O1126   0.991   .     S
H1104  O1129   0.991   .     S
H1105  O1132   0.991   .     S
H1106  O1136   0.990   .     S
H1120  C345    1.084   1_556 S
O1125  S1145   1.504   .     D
O1126  S1145   1.678   .     S
O1127  S1146   1.502   .     D
O1128  S1228   1.504   .     S
O1129  S1146   1.676   .     S
O1130  S1147   1.501   .     D
O1131  S1147   1.502   .     D
O1132  S1147   1.683   .     S
O1133  S1148   1.503   .     D
O1134  S1148   1.502   .     D
O1136  S1148   1.681   .     S
O1144  S1145   1.501   .     D
C1149  C1157   1.438   .     S
C1149  O1217   1.293   .     A
C1149  O1206   1.296   .     A
C1150  C1152   1.502   .     S
C1150  C1167   1.407   .     A
C1150  C1171   1.447   .     A
C1151  C1157   1.395   .     A
C1151  H1184   1.084   .     S
C1151  C1399   1.383   .     S
C1152  O1221   1.285   .     A
C1152  O1220   1.331   .     A
C1153  C1154   1.394   .     A
C1153  H1182   1.071   .     S
C1154  C1163   1.444   .     S
C1154  C1155   1.401   .     A
C1155  H1193   1.084   .     S
C1156  C1157   1.399   .     A
C1156  H1197   1.084   .     S
C1156  C1401   1.388   .     S
C1158  N1205   1.344   .     A
C1158  H1198   1.080   .     S
C1158  C995    1.413   1_655 S
C1159  S1228   1.791   .     S
C1159  N1204   1.407   .     A
C1160  C1171   1.437   .     A
C1160  C431    1.435   1_556 S
C1160  C436    1.436   1_556 S
C1161  H1199   1.079   .     S
C1161  N1204   1.366   .     A
C1162  H1200   1.081   .     S
C1162  N1205   1.369   .     A
C1162  C997    1.421   1_655 S
C1163  O1223   1.303   .     A
C1163  O1222   1.288   .     A
C1164  O1225   1.299   .     A
C1164  O1224   1.301   .     A
C1164  C1166   1.464   .     S
C1165  C1179   1.397   .     A
C1166  C1178   1.401   .     A
C1166  C1179   1.419   .     A
C1167  C1168   1.384   .     A
C1167  S1229   1.762   .     S
C1168  C431    1.390   1_556 S
C1168  H445    1.082   1_556 S
C1169  S1230   1.778   .     S
C1170  H1189   1.101   .     S
C1170  C1172   1.533   .     S
C1170  O1219   1.415   .     S
C1170  H1190   1.117   .     S
C1171  C1177   1.437   .     A
C1172  C1173   1.523   .     S
C1172  H1192   1.101   .     S
C1172  H1191   1.110   .     S
C1173  H1195   1.111   .     S
C1173  H1196   1.110   .     S
C1173  H1194   1.111   .     S
C1174  C1178   1.396   .     A
C1175  C1176   1.381   .     A
C1175  C427    1.400   1_556 S
C1175  C436    1.412   1_556 S
C1176  C1177   1.382   .     A
C1176  H1201   1.084   .     S
C1177  O1219   1.387   .     S
C1178  H1203   1.071   .     S
C1179  S1227   1.781   .     S
Cu1180 O1206   1.960   .     S
Cu1180 O1220   1.969   .     S
Cu1180 O1222   1.945   .     S
Cu1180 O1224   1.959   .     S
Cu1180 Cu1181  2.697   .     S
Cu1180 N1204   2.027   .     S
Cu1181 O1223   1.960   .     S
Cu1181 O1217   1.945   .     S
Cu1181 O1221   1.959   .     S
Cu1181 N1205   2.027   .     S
Cu1181 O1225   1.969   .     S
H1185  O1208   0.991   .     S
H1186  O1211   0.991   .     S
H1187  O1214   0.991   .     S
H1188  O1218   0.990   .     S
H1202  C427    1.084   1_556 S
O1207  S1227   1.504   .     D
O1208  S1227   1.678   .     S
O1209  S1228   1.502   .     D
O1210  S1064   1.504   1_655 S
O1211  S1228   1.676   .     S
O1212  S1229   1.501   .     D
O1213  S1229   1.502   .     D
O1214  S1229   1.683   .     S
O1215  S1230   1.503   .     D
O1216  S1230   1.502   .     D
O1218  S1230   1.681   .     S
O1226  S1227   1.501   .     D
C1231  C1239   1.438   .     S
C1231  O1299   1.293   .     A
C1231  O1288   1.296   .     A
C1232  C1234   1.502   .     S
C1232  C1249   1.407   .     A
C1232  C1253   1.447   .     A
C1233  C1239   1.395   .     A
C1233  H1266   1.084   .     S
C1233  C743    1.383   1_565 S
C1234  O1303   1.285   .     A
C1234  O1302   1.331   .     A
C1235  C1236   1.394   .     A
C1235  H1264   1.071   .     S
C1236  C1245   1.444   .     S
C1236  C1237   1.401   .     A
C1237  H1275   1.084   .     S
C1238  C1239   1.399   .     A
C1238  H1279   1.084   .     S
C1238  C745    1.388   1_565 S
C1240  N1287   1.344   .     A
C1240  H1280   1.080   .     S
C1240  C1323   1.413   .     S
C1241  S1310   1.791   .     S
C1241  N1286   1.407   .     A
C1241  C1404   1.413   1_455 S
C1242  C1253   1.437   .     A
C1242  C513    1.435   1_556 S
C1242  C518    1.436   1_556 S
C1243  H1281   1.079   .     S
C1243  N1286   1.366   .     A
C1243  C1408   1.421   1_455 S
C1244  H1282   1.081   .     S
C1244  N1287   1.369   .     A
C1244  C1325   1.421   .     S
C1245  O1305   1.303   .     A
C1245  O1304   1.288   .     A
C1246  O1307   1.299   .     A
C1246  O1306   1.301   .     A
C1246  C1248   1.464   .     S
C1247  C1261   1.397   .     A
C1248  C1260   1.401   .     A
C1248  C1261   1.419   .     A
C1249  C1250   1.384   .     A
C1249  S1311   1.762   .     S
C1250  C513    1.390   1_556 S
C1250  H527    1.082   1_556 S
C1251  S1312   1.778   .     S
C1252  H1271   1.101   .     S
C1252  C1254   1.533   .     S
C1252  O1301   1.415   .     S
C1252  H1272   1.117   .     S
C1253  C1259   1.437   .     A
C1254  C1255   1.523   .     S
C1254  H1274   1.101   .     S
C1254  H1273   1.110   .     S
C1255  H1277   1.111   .     S
C1255  H1278   1.110   .     S
C1255  H1276   1.111   .     S
C1256  C1260   1.396   .     A
C1257  C1258   1.381   .     A
C1257  C509    1.400   1_556 S
C1257  C518    1.412   1_556 S
C1258  C1259   1.382   .     A
C1258  H1283   1.084   .     S
C1259  O1301   1.387   .     S
C1260  H1285   1.071   .     S
C1261  S1309   1.781   .     S
Cu1262 O1288   1.960   .     S
Cu1262 O1302   1.969   .     S
Cu1262 O1304   1.945   .     S
Cu1262 O1306   1.959   .     S
Cu1262 Cu1263  2.697   .     S
Cu1262 N1286   2.027   .     S
Cu1263 O1305   1.960   .     S
Cu1263 O1299   1.945   .     S
Cu1263 O1303   1.959   .     S
Cu1263 N1287   2.027   .     S
Cu1263 O1307   1.969   .     S
H1267  O1290   0.991   .     S
H1268  O1293   0.991   .     S
H1269  O1296   0.991   .     S
H1270  O1300   0.990   .     S
H1284  C509    1.084   1_556 S
O1289  S1309   1.504   .     D
O1290  S1309   1.678   .     S
O1291  S1310   1.502   .     D
O1292  S1392   1.504   .     S
O1293  S1310   1.676   .     S
O1294  S1311   1.501   .     D
O1295  S1311   1.502   .     D
O1296  S1311   1.683   .     S
O1297  S1312   1.503   .     D
O1298  S1312   1.502   .     D
O1300  S1312   1.681   .     S
O1308  S1309   1.501   .     D
S1310  O1456   1.504   1_455 S
C1313  C1321   1.438   .     S
C1313  O1381   1.293   .     A
C1313  O1370   1.296   .     A
C1314  C1316   1.502   .     S
C1314  C1331   1.407   .     A
C1314  C1335   1.447   .     A
C1315  C1321   1.395   .     A
C1315  H1348   1.084   .     S
C1315  C825    1.383   1_565 S
C1316  O1385   1.285   .     A
C1316  O1384   1.331   .     A
C1317  C1318   1.394   .     A
C1317  H1346   1.071   .     S
C1318  C1327   1.444   .     S
C1318  C1319   1.401   .     A
C1319  H1357   1.084   .     S
C1320  C1321   1.399   .     A
C1320  H1361   1.084   .     S
C1320  C827    1.388   1_565 S
C1322  N1369   1.344   .     A
C1322  H1362   1.080   .     S
C1322  C1405   1.413   .     S
C1323  S1392   1.791   .     S
C1323  N1368   1.407   .     A
C1324  C1335   1.437   .     A
C1324  C595    1.435   1_556 S
C1324  C600    1.436   1_556 S
C1325  H1363   1.079   .     S
C1325  N1368   1.366   .     A
C1326  H1364   1.081   .     S
C1326  N1369   1.369   .     A
C1326  C1407   1.421   .     S
C1327  O1387   1.303   .     A
C1327  O1386   1.288   .     A
C1328  O1389   1.299   .     A
C1328  O1388   1.301   .     A
C1328  C1330   1.464   .     S
C1329  C1343   1.397   .     A
C1330  C1342   1.401   .     A
C1330  C1343   1.419   .     A
C1331  C1332   1.384   .     A
C1331  S1393   1.762   .     S
C1332  C595    1.390   1_556 S
C1332  H609    1.082   1_556 S
C1333  S1394   1.778   .     S
C1334  H1353   1.101   .     S
C1334  C1336   1.533   .     S
C1334  O1383   1.415   .     S
C1334  H1354   1.117   .     S
C1335  C1341   1.437   .     A
C1336  C1337   1.523   .     S
C1336  H1356   1.101   .     S
C1336  H1355   1.110   .     S
C1337  H1359   1.111   .     S
C1337  H1360   1.110   .     S
C1337  H1358   1.111   .     S
C1338  C1342   1.396   .     A
C1339  C1340   1.381   .     A
C1339  C591    1.400   1_556 S
C1339  C600    1.412   1_556 S
C1340  C1341   1.382   .     A
C1340  H1365   1.084   .     S
C1341  O1383   1.387   .     S
C1342  H1367   1.071   .     S
C1343  S1391   1.781   .     S
Cu1344 O1370   1.960   .     S
Cu1344 O1384   1.969   .     S
Cu1344 O1386   1.945   .     S
Cu1344 O1388   1.959   .     S
Cu1344 Cu1345  2.697   .     S
Cu1344 N1368   2.027   .     S
Cu1345 O1387   1.960   .     S
Cu1345 O1381   1.945   .     S
Cu1345 O1385   1.959   .     S
Cu1345 N1369   2.027   .     S
Cu1345 O1389   1.969   .     S
H1349  O1372   0.991   .     S
H1350  O1375   0.991   .     S
H1351  O1378   0.991   .     S
H1352  O1382   0.990   .     S
H1366  C591    1.084   1_556 S
O1371  S1391   1.504   .     D
O1372  S1391   1.678   .     S
O1373  S1392   1.502   .     D
O1374  S1474   1.504   .     S
O1375  S1392   1.676   .     S
O1376  S1393   1.501   .     D
O1377  S1393   1.502   .     D
O1378  S1393   1.683   .     S
O1379  S1394   1.503   .     D
O1380  S1394   1.502   .     D
O1382  S1394   1.681   .     S
O1390  S1391   1.501   .     D
C1395  C1403   1.438   .     S
C1395  O1463   1.293   .     A
C1395  O1452   1.296   .     A
C1396  C1398   1.502   .     S
C1396  C1413   1.407   .     A
C1396  C1417   1.447   .     A
C1397  C1403   1.395   .     A
C1397  H1430   1.084   .     S
C1397  C907    1.383   1_565 S
C1398  O1467   1.285   .     A
C1398  O1466   1.331   .     A
C1399  C1400   1.394   .     A
C1399  H1428   1.071   .     S
C1400  C1409   1.444   .     S
C1400  C1401   1.401   .     A
C1401  H1439   1.084   .     S
C1402  C1403   1.399   .     A
C1402  H1443   1.084   .     S
C1402  C909    1.388   1_565 S
C1404  N1451   1.344   .     A
C1404  H1444   1.080   .     S
C1404  C1241   1.413   1_655 S
C1405  S1474   1.791   .     S
C1405  N1450   1.407   .     A
C1406  C1417   1.437   .     A
C1406  C677    1.435   1_556 S
C1406  C682    1.436   1_556 S
C1407  H1445   1.079   .     S
C1407  N1450   1.366   .     A
C1408  H1446   1.081   .     S
C1408  N1451   1.369   .     A
C1408  C1243   1.421   1_655 S
C1409  O1469   1.303   .     A
C1409  O1468   1.288   .     A
C1410  O1471   1.299   .     A
C1410  O1470   1.301   .     A
C1410  C1412   1.464   .     S
C1411  C1425   1.397   .     A
C1412  C1424   1.401   .     A
C1412  C1425   1.419   .     A
C1413  C1414   1.384   .     A
C1413  S1475   1.762   .     S
C1414  C677    1.390   1_556 S
C1414  H691    1.082   1_556 S
C1415  S1476   1.778   .     S
C1416  H1435   1.101   .     S
C1416  C1418   1.533   .     S
C1416  O1465   1.415   .     S
C1416  H1436   1.117   .     S
C1417  C1423   1.437   .     A
C1418  C1419   1.523   .     S
C1418  H1438   1.101   .     S
C1418  H1437   1.110   .     S
C1419  H1441   1.111   .     S
C1419  H1442   1.110   .     S
C1419  H1440   1.111   .     S
C1420  C1424   1.396   .     A
C1421  C1422   1.381   .     A
C1421  C673    1.400   1_556 S
C1421  C682    1.412   1_556 S
C1422  C1423   1.382   .     A
C1422  H1447   1.084   .     S
C1423  O1465   1.387   .     S
C1424  H1449   1.071   .     S
C1425  S1473   1.781   .     S
Cu1426 O1452   1.960   .     S
Cu1426 O1466   1.969   .     S
Cu1426 O1468   1.945   .     S
Cu1426 O1470   1.959   .     S
Cu1426 Cu1427  2.697   .     S
Cu1426 N1450   2.027   .     S
Cu1427 O1469   1.960   .     S
Cu1427 O1463   1.945   .     S
Cu1427 O1467   1.959   .     S
Cu1427 N1451   2.027   .     S
Cu1427 O1471   1.969   .     S
H1431  O1454   0.991   .     S
H1432  O1457   0.991   .     S
H1433  O1460   0.991   .     S
H1434  O1464   0.990   .     S
H1448  C673    1.084   1_556 S
O1453  S1473   1.504   .     D
O1454  S1473   1.678   .     S
O1455  S1474   1.502   .     D
O1456  S1310   1.504   1_655 S
O1457  S1474   1.676   .     S
O1458  S1475   1.501   .     D
O1459  S1475   1.502   .     D
O1460  S1475   1.683   .     S
O1461  S1476   1.503   .     D
O1462  S1476   1.502   .     D
O1464  S1476   1.681   .     S
O1472  S1473   1.501   .     D
