data_str_m3_o1_o16_pcu_sym.163
_audit_creation_date              2020-01-03
_audit_creation_method            'Materials Studio'
_symmetry_space_group_name_H-M    'P1'
_symmetry_Int_Tables_number       1
_symmetry_cell_setting            triclinic
loop_
_symmetry_equiv_pos_as_xyz
  x,y,z
_cell_length_a                    29.6084
_cell_length_b                    32.0010
_cell_length_c                    26.1044
_cell_angle_alpha                 90.3824
_cell_angle_beta                  70.4483
_cell_angle_gamma                 89.4936
loop_
_atom_site_label
_atom_site_type_symbol
_atom_site_fract_x
_atom_site_fract_y
_atom_site_fract_z
_atom_site_U_iso_or_equiv
_atom_site_adp_type
_atom_site_occupancy
C1     C     0.16686   0.24663   0.24871   0.00000  Uiso   1.00
C2     C     0.14007   0.18586   0.49434   0.00000  Uiso   1.00
C3     C     0.15205   0.19246   0.43822   0.00000  Uiso   1.00
C4     C     0.17728   0.18908   0.01666   0.00000  Uiso   1.00
C5     C     0.22038   0.20978   0.48798   0.00000  Uiso   1.00
C6     C     0.22662   0.22526   0.43629   0.00000  Uiso   1.00
C7     C     0.19314   0.21600   0.41117   0.00000  Uiso   1.00
C8     C     0.17442   0.16877   0.06441   0.00000  Uiso   1.00
C9     C     0.24993   0.19785   0.06292   0.00000  Uiso   1.00
C10    C     0.12235   0.17542   0.41115   0.00000  Uiso   1.00
C11    C     0.19234   0.31166   0.27612   0.00000  Uiso   1.00
C12    C     0.14009   0.16923   0.35216   0.00000  Uiso   1.00
C13    C     0.19283   0.02114   0.27638   0.00000  Uiso   1.00
C14    C     0.16754   0.04266   0.24831   0.00000  Uiso   1.00
C15    C     0.14274   0.02213   0.21881   0.00000  Uiso   1.00
C16    C     0.14272   0.31253   0.21752   0.00000  Uiso   1.00
C17    C     0.16705   0.29082   0.24724   0.00000  Uiso   1.00
C18    C     0.31966   0.13984   0.21694   0.00000  Uiso   1.00
C19    C     0.03408   0.13979   0.21725   0.00000  Uiso   1.00
C20    C     0.01369   0.19344   0.28310   0.00000  Uiso   1.00
C21    C     0.29938   0.19358   0.28262   0.00000  Uiso   1.00
C22    C     0.16690   0.08673   0.24968   0.00000  Uiso   1.00
C23    C     0.19312   0.16729   0.14771   0.00000  Uiso   1.00
C24    C     0.25655   0.21403   0.01134   0.00000  Uiso   1.00
C25    C     0.20823   0.17562   0.08973   0.00000  Uiso   1.00
C26    C     0.07633   0.16167   0.44136   0.00000  Uiso   1.00
C27    C     0.06042   0.16410   0.49777   0.00000  Uiso   1.00
C28    C     0.09174   0.17608   0.02481   0.00000  Uiso   1.00
H29    H     0.27636   0.20378   0.08236   0.00000  Uiso   1.00
H30    H     0.21193   0.03741   0.29927   0.00000  Uiso   1.00
H31    H     0.12422   0.03948   0.19611   0.00000  Uiso   1.00
H32    H     0.06040   0.11849   0.19088   0.00000  Uiso   1.00
H33    H     0.27351   0.21541   0.30818   0.00000  Uiso   1.00
H34    H     0.25833   0.24267   0.41432   0.00000  Uiso   1.00
H35    H     0.28926   0.23051   0.49031   0.00000  Uiso   1.00
H36    H     0.14519   0.14783   0.08317   0.00000  Uiso   1.00
H37    H     0.05235   0.14969   0.42137   0.00000  Uiso   1.00
H38    H     0.02366   0.15636   0.02055   0.00000  Uiso   1.00
H39    H     0.19902   0.22814   0.37098   0.00000  Uiso   1.00
H40    H     0.21108   0.29484   0.29902   0.00000  Uiso   1.00
N41    N     0.04760   0.16668   0.25002   0.00000  Uiso   1.00
N42    N     0.28573   0.16665   0.25001   0.00000  Uiso   1.00
O43    O     0.12846   0.22775   0.25001   0.00000  Uiso   1.00
O44    O     0.20490   0.22774   0.25001   0.00000  Uiso   1.00
O45    O     0.10947   0.16666   0.32681   0.00000  Uiso   1.00
O46    O     0.18591   0.16665   0.32681   0.00000  Uiso   1.00
O47    O     0.12843   0.10559   0.25000   0.00000  Uiso   1.00
O48    O     0.20488   0.10558   0.25000   0.00000  Uiso   1.00
O49    O     0.14742   0.16668   0.17319   0.00000  Uiso   1.00
O50    O     0.22387   0.16667   0.17319   0.00000  Uiso   1.00
Zn51   Zn    0.11562   0.16667   0.25000   0.00000  Uiso   1.00
Zn52   Zn    0.21771   0.16666   0.25000   0.00000  Uiso   1.00
Cl53   Cl    0.11418   0.28775   0.17615   0.00000  Uiso   1.00
Cl54   Cl    0.30518   0.10550   0.17232   0.00000  Uiso   1.00
Cl55   Cl    0.02823   0.22789   0.32756   0.00000  Uiso   1.00
Cl56   Cl    0.06574   0.18690   0.09498   0.00000  Uiso   1.00
C57    C     0.50019   0.24663   0.24871   0.00000  Uiso   1.00
C58    C     0.47340   0.18586   0.49434   0.00000  Uiso   1.00
C59    C     0.48538   0.19246   0.43822   0.00000  Uiso   1.00
C60    C     0.51062   0.18908   0.01666   0.00000  Uiso   1.00
C61    C     0.55371   0.20978   0.48798   0.00000  Uiso   1.00
C62    C     0.55996   0.22526   0.43629   0.00000  Uiso   1.00
C63    C     0.52648   0.21600   0.41117   0.00000  Uiso   1.00
C64    C     0.50775   0.16877   0.06441   0.00000  Uiso   1.00
C65    C     0.58327   0.19785   0.06292   0.00000  Uiso   1.00
C66    C     0.45569   0.17542   0.41115   0.00000  Uiso   1.00
C67    C     0.52567   0.31166   0.27612   0.00000  Uiso   1.00
C68    C     0.47342   0.16923   0.35216   0.00000  Uiso   1.00
C69    C     0.52617   0.02114   0.27638   0.00000  Uiso   1.00
C70    C     0.50087   0.04266   0.24831   0.00000  Uiso   1.00
C71    C     0.47607   0.02213   0.21881   0.00000  Uiso   1.00
C72    C     0.47605   0.31253   0.21752   0.00000  Uiso   1.00
C73    C     0.50039   0.29082   0.24724   0.00000  Uiso   1.00
C74    C     0.65300   0.13984   0.21694   0.00000  Uiso   1.00
C75    C     0.36741   0.13979   0.21725   0.00000  Uiso   1.00
C76    C     0.34702   0.19344   0.28310   0.00000  Uiso   1.00
C77    C     0.63271   0.19358   0.28262   0.00000  Uiso   1.00
C78    C     0.50024   0.08673   0.24968   0.00000  Uiso   1.00
C79    C     0.52645   0.16729   0.14771   0.00000  Uiso   1.00
C80    C     0.58989   0.21403   0.01134   0.00000  Uiso   1.00
C81    C     0.54157   0.17562   0.08973   0.00000  Uiso   1.00
C82    C     0.40966   0.16167   0.44136   0.00000  Uiso   1.00
C83    C     0.39375   0.16410   0.49777   0.00000  Uiso   1.00
C84    C     0.42508   0.17608   0.02481   0.00000  Uiso   1.00
H85    H     0.60970   0.20378   0.08236   0.00000  Uiso   1.00
H86    H     0.54527   0.03741   0.29927   0.00000  Uiso   1.00
H87    H     0.45756   0.03948   0.19611   0.00000  Uiso   1.00
H88    H     0.39373   0.11849   0.19088   0.00000  Uiso   1.00
H89    H     0.60684   0.21541   0.30818   0.00000  Uiso   1.00
H90    H     0.59167   0.24267   0.41432   0.00000  Uiso   1.00
H91    H     0.62260   0.23051   0.49031   0.00000  Uiso   1.00
H92    H     0.47852   0.14783   0.08317   0.00000  Uiso   1.00
H93    H     0.38568   0.14969   0.42137   0.00000  Uiso   1.00
H94    H     0.35699   0.15636   0.02055   0.00000  Uiso   1.00
H95    H     0.53235   0.22814   0.37098   0.00000  Uiso   1.00
H96    H     0.54441   0.29484   0.29902   0.00000  Uiso   1.00
N97    N     0.38093   0.16668   0.25002   0.00000  Uiso   1.00
N98    N     0.61906   0.16665   0.25001   0.00000  Uiso   1.00
O99    O     0.46179   0.22775   0.25001   0.00000  Uiso   1.00
O100   O     0.53823   0.22774   0.25001   0.00000  Uiso   1.00
O101   O     0.44280   0.16666   0.32681   0.00000  Uiso   1.00
O102   O     0.51924   0.16665   0.32681   0.00000  Uiso   1.00
O103   O     0.46177   0.10559   0.25000   0.00000  Uiso   1.00
O104   O     0.53821   0.10558   0.25000   0.00000  Uiso   1.00
O105   O     0.48076   0.16668   0.17319   0.00000  Uiso   1.00
O106   O     0.55720   0.16667   0.17319   0.00000  Uiso   1.00
Zn107  Zn    0.44896   0.16667   0.25000   0.00000  Uiso   1.00
Zn108  Zn    0.55104   0.16666   0.25000   0.00000  Uiso   1.00
Cl109  Cl    0.44752   0.28775   0.17615   0.00000  Uiso   1.00
Cl110  Cl    0.63851   0.10550   0.17232   0.00000  Uiso   1.00
Cl111  Cl    0.36157   0.22789   0.32756   0.00000  Uiso   1.00
Cl112  Cl    0.39907   0.18690   0.09498   0.00000  Uiso   1.00
C113   C     0.83353   0.24663   0.24871   0.00000  Uiso   1.00
C114   C     0.80674   0.18586   0.49434   0.00000  Uiso   1.00
C115   C     0.81871   0.19246   0.43822   0.00000  Uiso   1.00
C116   C     0.84395   0.18908   0.01666   0.00000  Uiso   1.00
C117   C     0.88705   0.20978   0.48798   0.00000  Uiso   1.00
C118   C     0.89329   0.22526   0.43629   0.00000  Uiso   1.00
C119   C     0.85981   0.21600   0.41117   0.00000  Uiso   1.00
C120   C     0.84109   0.16877   0.06441   0.00000  Uiso   1.00
C121   C     0.91660   0.19785   0.06292   0.00000  Uiso   1.00
C122   C     0.78902   0.17542   0.41115   0.00000  Uiso   1.00
C123   C     0.85901   0.31166   0.27612   0.00000  Uiso   1.00
C124   C     0.80675   0.16923   0.35216   0.00000  Uiso   1.00
C125   C     0.85950   0.02114   0.27638   0.00000  Uiso   1.00
C126   C     0.83420   0.04266   0.24831   0.00000  Uiso   1.00
C127   C     0.80940   0.02213   0.21881   0.00000  Uiso   1.00
C128   C     0.80938   0.31253   0.21752   0.00000  Uiso   1.00
C129   C     0.83372   0.29082   0.24724   0.00000  Uiso   1.00
C130   C     0.98633   0.13984   0.21694   0.00000  Uiso   1.00
C131   C     0.70074   0.13979   0.21725   0.00000  Uiso   1.00
C132   C     0.68035   0.19344   0.28310   0.00000  Uiso   1.00
C133   C     0.96605   0.19358   0.28262   0.00000  Uiso   1.00
C134   C     0.83357   0.08673   0.24968   0.00000  Uiso   1.00
C135   C     0.85979   0.16729   0.14771   0.00000  Uiso   1.00
C136   C     0.92322   0.21403   0.01134   0.00000  Uiso   1.00
C137   C     0.87490   0.17562   0.08973   0.00000  Uiso   1.00
C138   C     0.74300   0.16167   0.44136   0.00000  Uiso   1.00
C139   C     0.72709   0.16410   0.49777   0.00000  Uiso   1.00
C140   C     0.75841   0.17608   0.02481   0.00000  Uiso   1.00
H141   H     0.94303   0.20378   0.08236   0.00000  Uiso   1.00
H142   H     0.87860   0.03741   0.29927   0.00000  Uiso   1.00
H143   H     0.79089   0.03948   0.19611   0.00000  Uiso   1.00
H144   H     0.72706   0.11849   0.19088   0.00000  Uiso   1.00
H145   H     0.94017   0.21541   0.30818   0.00000  Uiso   1.00
H146   H     0.92500   0.24267   0.41432   0.00000  Uiso   1.00
H147   H     0.95593   0.23051   0.49031   0.00000  Uiso   1.00
H148   H     0.81185   0.14783   0.08317   0.00000  Uiso   1.00
H149   H     0.71902   0.14969   0.42137   0.00000  Uiso   1.00
H150   H     0.69033   0.15636   0.02055   0.00000  Uiso   1.00
H151   H     0.86569   0.22814   0.37098   0.00000  Uiso   1.00
H152   H     0.87775   0.29484   0.29902   0.00000  Uiso   1.00
N153   N     0.71426   0.16668   0.25002   0.00000  Uiso   1.00
N154   N     0.95239   0.16665   0.25001   0.00000  Uiso   1.00
O155   O     0.79512   0.22775   0.25001   0.00000  Uiso   1.00
O156   O     0.87157   0.22774   0.25001   0.00000  Uiso   1.00
O157   O     0.77613   0.16666   0.32681   0.00000  Uiso   1.00
O158   O     0.85258   0.16665   0.32681   0.00000  Uiso   1.00
O159   O     0.79510   0.10559   0.25000   0.00000  Uiso   1.00
O160   O     0.87154   0.10558   0.25000   0.00000  Uiso   1.00
O161   O     0.81409   0.16668   0.17319   0.00000  Uiso   1.00
O162   O     0.89053   0.16667   0.17319   0.00000  Uiso   1.00
Zn163  Zn    0.78229   0.16667   0.25000   0.00000  Uiso   1.00
Zn164  Zn    0.88438   0.16666   0.25000   0.00000  Uiso   1.00
Cl165  Cl    0.78085   0.28775   0.17615   0.00000  Uiso   1.00
Cl166  Cl    0.97185   0.10550   0.17232   0.00000  Uiso   1.00
Cl167  Cl    0.69490   0.22789   0.32756   0.00000  Uiso   1.00
Cl168  Cl    0.73240   0.18690   0.09498   0.00000  Uiso   1.00
C169   C     0.16686   0.57996   0.24871   0.00000  Uiso   1.00
C170   C     0.14007   0.51919   0.49434   0.00000  Uiso   1.00
C171   C     0.15205   0.52579   0.43822   0.00000  Uiso   1.00
C172   C     0.17728   0.52241   0.01666   0.00000  Uiso   1.00
C173   C     0.22038   0.54312   0.48798   0.00000  Uiso   1.00
C174   C     0.22662   0.55859   0.43629   0.00000  Uiso   1.00
C175   C     0.19314   0.54934   0.41117   0.00000  Uiso   1.00
C176   C     0.17442   0.50210   0.06441   0.00000  Uiso   1.00
C177   C     0.24993   0.53119   0.06292   0.00000  Uiso   1.00
C178   C     0.12235   0.50876   0.41115   0.00000  Uiso   1.00
C179   C     0.19234   0.64499   0.27612   0.00000  Uiso   1.00
C180   C     0.14009   0.50256   0.35216   0.00000  Uiso   1.00
C181   C     0.19283   0.35447   0.27638   0.00000  Uiso   1.00
C182   C     0.16754   0.37599   0.24831   0.00000  Uiso   1.00
C183   C     0.14274   0.35547   0.21881   0.00000  Uiso   1.00
C184   C     0.14272   0.64587   0.21752   0.00000  Uiso   1.00
C185   C     0.16705   0.62416   0.24724   0.00000  Uiso   1.00
C186   C     0.31966   0.47317   0.21694   0.00000  Uiso   1.00
C187   C     0.03408   0.47313   0.21725   0.00000  Uiso   1.00
C188   C     0.01369   0.52677   0.28310   0.00000  Uiso   1.00
C189   C     0.29938   0.52691   0.28262   0.00000  Uiso   1.00
C190   C     0.16690   0.42006   0.24968   0.00000  Uiso   1.00
C191   C     0.19312   0.50062   0.14771   0.00000  Uiso   1.00
C192   C     0.25655   0.54737   0.01134   0.00000  Uiso   1.00
C193   C     0.20823   0.50896   0.08973   0.00000  Uiso   1.00
C194   C     0.07633   0.49500   0.44136   0.00000  Uiso   1.00
C195   C     0.06042   0.49743   0.49777   0.00000  Uiso   1.00
C196   C     0.09174   0.50942   0.02481   0.00000  Uiso   1.00
H197   H     0.27636   0.53712   0.08236   0.00000  Uiso   1.00
H198   H     0.21193   0.37074   0.29927   0.00000  Uiso   1.00
H199   H     0.12422   0.37282   0.19611   0.00000  Uiso   1.00
H200   H     0.06040   0.45182   0.19088   0.00000  Uiso   1.00
H201   H     0.27351   0.54874   0.30818   0.00000  Uiso   1.00
H202   H     0.25833   0.57600   0.41432   0.00000  Uiso   1.00
H203   H     0.28926   0.56384   0.49031   0.00000  Uiso   1.00
H204   H     0.14519   0.48117   0.08317   0.00000  Uiso   1.00
H205   H     0.05235   0.48303   0.42137   0.00000  Uiso   1.00
H206   H     0.02366   0.48969   0.02055   0.00000  Uiso   1.00
H207   H     0.19902   0.56147   0.37098   0.00000  Uiso   1.00
H208   H     0.21108   0.62817   0.29902   0.00000  Uiso   1.00
N209   N     0.04760   0.50001   0.25002   0.00000  Uiso   1.00
N210   N     0.28573   0.49998   0.25001   0.00000  Uiso   1.00
O211   O     0.12846   0.56108   0.25001   0.00000  Uiso   1.00
O212   O     0.20490   0.56107   0.25001   0.00000  Uiso   1.00
O213   O     0.10947   0.50000   0.32681   0.00000  Uiso   1.00
O214   O     0.18591   0.49999   0.32681   0.00000  Uiso   1.00
O215   O     0.12843   0.43893   0.25000   0.00000  Uiso   1.00
O216   O     0.20488   0.43892   0.25000   0.00000  Uiso   1.00
O217   O     0.14742   0.50001   0.17319   0.00000  Uiso   1.00
O218   O     0.22387   0.50000   0.17319   0.00000  Uiso   1.00
Zn219  Zn    0.11562   0.50001   0.25000   0.00000  Uiso   1.00
Zn220  Zn    0.21771   0.49999   0.25000   0.00000  Uiso   1.00
Cl221  Cl    0.11418   0.62109   0.17615   0.00000  Uiso   1.00
Cl222  Cl    0.30518   0.43884   0.17232   0.00000  Uiso   1.00
Cl223  Cl    0.02823   0.56122   0.32756   0.00000  Uiso   1.00
Cl224  Cl    0.06574   0.52023   0.09498   0.00000  Uiso   1.00
C225   C     0.50019   0.57996   0.24871   0.00000  Uiso   1.00
C226   C     0.47340   0.51919   0.49434   0.00000  Uiso   1.00
C227   C     0.48538   0.52579   0.43822   0.00000  Uiso   1.00
C228   C     0.51062   0.52241   0.01666   0.00000  Uiso   1.00
C229   C     0.55371   0.54312   0.48798   0.00000  Uiso   1.00
C230   C     0.55996   0.55859   0.43629   0.00000  Uiso   1.00
C231   C     0.52648   0.54934   0.41117   0.00000  Uiso   1.00
C232   C     0.50775   0.50210   0.06441   0.00000  Uiso   1.00
C233   C     0.58327   0.53119   0.06292   0.00000  Uiso   1.00
C234   C     0.45569   0.50876   0.41115   0.00000  Uiso   1.00
C235   C     0.52567   0.64499   0.27612   0.00000  Uiso   1.00
C236   C     0.47342   0.50256   0.35216   0.00000  Uiso   1.00
C237   C     0.52617   0.35447   0.27638   0.00000  Uiso   1.00
C238   C     0.50087   0.37599   0.24831   0.00000  Uiso   1.00
C239   C     0.47607   0.35547   0.21881   0.00000  Uiso   1.00
C240   C     0.47605   0.64587   0.21752   0.00000  Uiso   1.00
C241   C     0.50039   0.62416   0.24724   0.00000  Uiso   1.00
C242   C     0.65300   0.47317   0.21694   0.00000  Uiso   1.00
C243   C     0.36741   0.47313   0.21725   0.00000  Uiso   1.00
C244   C     0.34702   0.52677   0.28310   0.00000  Uiso   1.00
C245   C     0.63271   0.52691   0.28262   0.00000  Uiso   1.00
C246   C     0.50024   0.42006   0.24968   0.00000  Uiso   1.00
C247   C     0.52645   0.50062   0.14771   0.00000  Uiso   1.00
C248   C     0.58989   0.54737   0.01134   0.00000  Uiso   1.00
C249   C     0.54157   0.50896   0.08973   0.00000  Uiso   1.00
C250   C     0.40966   0.49500   0.44136   0.00000  Uiso   1.00
C251   C     0.39375   0.49743   0.49777   0.00000  Uiso   1.00
C252   C     0.42508   0.50942   0.02481   0.00000  Uiso   1.00
H253   H     0.60970   0.53712   0.08236   0.00000  Uiso   1.00
H254   H     0.54527   0.37074   0.29927   0.00000  Uiso   1.00
H255   H     0.45756   0.37282   0.19611   0.00000  Uiso   1.00
H256   H     0.39373   0.45182   0.19088   0.00000  Uiso   1.00
H257   H     0.60684   0.54874   0.30818   0.00000  Uiso   1.00
H258   H     0.59167   0.57600   0.41432   0.00000  Uiso   1.00
H259   H     0.62260   0.56384   0.49031   0.00000  Uiso   1.00
H260   H     0.47852   0.48117   0.08317   0.00000  Uiso   1.00
H261   H     0.38568   0.48303   0.42137   0.00000  Uiso   1.00
H262   H     0.35699   0.48969   0.02055   0.00000  Uiso   1.00
H263   H     0.53235   0.56147   0.37098   0.00000  Uiso   1.00
H264   H     0.54441   0.62817   0.29902   0.00000  Uiso   1.00
N265   N     0.38093   0.50001   0.25002   0.00000  Uiso   1.00
N266   N     0.61906   0.49998   0.25001   0.00000  Uiso   1.00
O267   O     0.46179   0.56108   0.25001   0.00000  Uiso   1.00
O268   O     0.53823   0.56107   0.25001   0.00000  Uiso   1.00
O269   O     0.44280   0.50000   0.32681   0.00000  Uiso   1.00
O270   O     0.51924   0.49999   0.32681   0.00000  Uiso   1.00
O271   O     0.46177   0.43893   0.25000   0.00000  Uiso   1.00
O272   O     0.53821   0.43892   0.25000   0.00000  Uiso   1.00
O273   O     0.48076   0.50001   0.17319   0.00000  Uiso   1.00
O274   O     0.55720   0.50000   0.17319   0.00000  Uiso   1.00
Zn275  Zn    0.44896   0.50001   0.25000   0.00000  Uiso   1.00
Zn276  Zn    0.55104   0.49999   0.25000   0.00000  Uiso   1.00
Cl277  Cl    0.44752   0.62109   0.17615   0.00000  Uiso   1.00
Cl278  Cl    0.63851   0.43884   0.17232   0.00000  Uiso   1.00
Cl279  Cl    0.36157   0.56122   0.32756   0.00000  Uiso   1.00
Cl280  Cl    0.39907   0.52023   0.09498   0.00000  Uiso   1.00
C281   C     0.83353   0.57996   0.24871   0.00000  Uiso   1.00
C282   C     0.80674   0.51919   0.49434   0.00000  Uiso   1.00
C283   C     0.81871   0.52579   0.43822   0.00000  Uiso   1.00
C284   C     0.84395   0.52241   0.01666   0.00000  Uiso   1.00
C285   C     0.88705   0.54312   0.48798   0.00000  Uiso   1.00
C286   C     0.89329   0.55859   0.43629   0.00000  Uiso   1.00
C287   C     0.85981   0.54934   0.41117   0.00000  Uiso   1.00
C288   C     0.84109   0.50210   0.06441   0.00000  Uiso   1.00
C289   C     0.91660   0.53119   0.06292   0.00000  Uiso   1.00
C290   C     0.78902   0.50876   0.41115   0.00000  Uiso   1.00
C291   C     0.85901   0.64499   0.27612   0.00000  Uiso   1.00
C292   C     0.80675   0.50256   0.35216   0.00000  Uiso   1.00
C293   C     0.85950   0.35447   0.27638   0.00000  Uiso   1.00
C294   C     0.83420   0.37599   0.24831   0.00000  Uiso   1.00
C295   C     0.80940   0.35547   0.21881   0.00000  Uiso   1.00
C296   C     0.80938   0.64587   0.21752   0.00000  Uiso   1.00
C297   C     0.83372   0.62416   0.24724   0.00000  Uiso   1.00
C298   C     0.98633   0.47317   0.21694   0.00000  Uiso   1.00
C299   C     0.70074   0.47313   0.21725   0.00000  Uiso   1.00
C300   C     0.68035   0.52677   0.28310   0.00000  Uiso   1.00
C301   C     0.96605   0.52691   0.28262   0.00000  Uiso   1.00
C302   C     0.83357   0.42006   0.24968   0.00000  Uiso   1.00
C303   C     0.85979   0.50062   0.14771   0.00000  Uiso   1.00
C304   C     0.92322   0.54737   0.01134   0.00000  Uiso   1.00
C305   C     0.87490   0.50896   0.08973   0.00000  Uiso   1.00
C306   C     0.74300   0.49500   0.44136   0.00000  Uiso   1.00
C307   C     0.72709   0.49743   0.49777   0.00000  Uiso   1.00
C308   C     0.75841   0.50942   0.02481   0.00000  Uiso   1.00
H309   H     0.94303   0.53712   0.08236   0.00000  Uiso   1.00
H310   H     0.87860   0.37074   0.29927   0.00000  Uiso   1.00
H311   H     0.79089   0.37282   0.19611   0.00000  Uiso   1.00
H312   H     0.72706   0.45182   0.19088   0.00000  Uiso   1.00
H313   H     0.94017   0.54874   0.30818   0.00000  Uiso   1.00
H314   H     0.92500   0.57600   0.41432   0.00000  Uiso   1.00
H315   H     0.95593   0.56384   0.49031   0.00000  Uiso   1.00
H316   H     0.81185   0.48117   0.08317   0.00000  Uiso   1.00
H317   H     0.71902   0.48303   0.42137   0.00000  Uiso   1.00
H318   H     0.69033   0.48969   0.02055   0.00000  Uiso   1.00
H319   H     0.86569   0.56147   0.37098   0.00000  Uiso   1.00
H320   H     0.87775   0.62817   0.29902   0.00000  Uiso   1.00
N321   N     0.71426   0.50001   0.25002   0.00000  Uiso   1.00
N322   N     0.95239   0.49998   0.25001   0.00000  Uiso   1.00
O323   O     0.79512   0.56108   0.25001   0.00000  Uiso   1.00
O324   O     0.87157   0.56107   0.25001   0.00000  Uiso   1.00
O325   O     0.77613   0.50000   0.32681   0.00000  Uiso   1.00
O326   O     0.85258   0.49999   0.32681   0.00000  Uiso   1.00
O327   O     0.79510   0.43893   0.25000   0.00000  Uiso   1.00
O328   O     0.87154   0.43892   0.25000   0.00000  Uiso   1.00
O329   O     0.81409   0.50001   0.17319   0.00000  Uiso   1.00
O330   O     0.89053   0.50000   0.17319   0.00000  Uiso   1.00
Zn331  Zn    0.78229   0.50001   0.25000   0.00000  Uiso   1.00
Zn332  Zn    0.88438   0.49999   0.25000   0.00000  Uiso   1.00
Cl333  Cl    0.78085   0.62109   0.17615   0.00000  Uiso   1.00
Cl334  Cl    0.97185   0.43884   0.17232   0.00000  Uiso   1.00
Cl335  Cl    0.69490   0.56122   0.32756   0.00000  Uiso   1.00
Cl336  Cl    0.73240   0.52023   0.09498   0.00000  Uiso   1.00
C337   C     0.16686   0.91330   0.24871   0.00000  Uiso   1.00
C338   C     0.14007   0.85252   0.49434   0.00000  Uiso   1.00
C339   C     0.15205   0.85913   0.43822   0.00000  Uiso   1.00
C340   C     0.17728   0.85575   0.01666   0.00000  Uiso   1.00
C341   C     0.22038   0.87645   0.48798   0.00000  Uiso   1.00
C342   C     0.22662   0.89193   0.43629   0.00000  Uiso   1.00
C343   C     0.19314   0.88267   0.41117   0.00000  Uiso   1.00
C344   C     0.17442   0.83543   0.06441   0.00000  Uiso   1.00
C345   C     0.24993   0.86452   0.06292   0.00000  Uiso   1.00
C346   C     0.12235   0.84209   0.41115   0.00000  Uiso   1.00
C347   C     0.19234   0.97833   0.27612   0.00000  Uiso   1.00
C348   C     0.14009   0.83590   0.35216   0.00000  Uiso   1.00
C349   C     0.19283   0.68781   0.27638   0.00000  Uiso   1.00
C350   C     0.16754   0.70933   0.24831   0.00000  Uiso   1.00
C351   C     0.14274   0.68880   0.21881   0.00000  Uiso   1.00
C352   C     0.14272   0.97920   0.21752   0.00000  Uiso   1.00
C353   C     0.16705   0.95749   0.24724   0.00000  Uiso   1.00
C354   C     0.31966   0.80650   0.21694   0.00000  Uiso   1.00
C355   C     0.03408   0.80646   0.21725   0.00000  Uiso   1.00
C356   C     0.01369   0.86010   0.28310   0.00000  Uiso   1.00
C357   C     0.29938   0.86024   0.28262   0.00000  Uiso   1.00
C358   C     0.16690   0.75339   0.24968   0.00000  Uiso   1.00
C359   C     0.19312   0.83395   0.14771   0.00000  Uiso   1.00
C360   C     0.25655   0.88070   0.01134   0.00000  Uiso   1.00
C361   C     0.20823   0.84229   0.08973   0.00000  Uiso   1.00
C362   C     0.07633   0.82834   0.44136   0.00000  Uiso   1.00
C363   C     0.06042   0.83077   0.49777   0.00000  Uiso   1.00
C364   C     0.09174   0.84275   0.02481   0.00000  Uiso   1.00
H365   H     0.27636   0.87045   0.08236   0.00000  Uiso   1.00
H366   H     0.21193   0.70408   0.29927   0.00000  Uiso   1.00
H367   H     0.12422   0.70615   0.19611   0.00000  Uiso   1.00
H368   H     0.06040   0.78516   0.19088   0.00000  Uiso   1.00
H369   H     0.27351   0.88207   0.30818   0.00000  Uiso   1.00
H370   H     0.25833   0.90933   0.41432   0.00000  Uiso   1.00
H371   H     0.28926   0.89718   0.49031   0.00000  Uiso   1.00
H372   H     0.14519   0.81450   0.08317   0.00000  Uiso   1.00
H373   H     0.05235   0.81636   0.42137   0.00000  Uiso   1.00
H374   H     0.02366   0.82303   0.02055   0.00000  Uiso   1.00
H375   H     0.19902   0.89481   0.37098   0.00000  Uiso   1.00
H376   H     0.21108   0.96150   0.29902   0.00000  Uiso   1.00
N377   N     0.04760   0.83334   0.25002   0.00000  Uiso   1.00
N378   N     0.28573   0.83331   0.25001   0.00000  Uiso   1.00
O379   O     0.12846   0.89442   0.25001   0.00000  Uiso   1.00
O380   O     0.20490   0.89441   0.25001   0.00000  Uiso   1.00
O381   O     0.10947   0.83333   0.32681   0.00000  Uiso   1.00
O382   O     0.18591   0.83332   0.32681   0.00000  Uiso   1.00
O383   O     0.12843   0.77226   0.25000   0.00000  Uiso   1.00
O384   O     0.20488   0.77225   0.25000   0.00000  Uiso   1.00
O385   O     0.14742   0.83335   0.17319   0.00000  Uiso   1.00
O386   O     0.22387   0.83334   0.17319   0.00000  Uiso   1.00
Zn387  Zn    0.11562   0.83334   0.25000   0.00000  Uiso   1.00
Zn388  Zn    0.21771   0.83333   0.25000   0.00000  Uiso   1.00
Cl389  Cl    0.11418   0.95442   0.17615   0.00000  Uiso   1.00
Cl390  Cl    0.30518   0.77217   0.17232   0.00000  Uiso   1.00
Cl391  Cl    0.02823   0.89455   0.32756   0.00000  Uiso   1.00
Cl392  Cl    0.06574   0.85357   0.09498   0.00000  Uiso   1.00
C393   C     0.50019   0.91330   0.24871   0.00000  Uiso   1.00
C394   C     0.47340   0.85252   0.49434   0.00000  Uiso   1.00
C395   C     0.48538   0.85913   0.43822   0.00000  Uiso   1.00
C396   C     0.51062   0.85575   0.01666   0.00000  Uiso   1.00
C397   C     0.55371   0.87645   0.48798   0.00000  Uiso   1.00
C398   C     0.55996   0.89193   0.43629   0.00000  Uiso   1.00
C399   C     0.52648   0.88267   0.41117   0.00000  Uiso   1.00
C400   C     0.50775   0.83543   0.06441   0.00000  Uiso   1.00
C401   C     0.58327   0.86452   0.06292   0.00000  Uiso   1.00
C402   C     0.45569   0.84209   0.41115   0.00000  Uiso   1.00
C403   C     0.52567   0.97833   0.27612   0.00000  Uiso   1.00
C404   C     0.47342   0.83590   0.35216   0.00000  Uiso   1.00
C405   C     0.52617   0.68781   0.27638   0.00000  Uiso   1.00
C406   C     0.50087   0.70933   0.24831   0.00000  Uiso   1.00
C407   C     0.47607   0.68880   0.21881   0.00000  Uiso   1.00
C408   C     0.47605   0.97920   0.21752   0.00000  Uiso   1.00
C409   C     0.50039   0.95749   0.24724   0.00000  Uiso   1.00
C410   C     0.65300   0.80650   0.21694   0.00000  Uiso   1.00
C411   C     0.36741   0.80646   0.21725   0.00000  Uiso   1.00
C412   C     0.34702   0.86010   0.28310   0.00000  Uiso   1.00
C413   C     0.63271   0.86024   0.28262   0.00000  Uiso   1.00
C414   C     0.50024   0.75339   0.24968   0.00000  Uiso   1.00
C415   C     0.52645   0.83395   0.14771   0.00000  Uiso   1.00
C416   C     0.58989   0.88070   0.01134   0.00000  Uiso   1.00
C417   C     0.54157   0.84229   0.08973   0.00000  Uiso   1.00
C418   C     0.40966   0.82834   0.44136   0.00000  Uiso   1.00
C419   C     0.39375   0.83077   0.49777   0.00000  Uiso   1.00
C420   C     0.42508   0.84275   0.02481   0.00000  Uiso   1.00
H421   H     0.60970   0.87045   0.08236   0.00000  Uiso   1.00
H422   H     0.54527   0.70408   0.29927   0.00000  Uiso   1.00
H423   H     0.45756   0.70615   0.19611   0.00000  Uiso   1.00
H424   H     0.39373   0.78516   0.19088   0.00000  Uiso   1.00
H425   H     0.60684   0.88207   0.30818   0.00000  Uiso   1.00
H426   H     0.59167   0.90933   0.41432   0.00000  Uiso   1.00
H427   H     0.62260   0.89718   0.49031   0.00000  Uiso   1.00
H428   H     0.47852   0.81450   0.08317   0.00000  Uiso   1.00
H429   H     0.38568   0.81636   0.42137   0.00000  Uiso   1.00
H430   H     0.35699   0.82303   0.02055   0.00000  Uiso   1.00
H431   H     0.53235   0.89481   0.37098   0.00000  Uiso   1.00
H432   H     0.54441   0.96150   0.29902   0.00000  Uiso   1.00
N433   N     0.38093   0.83334   0.25002   0.00000  Uiso   1.00
N434   N     0.61906   0.83331   0.25001   0.00000  Uiso   1.00
O435   O     0.46179   0.89442   0.25001   0.00000  Uiso   1.00
O436   O     0.53823   0.89441   0.25001   0.00000  Uiso   1.00
O437   O     0.44280   0.83333   0.32681   0.00000  Uiso   1.00
O438   O     0.51924   0.83332   0.32681   0.00000  Uiso   1.00
O439   O     0.46177   0.77226   0.25000   0.00000  Uiso   1.00
O440   O     0.53821   0.77225   0.25000   0.00000  Uiso   1.00
O441   O     0.48076   0.83335   0.17319   0.00000  Uiso   1.00
O442   O     0.55720   0.83334   0.17319   0.00000  Uiso   1.00
Zn443  Zn    0.44896   0.83334   0.25000   0.00000  Uiso   1.00
Zn444  Zn    0.55104   0.83333   0.25000   0.00000  Uiso   1.00
Cl445  Cl    0.44752   0.95442   0.17615   0.00000  Uiso   1.00
Cl446  Cl    0.63851   0.77217   0.17232   0.00000  Uiso   1.00
Cl447  Cl    0.36157   0.89455   0.32756   0.00000  Uiso   1.00
Cl448  Cl    0.39907   0.85357   0.09498   0.00000  Uiso   1.00
C449   C     0.83353   0.91330   0.24871   0.00000  Uiso   1.00
C450   C     0.80674   0.85252   0.49434   0.00000  Uiso   1.00
C451   C     0.81871   0.85913   0.43822   0.00000  Uiso   1.00
C452   C     0.84395   0.85575   0.01666   0.00000  Uiso   1.00
C453   C     0.88705   0.87645   0.48798   0.00000  Uiso   1.00
C454   C     0.89329   0.89193   0.43629   0.00000  Uiso   1.00
C455   C     0.85981   0.88267   0.41117   0.00000  Uiso   1.00
C456   C     0.84109   0.83543   0.06441   0.00000  Uiso   1.00
C457   C     0.91660   0.86452   0.06292   0.00000  Uiso   1.00
C458   C     0.78902   0.84209   0.41115   0.00000  Uiso   1.00
C459   C     0.85901   0.97833   0.27612   0.00000  Uiso   1.00
C460   C     0.80675   0.83590   0.35216   0.00000  Uiso   1.00
C461   C     0.85950   0.68781   0.27638   0.00000  Uiso   1.00
C462   C     0.83420   0.70933   0.24831   0.00000  Uiso   1.00
C463   C     0.80940   0.68880   0.21881   0.00000  Uiso   1.00
C464   C     0.80938   0.97920   0.21752   0.00000  Uiso   1.00
C465   C     0.83372   0.95749   0.24724   0.00000  Uiso   1.00
C466   C     0.98633   0.80650   0.21694   0.00000  Uiso   1.00
C467   C     0.70074   0.80646   0.21725   0.00000  Uiso   1.00
C468   C     0.68035   0.86010   0.28310   0.00000  Uiso   1.00
C469   C     0.96605   0.86024   0.28262   0.00000  Uiso   1.00
C470   C     0.83357   0.75339   0.24968   0.00000  Uiso   1.00
C471   C     0.85979   0.83395   0.14771   0.00000  Uiso   1.00
C472   C     0.92322   0.88070   0.01134   0.00000  Uiso   1.00
C473   C     0.87490   0.84229   0.08973   0.00000  Uiso   1.00
C474   C     0.74300   0.82834   0.44136   0.00000  Uiso   1.00
C475   C     0.72709   0.83077   0.49777   0.00000  Uiso   1.00
C476   C     0.75841   0.84275   0.02481   0.00000  Uiso   1.00
H477   H     0.94303   0.87045   0.08236   0.00000  Uiso   1.00
H478   H     0.87860   0.70408   0.29927   0.00000  Uiso   1.00
H479   H     0.79089   0.70615   0.19611   0.00000  Uiso   1.00
H480   H     0.72706   0.78516   0.19088   0.00000  Uiso   1.00
H481   H     0.94017   0.88207   0.30818   0.00000  Uiso   1.00
H482   H     0.92500   0.90933   0.41432   0.00000  Uiso   1.00
H483   H     0.95593   0.89718   0.49031   0.00000  Uiso   1.00
H484   H     0.81185   0.81450   0.08317   0.00000  Uiso   1.00
H485   H     0.71902   0.81636   0.42137   0.00000  Uiso   1.00
H486   H     0.69033   0.82303   0.02055   0.00000  Uiso   1.00
H487   H     0.86569   0.89481   0.37098   0.00000  Uiso   1.00
H488   H     0.87775   0.96150   0.29902   0.00000  Uiso   1.00
N489   N     0.71426   0.83334   0.25002   0.00000  Uiso   1.00
N490   N     0.95239   0.83331   0.25001   0.00000  Uiso   1.00
O491   O     0.79512   0.89442   0.25001   0.00000  Uiso   1.00
O492   O     0.87157   0.89441   0.25001   0.00000  Uiso   1.00
O493   O     0.77613   0.83333   0.32681   0.00000  Uiso   1.00
O494   O     0.85258   0.83332   0.32681   0.00000  Uiso   1.00
O495   O     0.79510   0.77226   0.25000   0.00000  Uiso   1.00
O496   O     0.87154   0.77225   0.25000   0.00000  Uiso   1.00
O497   O     0.81409   0.83335   0.17319   0.00000  Uiso   1.00
O498   O     0.89053   0.83334   0.17319   0.00000  Uiso   1.00
Zn499  Zn    0.78229   0.83334   0.25000   0.00000  Uiso   1.00
Zn500  Zn    0.88438   0.83333   0.25000   0.00000  Uiso   1.00
Cl501  Cl    0.78085   0.95442   0.17615   0.00000  Uiso   1.00
Cl502  Cl    0.97185   0.77217   0.17232   0.00000  Uiso   1.00
Cl503  Cl    0.69490   0.89455   0.32756   0.00000  Uiso   1.00
Cl504  Cl    0.73240   0.85357   0.09498   0.00000  Uiso   1.00
C505   C     0.16686   0.24663   0.74871   0.00000  Uiso   1.00
C506   C     0.14007   0.18586   0.99434   0.00000  Uiso   1.00
C507   C     0.15205   0.19246   0.93822   0.00000  Uiso   1.00
C508   C     0.17728   0.18908   0.51666   0.00000  Uiso   1.00
C509   C     0.22038   0.20978   0.98798   0.00000  Uiso   1.00
C510   C     0.22662   0.22526   0.93629   0.00000  Uiso   1.00
C511   C     0.19314   0.21600   0.91117   0.00000  Uiso   1.00
C512   C     0.17442   0.16877   0.56441   0.00000  Uiso   1.00
C513   C     0.24993   0.19785   0.56292   0.00000  Uiso   1.00
C514   C     0.12235   0.17542   0.91115   0.00000  Uiso   1.00
C515   C     0.19234   0.31166   0.77612   0.00000  Uiso   1.00
C516   C     0.14009   0.16923   0.85216   0.00000  Uiso   1.00
C517   C     0.19283   0.02114   0.77638   0.00000  Uiso   1.00
C518   C     0.16754   0.04266   0.74831   0.00000  Uiso   1.00
C519   C     0.14274   0.02213   0.71881   0.00000  Uiso   1.00
C520   C     0.14272   0.31253   0.71752   0.00000  Uiso   1.00
C521   C     0.16705   0.29082   0.74724   0.00000  Uiso   1.00
C522   C     0.31966   0.13984   0.71694   0.00000  Uiso   1.00
C523   C     0.03408   0.13979   0.71725   0.00000  Uiso   1.00
C524   C     0.01369   0.19344   0.78310   0.00000  Uiso   1.00
C525   C     0.29938   0.19358   0.78262   0.00000  Uiso   1.00
C526   C     0.16690   0.08673   0.74968   0.00000  Uiso   1.00
C527   C     0.19312   0.16729   0.64771   0.00000  Uiso   1.00
C528   C     0.25655   0.21403   0.51134   0.00000  Uiso   1.00
C529   C     0.20823   0.17562   0.58973   0.00000  Uiso   1.00
C530   C     0.07633   0.16167   0.94136   0.00000  Uiso   1.00
C531   C     0.06042   0.16410   0.99777   0.00000  Uiso   1.00
C532   C     0.09174   0.17608   0.52481   0.00000  Uiso   1.00
H533   H     0.27636   0.20378   0.58236   0.00000  Uiso   1.00
H534   H     0.21193   0.03741   0.79927   0.00000  Uiso   1.00
H535   H     0.12422   0.03948   0.69611   0.00000  Uiso   1.00
H536   H     0.06040   0.11849   0.69088   0.00000  Uiso   1.00
H537   H     0.27351   0.21541   0.80818   0.00000  Uiso   1.00
H538   H     0.25833   0.24267   0.91432   0.00000  Uiso   1.00
H539   H     0.28926   0.23051   0.99031   0.00000  Uiso   1.00
H540   H     0.14519   0.14783   0.58317   0.00000  Uiso   1.00
H541   H     0.05235   0.14969   0.92137   0.00000  Uiso   1.00
H542   H     0.02366   0.15636   0.52055   0.00000  Uiso   1.00
H543   H     0.19902   0.22814   0.87098   0.00000  Uiso   1.00
H544   H     0.21108   0.29484   0.79902   0.00000  Uiso   1.00
N545   N     0.04760   0.16668   0.75002   0.00000  Uiso   1.00
N546   N     0.28573   0.16665   0.75001   0.00000  Uiso   1.00
O547   O     0.12846   0.22775   0.75001   0.00000  Uiso   1.00
O548   O     0.20490   0.22774   0.75001   0.00000  Uiso   1.00
O549   O     0.10947   0.16666   0.82681   0.00000  Uiso   1.00
O550   O     0.18591   0.16665   0.82681   0.00000  Uiso   1.00
O551   O     0.12843   0.10559   0.75000   0.00000  Uiso   1.00
O552   O     0.20488   0.10558   0.75000   0.00000  Uiso   1.00
O553   O     0.14742   0.16668   0.67319   0.00000  Uiso   1.00
O554   O     0.22387   0.16667   0.67319   0.00000  Uiso   1.00
Zn555  Zn    0.11562   0.16667   0.75000   0.00000  Uiso   1.00
Zn556  Zn    0.21771   0.16666   0.75000   0.00000  Uiso   1.00
Cl557  Cl    0.11418   0.28775   0.67615   0.00000  Uiso   1.00
Cl558  Cl    0.30518   0.10550   0.67232   0.00000  Uiso   1.00
Cl559  Cl    0.02823   0.22789   0.82756   0.00000  Uiso   1.00
Cl560  Cl    0.06574   0.18690   0.59498   0.00000  Uiso   1.00
C561   C     0.50019   0.24663   0.74871   0.00000  Uiso   1.00
C562   C     0.47340   0.18586   0.99434   0.00000  Uiso   1.00
C563   C     0.48538   0.19246   0.93822   0.00000  Uiso   1.00
C564   C     0.51062   0.18908   0.51666   0.00000  Uiso   1.00
C565   C     0.55371   0.20978   0.98798   0.00000  Uiso   1.00
C566   C     0.55996   0.22526   0.93629   0.00000  Uiso   1.00
C567   C     0.52648   0.21600   0.91117   0.00000  Uiso   1.00
C568   C     0.50775   0.16877   0.56441   0.00000  Uiso   1.00
C569   C     0.58327   0.19785   0.56292   0.00000  Uiso   1.00
C570   C     0.45569   0.17542   0.91115   0.00000  Uiso   1.00
C571   C     0.52567   0.31166   0.77612   0.00000  Uiso   1.00
C572   C     0.47342   0.16923   0.85216   0.00000  Uiso   1.00
C573   C     0.52617   0.02114   0.77638   0.00000  Uiso   1.00
C574   C     0.50087   0.04266   0.74831   0.00000  Uiso   1.00
C575   C     0.47607   0.02213   0.71881   0.00000  Uiso   1.00
C576   C     0.47605   0.31253   0.71752   0.00000  Uiso   1.00
C577   C     0.50039   0.29082   0.74724   0.00000  Uiso   1.00
C578   C     0.65300   0.13984   0.71694   0.00000  Uiso   1.00
C579   C     0.36741   0.13979   0.71725   0.00000  Uiso   1.00
C580   C     0.34702   0.19344   0.78310   0.00000  Uiso   1.00
C581   C     0.63271   0.19358   0.78262   0.00000  Uiso   1.00
C582   C     0.50024   0.08673   0.74968   0.00000  Uiso   1.00
C583   C     0.52645   0.16729   0.64771   0.00000  Uiso   1.00
C584   C     0.58989   0.21403   0.51134   0.00000  Uiso   1.00
C585   C     0.54157   0.17562   0.58973   0.00000  Uiso   1.00
C586   C     0.40966   0.16167   0.94136   0.00000  Uiso   1.00
C587   C     0.39375   0.16410   0.99777   0.00000  Uiso   1.00
C588   C     0.42508   0.17608   0.52481   0.00000  Uiso   1.00
H589   H     0.60970   0.20378   0.58236   0.00000  Uiso   1.00
H590   H     0.54527   0.03741   0.79927   0.00000  Uiso   1.00
H591   H     0.45756   0.03948   0.69611   0.00000  Uiso   1.00
H592   H     0.39373   0.11849   0.69088   0.00000  Uiso   1.00
H593   H     0.60684   0.21541   0.80818   0.00000  Uiso   1.00
H594   H     0.59167   0.24267   0.91432   0.00000  Uiso   1.00
H595   H     0.62260   0.23051   0.99031   0.00000  Uiso   1.00
H596   H     0.47852   0.14783   0.58317   0.00000  Uiso   1.00
H597   H     0.38568   0.14969   0.92137   0.00000  Uiso   1.00
H598   H     0.35699   0.15636   0.52055   0.00000  Uiso   1.00
H599   H     0.53235   0.22814   0.87098   0.00000  Uiso   1.00
H600   H     0.54441   0.29484   0.79902   0.00000  Uiso   1.00
N601   N     0.38093   0.16668   0.75002   0.00000  Uiso   1.00
N602   N     0.61906   0.16665   0.75001   0.00000  Uiso   1.00
O603   O     0.46179   0.22775   0.75001   0.00000  Uiso   1.00
O604   O     0.53823   0.22774   0.75001   0.00000  Uiso   1.00
O605   O     0.44280   0.16666   0.82681   0.00000  Uiso   1.00
O606   O     0.51924   0.16665   0.82681   0.00000  Uiso   1.00
O607   O     0.46177   0.10559   0.75000   0.00000  Uiso   1.00
O608   O     0.53821   0.10558   0.75000   0.00000  Uiso   1.00
O609   O     0.48076   0.16668   0.67319   0.00000  Uiso   1.00
O610   O     0.55720   0.16667   0.67319   0.00000  Uiso   1.00
Zn611  Zn    0.44896   0.16667   0.75000   0.00000  Uiso   1.00
Zn612  Zn    0.55104   0.16666   0.75000   0.00000  Uiso   1.00
Cl613  Cl    0.44752   0.28775   0.67615   0.00000  Uiso   1.00
Cl614  Cl    0.63851   0.10550   0.67232   0.00000  Uiso   1.00
Cl615  Cl    0.36157   0.22789   0.82756   0.00000  Uiso   1.00
Cl616  Cl    0.39907   0.18690   0.59498   0.00000  Uiso   1.00
C617   C     0.83353   0.24663   0.74871   0.00000  Uiso   1.00
C618   C     0.80674   0.18586   0.99434   0.00000  Uiso   1.00
C619   C     0.81871   0.19246   0.93822   0.00000  Uiso   1.00
C620   C     0.84395   0.18908   0.51666   0.00000  Uiso   1.00
C621   C     0.88705   0.20978   0.98798   0.00000  Uiso   1.00
C622   C     0.89329   0.22526   0.93629   0.00000  Uiso   1.00
C623   C     0.85981   0.21600   0.91117   0.00000  Uiso   1.00
C624   C     0.84109   0.16877   0.56441   0.00000  Uiso   1.00
C625   C     0.91660   0.19785   0.56292   0.00000  Uiso   1.00
C626   C     0.78902   0.17542   0.91115   0.00000  Uiso   1.00
C627   C     0.85901   0.31166   0.77612   0.00000  Uiso   1.00
C628   C     0.80675   0.16923   0.85216   0.00000  Uiso   1.00
C629   C     0.85950   0.02114   0.77638   0.00000  Uiso   1.00
C630   C     0.83420   0.04266   0.74831   0.00000  Uiso   1.00
C631   C     0.80940   0.02213   0.71881   0.00000  Uiso   1.00
C632   C     0.80938   0.31253   0.71752   0.00000  Uiso   1.00
C633   C     0.83372   0.29082   0.74724   0.00000  Uiso   1.00
C634   C     0.98633   0.13984   0.71694   0.00000  Uiso   1.00
C635   C     0.70074   0.13979   0.71725   0.00000  Uiso   1.00
C636   C     0.68035   0.19344   0.78310   0.00000  Uiso   1.00
C637   C     0.96605   0.19358   0.78262   0.00000  Uiso   1.00
C638   C     0.83357   0.08673   0.74968   0.00000  Uiso   1.00
C639   C     0.85979   0.16729   0.64771   0.00000  Uiso   1.00
C640   C     0.92322   0.21403   0.51134   0.00000  Uiso   1.00
C641   C     0.87490   0.17562   0.58973   0.00000  Uiso   1.00
C642   C     0.74300   0.16167   0.94136   0.00000  Uiso   1.00
C643   C     0.72709   0.16410   0.99777   0.00000  Uiso   1.00
C644   C     0.75841   0.17608   0.52481   0.00000  Uiso   1.00
H645   H     0.94303   0.20378   0.58236   0.00000  Uiso   1.00
H646   H     0.87860   0.03741   0.79927   0.00000  Uiso   1.00
H647   H     0.79089   0.03948   0.69611   0.00000  Uiso   1.00
H648   H     0.72706   0.11849   0.69088   0.00000  Uiso   1.00
H649   H     0.94017   0.21541   0.80818   0.00000  Uiso   1.00
H650   H     0.92500   0.24267   0.91432   0.00000  Uiso   1.00
H651   H     0.95593   0.23051   0.99031   0.00000  Uiso   1.00
H652   H     0.81185   0.14783   0.58317   0.00000  Uiso   1.00
H653   H     0.71902   0.14969   0.92137   0.00000  Uiso   1.00
H654   H     0.69033   0.15636   0.52055   0.00000  Uiso   1.00
H655   H     0.86569   0.22814   0.87098   0.00000  Uiso   1.00
H656   H     0.87775   0.29484   0.79902   0.00000  Uiso   1.00
N657   N     0.71426   0.16668   0.75002   0.00000  Uiso   1.00
N658   N     0.95239   0.16665   0.75001   0.00000  Uiso   1.00
O659   O     0.79512   0.22775   0.75001   0.00000  Uiso   1.00
O660   O     0.87157   0.22774   0.75001   0.00000  Uiso   1.00
O661   O     0.77613   0.16666   0.82681   0.00000  Uiso   1.00
O662   O     0.85258   0.16665   0.82681   0.00000  Uiso   1.00
O663   O     0.79510   0.10559   0.75000   0.00000  Uiso   1.00
O664   O     0.87154   0.10558   0.75000   0.00000  Uiso   1.00
O665   O     0.81409   0.16668   0.67319   0.00000  Uiso   1.00
O666   O     0.89053   0.16667   0.67319   0.00000  Uiso   1.00
Zn667  Zn    0.78229   0.16667   0.75000   0.00000  Uiso   1.00
Zn668  Zn    0.88438   0.16666   0.75000   0.00000  Uiso   1.00
Cl669  Cl    0.78085   0.28775   0.67615   0.00000  Uiso   1.00
Cl670  Cl    0.97185   0.10550   0.67232   0.00000  Uiso   1.00
Cl671  Cl    0.69490   0.22789   0.82756   0.00000  Uiso   1.00
Cl672  Cl    0.73240   0.18690   0.59498   0.00000  Uiso   1.00
C673   C     0.16686   0.57996   0.74871   0.00000  Uiso   1.00
C674   C     0.14007   0.51919   0.99434   0.00000  Uiso   1.00
C675   C     0.15205   0.52579   0.93822   0.00000  Uiso   1.00
C676   C     0.17728   0.52241   0.51666   0.00000  Uiso   1.00
C677   C     0.22038   0.54312   0.98798   0.00000  Uiso   1.00
C678   C     0.22662   0.55859   0.93629   0.00000  Uiso   1.00
C679   C     0.19314   0.54934   0.91117   0.00000  Uiso   1.00
C680   C     0.17442   0.50210   0.56441   0.00000  Uiso   1.00
C681   C     0.24993   0.53119   0.56292   0.00000  Uiso   1.00
C682   C     0.12235   0.50876   0.91115   0.00000  Uiso   1.00
C683   C     0.19234   0.64499   0.77612   0.00000  Uiso   1.00
C684   C     0.14009   0.50256   0.85216   0.00000  Uiso   1.00
C685   C     0.19283   0.35447   0.77638   0.00000  Uiso   1.00
C686   C     0.16754   0.37599   0.74831   0.00000  Uiso   1.00
C687   C     0.14274   0.35547   0.71881   0.00000  Uiso   1.00
C688   C     0.14272   0.64587   0.71752   0.00000  Uiso   1.00
C689   C     0.16705   0.62416   0.74724   0.00000  Uiso   1.00
C690   C     0.31966   0.47317   0.71694   0.00000  Uiso   1.00
C691   C     0.03408   0.47313   0.71725   0.00000  Uiso   1.00
C692   C     0.01369   0.52677   0.78310   0.00000  Uiso   1.00
C693   C     0.29938   0.52691   0.78262   0.00000  Uiso   1.00
C694   C     0.16690   0.42006   0.74968   0.00000  Uiso   1.00
C695   C     0.19312   0.50062   0.64771   0.00000  Uiso   1.00
C696   C     0.25655   0.54737   0.51134   0.00000  Uiso   1.00
C697   C     0.20823   0.50896   0.58973   0.00000  Uiso   1.00
C698   C     0.07633   0.49500   0.94136   0.00000  Uiso   1.00
C699   C     0.06042   0.49743   0.99777   0.00000  Uiso   1.00
C700   C     0.09174   0.50942   0.52481   0.00000  Uiso   1.00
H701   H     0.27636   0.53712   0.58236   0.00000  Uiso   1.00
H702   H     0.21193   0.37074   0.79927   0.00000  Uiso   1.00
H703   H     0.12422   0.37282   0.69611   0.00000  Uiso   1.00
H704   H     0.06040   0.45182   0.69088   0.00000  Uiso   1.00
H705   H     0.27351   0.54874   0.80818   0.00000  Uiso   1.00
H706   H     0.25833   0.57600   0.91432   0.00000  Uiso   1.00
H707   H     0.28926   0.56384   0.99031   0.00000  Uiso   1.00
H708   H     0.14519   0.48117   0.58317   0.00000  Uiso   1.00
H709   H     0.05235   0.48303   0.92137   0.00000  Uiso   1.00
H710   H     0.02366   0.48969   0.52055   0.00000  Uiso   1.00
H711   H     0.19902   0.56147   0.87098   0.00000  Uiso   1.00
H712   H     0.21108   0.62817   0.79902   0.00000  Uiso   1.00
N713   N     0.04760   0.50001   0.75002   0.00000  Uiso   1.00
N714   N     0.28573   0.49998   0.75001   0.00000  Uiso   1.00
O715   O     0.12846   0.56108   0.75001   0.00000  Uiso   1.00
O716   O     0.20490   0.56107   0.75001   0.00000  Uiso   1.00
O717   O     0.10947   0.50000   0.82681   0.00000  Uiso   1.00
O718   O     0.18591   0.49999   0.82681   0.00000  Uiso   1.00
O719   O     0.12843   0.43893   0.75000   0.00000  Uiso   1.00
O720   O     0.20488   0.43892   0.75000   0.00000  Uiso   1.00
O721   O     0.14742   0.50001   0.67319   0.00000  Uiso   1.00
O722   O     0.22387   0.50000   0.67319   0.00000  Uiso   1.00
Zn723  Zn    0.11562   0.50001   0.75000   0.00000  Uiso   1.00
Zn724  Zn    0.21771   0.49999   0.75000   0.00000  Uiso   1.00
Cl725  Cl    0.11418   0.62109   0.67615   0.00000  Uiso   1.00
Cl726  Cl    0.30518   0.43884   0.67232   0.00000  Uiso   1.00
Cl727  Cl    0.02823   0.56122   0.82756   0.00000  Uiso   1.00
Cl728  Cl    0.06574   0.52023   0.59498   0.00000  Uiso   1.00
C729   C     0.50019   0.57996   0.74871   0.00000  Uiso   1.00
C730   C     0.47340   0.51919   0.99434   0.00000  Uiso   1.00
C731   C     0.48538   0.52579   0.93822   0.00000  Uiso   1.00
C732   C     0.51062   0.52241   0.51666   0.00000  Uiso   1.00
C733   C     0.55371   0.54312   0.98798   0.00000  Uiso   1.00
C734   C     0.55996   0.55859   0.93629   0.00000  Uiso   1.00
C735   C     0.52648   0.54934   0.91117   0.00000  Uiso   1.00
C736   C     0.50775   0.50210   0.56441   0.00000  Uiso   1.00
C737   C     0.58327   0.53119   0.56292   0.00000  Uiso   1.00
C738   C     0.45569   0.50876   0.91115   0.00000  Uiso   1.00
C739   C     0.52567   0.64499   0.77612   0.00000  Uiso   1.00
C740   C     0.47342   0.50256   0.85216   0.00000  Uiso   1.00
C741   C     0.52617   0.35447   0.77638   0.00000  Uiso   1.00
C742   C     0.50087   0.37599   0.74831   0.00000  Uiso   1.00
C743   C     0.47607   0.35547   0.71881   0.00000  Uiso   1.00
C744   C     0.47605   0.64587   0.71752   0.00000  Uiso   1.00
C745   C     0.50039   0.62416   0.74724   0.00000  Uiso   1.00
C746   C     0.65300   0.47317   0.71694   0.00000  Uiso   1.00
C747   C     0.36741   0.47313   0.71725   0.00000  Uiso   1.00
C748   C     0.34702   0.52677   0.78310   0.00000  Uiso   1.00
C749   C     0.63271   0.52691   0.78262   0.00000  Uiso   1.00
C750   C     0.50024   0.42006   0.74968   0.00000  Uiso   1.00
C751   C     0.52645   0.50062   0.64771   0.00000  Uiso   1.00
C752   C     0.58989   0.54737   0.51134   0.00000  Uiso   1.00
C753   C     0.54157   0.50896   0.58973   0.00000  Uiso   1.00
C754   C     0.40966   0.49500   0.94136   0.00000  Uiso   1.00
C755   C     0.39375   0.49743   0.99777   0.00000  Uiso   1.00
C756   C     0.42508   0.50942   0.52481   0.00000  Uiso   1.00
H757   H     0.60970   0.53712   0.58236   0.00000  Uiso   1.00
H758   H     0.54527   0.37074   0.79927   0.00000  Uiso   1.00
H759   H     0.45756   0.37282   0.69611   0.00000  Uiso   1.00
H760   H     0.39373   0.45182   0.69088   0.00000  Uiso   1.00
H761   H     0.60684   0.54874   0.80818   0.00000  Uiso   1.00
H762   H     0.59167   0.57600   0.91432   0.00000  Uiso   1.00
H763   H     0.62260   0.56384   0.99031   0.00000  Uiso   1.00
H764   H     0.47852   0.48117   0.58317   0.00000  Uiso   1.00
H765   H     0.38568   0.48303   0.92137   0.00000  Uiso   1.00
H766   H     0.35699   0.48969   0.52055   0.00000  Uiso   1.00
H767   H     0.53235   0.56147   0.87098   0.00000  Uiso   1.00
H768   H     0.54441   0.62817   0.79902   0.00000  Uiso   1.00
N769   N     0.38093   0.50001   0.75002   0.00000  Uiso   1.00
N770   N     0.61906   0.49998   0.75001   0.00000  Uiso   1.00
O771   O     0.46179   0.56108   0.75001   0.00000  Uiso   1.00
O772   O     0.53823   0.56107   0.75001   0.00000  Uiso   1.00
O773   O     0.44280   0.50000   0.82681   0.00000  Uiso   1.00
O774   O     0.51924   0.49999   0.82681   0.00000  Uiso   1.00
O775   O     0.46177   0.43893   0.75000   0.00000  Uiso   1.00
O776   O     0.53821   0.43892   0.75000   0.00000  Uiso   1.00
O777   O     0.48076   0.50001   0.67319   0.00000  Uiso   1.00
O778   O     0.55720   0.50000   0.67319   0.00000  Uiso   1.00
Zn779  Zn    0.44896   0.50001   0.75000   0.00000  Uiso   1.00
Zn780  Zn    0.55104   0.49999   0.75000   0.00000  Uiso   1.00
Cl781  Cl    0.44752   0.62109   0.67615   0.00000  Uiso   1.00
Cl782  Cl    0.63851   0.43884   0.67232   0.00000  Uiso   1.00
Cl783  Cl    0.36157   0.56122   0.82756   0.00000  Uiso   1.00
Cl784  Cl    0.39907   0.52023   0.59498   0.00000  Uiso   1.00
C785   C     0.83353   0.57996   0.74871   0.00000  Uiso   1.00
C786   C     0.80674   0.51919   0.99434   0.00000  Uiso   1.00
C787   C     0.81871   0.52579   0.93822   0.00000  Uiso   1.00
C788   C     0.84395   0.52241   0.51666   0.00000  Uiso   1.00
C789   C     0.88705   0.54312   0.98798   0.00000  Uiso   1.00
C790   C     0.89329   0.55859   0.93629   0.00000  Uiso   1.00
C791   C     0.85981   0.54934   0.91117   0.00000  Uiso   1.00
C792   C     0.84109   0.50210   0.56441   0.00000  Uiso   1.00
C793   C     0.91660   0.53119   0.56292   0.00000  Uiso   1.00
C794   C     0.78902   0.50876   0.91115   0.00000  Uiso   1.00
C795   C     0.85901   0.64499   0.77612   0.00000  Uiso   1.00
C796   C     0.80675   0.50256   0.85216   0.00000  Uiso   1.00
C797   C     0.85950   0.35447   0.77638   0.00000  Uiso   1.00
C798   C     0.83420   0.37599   0.74831   0.00000  Uiso   1.00
C799   C     0.80940   0.35547   0.71881   0.00000  Uiso   1.00
C800   C     0.80938   0.64587   0.71752   0.00000  Uiso   1.00
C801   C     0.83372   0.62416   0.74724   0.00000  Uiso   1.00
C802   C     0.98633   0.47317   0.71694   0.00000  Uiso   1.00
C803   C     0.70074   0.47313   0.71725   0.00000  Uiso   1.00
C804   C     0.68035   0.52677   0.78310   0.00000  Uiso   1.00
C805   C     0.96605   0.52691   0.78262   0.00000  Uiso   1.00
C806   C     0.83357   0.42006   0.74968   0.00000  Uiso   1.00
C807   C     0.85979   0.50062   0.64771   0.00000  Uiso   1.00
C808   C     0.92322   0.54737   0.51134   0.00000  Uiso   1.00
C809   C     0.87490   0.50896   0.58973   0.00000  Uiso   1.00
C810   C     0.74300   0.49500   0.94136   0.00000  Uiso   1.00
C811   C     0.72709   0.49743   0.99777   0.00000  Uiso   1.00
C812   C     0.75841   0.50942   0.52481   0.00000  Uiso   1.00
H813   H     0.94303   0.53712   0.58236   0.00000  Uiso   1.00
H814   H     0.87860   0.37074   0.79927   0.00000  Uiso   1.00
H815   H     0.79089   0.37282   0.69611   0.00000  Uiso   1.00
H816   H     0.72706   0.45182   0.69088   0.00000  Uiso   1.00
H817   H     0.94017   0.54874   0.80818   0.00000  Uiso   1.00
H818   H     0.92500   0.57600   0.91432   0.00000  Uiso   1.00
H819   H     0.95593   0.56384   0.99031   0.00000  Uiso   1.00
H820   H     0.81185   0.48117   0.58317   0.00000  Uiso   1.00
H821   H     0.71902   0.48303   0.92137   0.00000  Uiso   1.00
H822   H     0.69033   0.48969   0.52055   0.00000  Uiso   1.00
H823   H     0.86569   0.56147   0.87098   0.00000  Uiso   1.00
H824   H     0.87775   0.62817   0.79902   0.00000  Uiso   1.00
N825   N     0.71426   0.50001   0.75002   0.00000  Uiso   1.00
N826   N     0.95239   0.49998   0.75001   0.00000  Uiso   1.00
O827   O     0.79512   0.56108   0.75001   0.00000  Uiso   1.00
O828   O     0.87157   0.56107   0.75001   0.00000  Uiso   1.00
O829   O     0.77613   0.50000   0.82681   0.00000  Uiso   1.00
O830   O     0.85258   0.49999   0.82681   0.00000  Uiso   1.00
O831   O     0.79510   0.43893   0.75000   0.00000  Uiso   1.00
O832   O     0.87154   0.43892   0.75000   0.00000  Uiso   1.00
O833   O     0.81409   0.50001   0.67319   0.00000  Uiso   1.00
O834   O     0.89053   0.50000   0.67319   0.00000  Uiso   1.00
Zn835  Zn    0.78229   0.50001   0.75000   0.00000  Uiso   1.00
Zn836  Zn    0.88438   0.49999   0.75000   0.00000  Uiso   1.00
Cl837  Cl    0.78085   0.62109   0.67615   0.00000  Uiso   1.00
Cl838  Cl    0.97185   0.43884   0.67232   0.00000  Uiso   1.00
Cl839  Cl    0.69490   0.56122   0.82756   0.00000  Uiso   1.00
Cl840  Cl    0.73240   0.52023   0.59498   0.00000  Uiso   1.00
C841   C     0.16686   0.91330   0.74871   0.00000  Uiso   1.00
C842   C     0.14007   0.85252   0.99434   0.00000  Uiso   1.00
C843   C     0.15205   0.85913   0.93822   0.00000  Uiso   1.00
C844   C     0.17728   0.85575   0.51666   0.00000  Uiso   1.00
C845   C     0.22038   0.87645   0.98798   0.00000  Uiso   1.00
C846   C     0.22662   0.89193   0.93629   0.00000  Uiso   1.00
C847   C     0.19314   0.88267   0.91117   0.00000  Uiso   1.00
C848   C     0.17442   0.83543   0.56441   0.00000  Uiso   1.00
C849   C     0.24993   0.86452   0.56292   0.00000  Uiso   1.00
C850   C     0.12235   0.84209   0.91115   0.00000  Uiso   1.00
C851   C     0.19234   0.97833   0.77612   0.00000  Uiso   1.00
C852   C     0.14009   0.83590   0.85216   0.00000  Uiso   1.00
C853   C     0.19283   0.68781   0.77638   0.00000  Uiso   1.00
C854   C     0.16754   0.70933   0.74831   0.00000  Uiso   1.00
C855   C     0.14274   0.68880   0.71881   0.00000  Uiso   1.00
C856   C     0.14272   0.97920   0.71752   0.00000  Uiso   1.00
C857   C     0.16705   0.95749   0.74724   0.00000  Uiso   1.00
C858   C     0.31966   0.80650   0.71694   0.00000  Uiso   1.00
C859   C     0.03408   0.80646   0.71725   0.00000  Uiso   1.00
C860   C     0.01369   0.86010   0.78310   0.00000  Uiso   1.00
C861   C     0.29938   0.86024   0.78262   0.00000  Uiso   1.00
C862   C     0.16690   0.75339   0.74968   0.00000  Uiso   1.00
C863   C     0.19312   0.83395   0.64771   0.00000  Uiso   1.00
C864   C     0.25655   0.88070   0.51134   0.00000  Uiso   1.00
C865   C     0.20823   0.84229   0.58973   0.00000  Uiso   1.00
C866   C     0.07633   0.82834   0.94136   0.00000  Uiso   1.00
C867   C     0.06042   0.83077   0.99777   0.00000  Uiso   1.00
C868   C     0.09174   0.84275   0.52481   0.00000  Uiso   1.00
H869   H     0.27636   0.87045   0.58236   0.00000  Uiso   1.00
H870   H     0.21193   0.70408   0.79927   0.00000  Uiso   1.00
H871   H     0.12422   0.70615   0.69611   0.00000  Uiso   1.00
H872   H     0.06040   0.78516   0.69088   0.00000  Uiso   1.00
H873   H     0.27351   0.88207   0.80818   0.00000  Uiso   1.00
H874   H     0.25833   0.90933   0.91432   0.00000  Uiso   1.00
H875   H     0.28926   0.89718   0.99031   0.00000  Uiso   1.00
H876   H     0.14519   0.81450   0.58317   0.00000  Uiso   1.00
H877   H     0.05235   0.81636   0.92137   0.00000  Uiso   1.00
H878   H     0.02366   0.82303   0.52055   0.00000  Uiso   1.00
H879   H     0.19902   0.89481   0.87098   0.00000  Uiso   1.00
H880   H     0.21108   0.96150   0.79902   0.00000  Uiso   1.00
N881   N     0.04760   0.83334   0.75002   0.00000  Uiso   1.00
N882   N     0.28573   0.83331   0.75001   0.00000  Uiso   1.00
O883   O     0.12846   0.89442   0.75001   0.00000  Uiso   1.00
O884   O     0.20490   0.89441   0.75001   0.00000  Uiso   1.00
O885   O     0.10947   0.83333   0.82681   0.00000  Uiso   1.00
O886   O     0.18591   0.83332   0.82681   0.00000  Uiso   1.00
O887   O     0.12843   0.77226   0.75000   0.00000  Uiso   1.00
O888   O     0.20488   0.77225   0.75000   0.00000  Uiso   1.00
O889   O     0.14742   0.83335   0.67319   0.00000  Uiso   1.00
O890   O     0.22387   0.83334   0.67319   0.00000  Uiso   1.00
Zn891  Zn    0.11562   0.83334   0.75000   0.00000  Uiso   1.00
Zn892  Zn    0.21771   0.83333   0.75000   0.00000  Uiso   1.00
Cl893  Cl    0.11418   0.95442   0.67615   0.00000  Uiso   1.00
Cl894  Cl    0.30518   0.77217   0.67232   0.00000  Uiso   1.00
Cl895  Cl    0.02823   0.89455   0.82756   0.00000  Uiso   1.00
Cl896  Cl    0.06574   0.85357   0.59498   0.00000  Uiso   1.00
C897   C     0.50019   0.91330   0.74871   0.00000  Uiso   1.00
C898   C     0.47340   0.85252   0.99434   0.00000  Uiso   1.00
C899   C     0.48538   0.85913   0.93822   0.00000  Uiso   1.00
C900   C     0.51062   0.85575   0.51666   0.00000  Uiso   1.00
C901   C     0.55371   0.87645   0.98798   0.00000  Uiso   1.00
C902   C     0.55996   0.89193   0.93629   0.00000  Uiso   1.00
C903   C     0.52648   0.88267   0.91117   0.00000  Uiso   1.00
C904   C     0.50775   0.83543   0.56441   0.00000  Uiso   1.00
C905   C     0.58327   0.86452   0.56292   0.00000  Uiso   1.00
C906   C     0.45569   0.84209   0.91115   0.00000  Uiso   1.00
C907   C     0.52567   0.97833   0.77612   0.00000  Uiso   1.00
C908   C     0.47342   0.83590   0.85216   0.00000  Uiso   1.00
C909   C     0.52617   0.68781   0.77638   0.00000  Uiso   1.00
C910   C     0.50087   0.70933   0.74831   0.00000  Uiso   1.00
C911   C     0.47607   0.68880   0.71881   0.00000  Uiso   1.00
C912   C     0.47605   0.97920   0.71752   0.00000  Uiso   1.00
C913   C     0.50039   0.95749   0.74724   0.00000  Uiso   1.00
C914   C     0.65300   0.80650   0.71694   0.00000  Uiso   1.00
C915   C     0.36741   0.80646   0.71725   0.00000  Uiso   1.00
C916   C     0.34702   0.86010   0.78310   0.00000  Uiso   1.00
C917   C     0.63271   0.86024   0.78262   0.00000  Uiso   1.00
C918   C     0.50024   0.75339   0.74968   0.00000  Uiso   1.00
C919   C     0.52645   0.83395   0.64771   0.00000  Uiso   1.00
C920   C     0.58989   0.88070   0.51134   0.00000  Uiso   1.00
C921   C     0.54157   0.84229   0.58973   0.00000  Uiso   1.00
C922   C     0.40966   0.82834   0.94136   0.00000  Uiso   1.00
C923   C     0.39375   0.83077   0.99777   0.00000  Uiso   1.00
C924   C     0.42508   0.84275   0.52481   0.00000  Uiso   1.00
H925   H     0.60970   0.87045   0.58236   0.00000  Uiso   1.00
H926   H     0.54527   0.70408   0.79927   0.00000  Uiso   1.00
H927   H     0.45756   0.70615   0.69611   0.00000  Uiso   1.00
H928   H     0.39373   0.78516   0.69088   0.00000  Uiso   1.00
H929   H     0.60684   0.88207   0.80818   0.00000  Uiso   1.00
H930   H     0.59167   0.90933   0.91432   0.00000  Uiso   1.00
H931   H     0.62260   0.89718   0.99031   0.00000  Uiso   1.00
H932   H     0.47852   0.81450   0.58317   0.00000  Uiso   1.00
H933   H     0.38568   0.81636   0.92137   0.00000  Uiso   1.00
H934   H     0.35699   0.82303   0.52055   0.00000  Uiso   1.00
H935   H     0.53235   0.89481   0.87098   0.00000  Uiso   1.00
H936   H     0.54441   0.96150   0.79902   0.00000  Uiso   1.00
N937   N     0.38093   0.83334   0.75002   0.00000  Uiso   1.00
N938   N     0.61906   0.83331   0.75001   0.00000  Uiso   1.00
O939   O     0.46179   0.89442   0.75001   0.00000  Uiso   1.00
O940   O     0.53823   0.89441   0.75001   0.00000  Uiso   1.00
O941   O     0.44280   0.83333   0.82681   0.00000  Uiso   1.00
O942   O     0.51924   0.83332   0.82681   0.00000  Uiso   1.00
O943   O     0.46177   0.77226   0.75000   0.00000  Uiso   1.00
O944   O     0.53821   0.77225   0.75000   0.00000  Uiso   1.00
O945   O     0.48076   0.83335   0.67319   0.00000  Uiso   1.00
O946   O     0.55720   0.83334   0.67319   0.00000  Uiso   1.00
Zn947  Zn    0.44896   0.83334   0.75000   0.00000  Uiso   1.00
Zn948  Zn    0.55104   0.83333   0.75000   0.00000  Uiso   1.00
Cl949  Cl    0.44752   0.95442   0.67615   0.00000  Uiso   1.00
Cl950  Cl    0.63851   0.77217   0.67232   0.00000  Uiso   1.00
Cl951  Cl    0.36157   0.89455   0.82756   0.00000  Uiso   1.00
Cl952  Cl    0.39907   0.85357   0.59498   0.00000  Uiso   1.00
C953   C     0.83353   0.91330   0.74871   0.00000  Uiso   1.00
C954   C     0.80674   0.85252   0.99434   0.00000  Uiso   1.00
C955   C     0.81871   0.85913   0.93822   0.00000  Uiso   1.00
C956   C     0.84395   0.85575   0.51666   0.00000  Uiso   1.00
C957   C     0.88705   0.87645   0.98798   0.00000  Uiso   1.00
C958   C     0.89329   0.89193   0.93629   0.00000  Uiso   1.00
C959   C     0.85981   0.88267   0.91117   0.00000  Uiso   1.00
C960   C     0.84109   0.83543   0.56441   0.00000  Uiso   1.00
C961   C     0.91660   0.86452   0.56292   0.00000  Uiso   1.00
C962   C     0.78902   0.84209   0.91115   0.00000  Uiso   1.00
C963   C     0.85901   0.97833   0.77612   0.00000  Uiso   1.00
C964   C     0.80675   0.83590   0.85216   0.00000  Uiso   1.00
C965   C     0.85950   0.68781   0.77638   0.00000  Uiso   1.00
C966   C     0.83420   0.70933   0.74831   0.00000  Uiso   1.00
C967   C     0.80940   0.68880   0.71881   0.00000  Uiso   1.00
C968   C     0.80938   0.97920   0.71752   0.00000  Uiso   1.00
C969   C     0.83372   0.95749   0.74724   0.00000  Uiso   1.00
C970   C     0.98633   0.80650   0.71694   0.00000  Uiso   1.00
C971   C     0.70074   0.80646   0.71725   0.00000  Uiso   1.00
C972   C     0.68035   0.86010   0.78310   0.00000  Uiso   1.00
C973   C     0.96605   0.86024   0.78262   0.00000  Uiso   1.00
C974   C     0.83357   0.75339   0.74968   0.00000  Uiso   1.00
C975   C     0.85979   0.83395   0.64771   0.00000  Uiso   1.00
C976   C     0.92322   0.88070   0.51134   0.00000  Uiso   1.00
C977   C     0.87490   0.84229   0.58973   0.00000  Uiso   1.00
C978   C     0.74300   0.82834   0.94136   0.00000  Uiso   1.00
C979   C     0.72709   0.83077   0.99777   0.00000  Uiso   1.00
C980   C     0.75841   0.84275   0.52481   0.00000  Uiso   1.00
H981   H     0.94303   0.87045   0.58236   0.00000  Uiso   1.00
H982   H     0.87860   0.70408   0.79927   0.00000  Uiso   1.00
H983   H     0.79089   0.70615   0.69611   0.00000  Uiso   1.00
H984   H     0.72706   0.78516   0.69088   0.00000  Uiso   1.00
H985   H     0.94017   0.88207   0.80818   0.00000  Uiso   1.00
H986   H     0.92500   0.90933   0.91432   0.00000  Uiso   1.00
H987   H     0.95593   0.89718   0.99031   0.00000  Uiso   1.00
H988   H     0.81185   0.81450   0.58317   0.00000  Uiso   1.00
H989   H     0.71902   0.81636   0.92137   0.00000  Uiso   1.00
H990   H     0.69033   0.82303   0.52055   0.00000  Uiso   1.00
H991   H     0.86569   0.89481   0.87098   0.00000  Uiso   1.00
H992   H     0.87775   0.96150   0.79902   0.00000  Uiso   1.00
N993   N     0.71426   0.83334   0.75002   0.00000  Uiso   1.00
N994   N     0.95239   0.83331   0.75001   0.00000  Uiso   1.00
O995   O     0.79512   0.89442   0.75001   0.00000  Uiso   1.00
O996   O     0.87157   0.89441   0.75001   0.00000  Uiso   1.00
O997   O     0.77613   0.83333   0.82681   0.00000  Uiso   1.00
O998   O     0.85258   0.83332   0.82681   0.00000  Uiso   1.00
O999   O     0.79510   0.77226   0.75000   0.00000  Uiso   1.00
O1000  O     0.87154   0.77225   0.75000   0.00000  Uiso   1.00
O1001  O     0.81409   0.83335   0.67319   0.00000  Uiso   1.00
O1002  O     0.89053   0.83334   0.67319   0.00000  Uiso   1.00
Zn1003 Zn    0.78229   0.83334   0.75000   0.00000  Uiso   1.00
Zn1004 Zn    0.88438   0.83333   0.75000   0.00000  Uiso   1.00
Cl1005 Cl    0.78085   0.95442   0.67615   0.00000  Uiso   1.00
Cl1006 Cl    0.97185   0.77217   0.67232   0.00000  Uiso   1.00
Cl1007 Cl    0.69490   0.89455   0.82756   0.00000  Uiso   1.00
Cl1008 Cl    0.73240   0.85357   0.59498   0.00000  Uiso   1.00
loop_
_geom_bond_atom_site_label_1
_geom_bond_atom_site_label_2
_geom_bond_distance
_geom_bond_site_symmetry_2
_ccdc_geom_bond_type
C1     O44     1.284   .     A
C1     C17     1.415   .     S
C1     O43     1.283   .     A
C2     C3      1.405   .     A
C2     C508    1.413   .     S
C2     C532    1.424   .     S
C3     C10     1.410   .     A
C3     C7      1.412   .     A
C4     C8      1.387   .     A
C4     C506    1.413   1_554 S
C4     C509    1.418   1_554 S
C5     C6      1.394   .     A
C5     C508    1.418   .     S
C5     C528    1.406   .     S
C6     C7      1.392   .     A
C6     H34     1.083   .     S
C7     H39     1.080   .     S
C8     C25     1.390   .     A
C8     H36     1.081   .     S
C9     H29     1.083   .     S
C9     C25     1.401   .     A
C9     C24     1.398   .     A
C10    C26     1.403   .     A
C10    C12     1.463   .     S
C11    H40     1.084   .     S
C11    C17     1.398   .     A
C11    C181    1.370   .     S
C12    O46     1.297   .     A
C12    O45     1.292   .     A
C13    C14     1.392   .     A
C13    H30     1.084   .     S
C13    C347    1.370   1_545 S
C14    C22     1.410   .     S
C14    C15     1.394   .     A
C15    H31     1.085   .     S
C15    C352    1.374   1_545 S
C16    C17     1.406   .     A
C16    Cl53    1.766   .     S
C16    C183    1.374   .     S
C18    N42     1.373   .     A
C18    Cl54    1.753   .     S
C18    C75     1.416   .     S
C19    H32     1.082   .     S
C19    N41     1.363   .     A
C19    C130    1.416   1_455 S
C20    Cl55    1.753   .     S
C20    N41     1.372   .     A
C20    C133    1.415   1_455 S
C21    H33     1.078   .     S
C21    N42     1.363   .     A
C21    C76     1.415   .     S
C22    O48     1.283   .     A
C22    O47     1.282   .     A
C23    C25     1.455   .     S
C23    O49     1.293   .     A
C23    O50     1.295   .     A
C24    C509    1.406   1_554 S
C24    H539    1.084   1_554 S
C26    H37     1.083   .     S
C26    C27     1.389   .     A
C27    C532    1.395   .     S
C27    H542    1.083   .     S
C28    Cl56    1.764   .     S
C28    C506    1.424   1_554 S
C28    C531    1.395   1_554 S
H35    C528    1.084   .     S
H38    C531    1.083   1_554 S
N41    Zn51    2.014   .     S
N42    Zn52    2.014   .     S
O43    Zn51    1.994   .     S
O44    Zn52    1.988   .     S
O45    Zn51    1.952   .     S
O46    Zn52    1.909   .     S
O47    Zn51    1.988   .     S
O48    Zn52    1.994   .     S
O49    Zn51    1.909   .     S
O50    Zn52    1.952   .     S
C57    O100    1.284   .     A
C57    C73     1.415   .     S
C57    O99     1.283   .     A
C58    C59     1.405   .     A
C58    C564    1.413   .     S
C58    C588    1.424   .     S
C59    C66     1.410   .     A
C59    C63     1.412   .     A
C60    C64     1.387   .     A
C60    C562    1.413   1_554 S
C60    C565    1.418   1_554 S
C61    C62     1.394   .     A
C61    C564    1.418   .     S
C61    C584    1.406   .     S
C62    C63     1.392   .     A
C62    H90     1.083   .     S
C63    H95     1.080   .     S
C64    C81     1.390   .     A
C64    H92     1.081   .     S
C65    H85     1.083   .     S
C65    C81     1.401   .     A
C65    C80     1.398   .     A
C66    C82     1.403   .     A
C66    C68     1.463   .     S
C67    H96     1.084   .     S
C67    C73     1.398   .     A
C67    C237    1.370   .     S
C68    O102    1.297   .     A
C68    O101    1.292   .     A
C69    C70     1.392   .     A
C69    H86     1.084   .     S
C69    C403    1.370   1_545 S
C70    C78     1.410   .     S
C70    C71     1.394   .     A
C71    H87     1.085   .     S
C71    C408    1.374   1_545 S
C72    C73     1.406   .     A
C72    Cl109   1.766   .     S
C72    C239    1.374   .     S
C74    N98     1.373   .     A
C74    Cl110   1.753   .     S
C74    C131    1.416   .     S
C75    H88     1.082   .     S
C75    N97     1.363   .     A
C76    Cl111   1.753   .     S
C76    N97     1.372   .     A
C77    H89     1.078   .     S
C77    N98     1.363   .     A
C77    C132    1.415   .     S
C78    O104    1.283   .     A
C78    O103    1.282   .     A
C79    C81     1.455   .     S
C79    O105    1.293   .     A
C79    O106    1.295   .     A
C80    C565    1.406   1_554 S
C80    H595    1.084   1_554 S
C82    H93     1.083   .     S
C82    C83     1.389   .     A
C83    C588    1.395   .     S
C83    H598    1.083   .     S
C84    Cl112   1.764   .     S
C84    C562    1.424   1_554 S
C84    C587    1.395   1_554 S
H91    C584    1.084   .     S
H94    C587    1.083   1_554 S
N97    Zn107   2.014   .     S
N98    Zn108   2.014   .     S
O99    Zn107   1.994   .     S
O100   Zn108   1.988   .     S
O101   Zn107   1.952   .     S
O102   Zn108   1.909   .     S
O103   Zn107   1.988   .     S
O104   Zn108   1.994   .     S
O105   Zn107   1.909   .     S
O106   Zn108   1.952   .     S
C113   O156    1.284   .     A
C113   C129    1.415   .     S
C113   O155    1.283   .     A
C114   C115    1.405   .     A
C114   C620    1.413   .     S
C114   C644    1.424   .     S
C115   C122    1.410   .     A
C115   C119    1.412   .     A
C116   C120    1.387   .     A
C116   C618    1.413   1_554 S
C116   C621    1.418   1_554 S
C117   C118    1.394   .     A
C117   C620    1.418   .     S
C117   C640    1.406   .     S
C118   C119    1.392   .     A
C118   H146    1.083   .     S
C119   H151    1.080   .     S
C120   C137    1.390   .     A
C120   H148    1.081   .     S
C121   H141    1.083   .     S
C121   C137    1.401   .     A
C121   C136    1.398   .     A
C122   C138    1.403   .     A
C122   C124    1.463   .     S
C123   H152    1.084   .     S
C123   C129    1.398   .     A
C123   C293    1.370   .     S
C124   O158    1.297   .     A
C124   O157    1.292   .     A
C125   C126    1.392   .     A
C125   H142    1.084   .     S
C125   C459    1.370   1_545 S
C126   C134    1.410   .     S
C126   C127    1.394   .     A
C127   H143    1.085   .     S
C127   C464    1.374   1_545 S
C128   C129    1.406   .     A
C128   Cl165   1.766   .     S
C128   C295    1.374   .     S
C130   N154    1.373   .     A
C130   Cl166   1.753   .     S
C130   C19     1.416   1_655 S
C131   H144    1.082   .     S
C131   N153    1.363   .     A
C132   Cl167   1.753   .     S
C132   N153    1.372   .     A
C133   H145    1.078   .     S
C133   N154    1.363   .     A
C133   C20     1.415   1_655 S
C134   O160    1.283   .     A
C134   O159    1.282   .     A
C135   C137    1.455   .     S
C135   O161    1.293   .     A
C135   O162    1.295   .     A
C136   C621    1.406   1_554 S
C136   H651    1.084   1_554 S
C138   H149    1.083   .     S
C138   C139    1.389   .     A
C139   C644    1.395   .     S
C139   H654    1.083   .     S
C140   Cl168   1.764   .     S
C140   C618    1.424   1_554 S
C140   C643    1.395   1_554 S
H147   C640    1.084   .     S
H150   C643    1.083   1_554 S
N153   Zn163   2.014   .     S
N154   Zn164   2.014   .     S
O155   Zn163   1.994   .     S
O156   Zn164   1.988   .     S
O157   Zn163   1.952   .     S
O158   Zn164   1.909   .     S
O159   Zn163   1.988   .     S
O160   Zn164   1.994   .     S
O161   Zn163   1.909   .     S
O162   Zn164   1.952   .     S
C169   O212    1.284   .     A
C169   C185    1.415   .     S
C169   O211    1.283   .     A
C170   C171    1.405   .     A
C170   C676    1.413   .     S
C170   C700    1.424   .     S
C171   C178    1.410   .     A
C171   C175    1.412   .     A
C172   C176    1.387   .     A
C172   C674    1.413   1_554 S
C172   C677    1.418   1_554 S
C173   C174    1.394   .     A
C173   C676    1.418   .     S
C173   C696    1.406   .     S
C174   C175    1.392   .     A
C174   H202    1.083   .     S
C175   H207    1.080   .     S
C176   C193    1.390   .     A
C176   H204    1.081   .     S
C177   H197    1.083   .     S
C177   C193    1.401   .     A
C177   C192    1.398   .     A
C178   C194    1.403   .     A
C178   C180    1.463   .     S
C179   H208    1.084   .     S
C179   C185    1.398   .     A
C179   C349    1.370   .     S
C180   O214    1.297   .     A
C180   O213    1.292   .     A
C181   C182    1.392   .     A
C181   H198    1.084   .     S
C182   C190    1.410   .     S
C182   C183    1.394   .     A
C183   H199    1.085   .     S
C184   C185    1.406   .     A
C184   Cl221   1.766   .     S
C184   C351    1.374   .     S
C186   N210    1.373   .     A
C186   Cl222   1.753   .     S
C186   C243    1.416   .     S
C187   H200    1.082   .     S
C187   N209    1.363   .     A
C187   C298    1.416   1_455 S
C188   Cl223   1.753   .     S
C188   N209    1.372   .     A
C188   C301    1.415   1_455 S
C189   H201    1.078   .     S
C189   N210    1.363   .     A
C189   C244    1.415   .     S
C190   O216    1.283   .     A
C190   O215    1.282   .     A
C191   C193    1.455   .     S
C191   O217    1.293   .     A
C191   O218    1.295   .     A
C192   C677    1.406   1_554 S
C192   H707    1.084   1_554 S
C194   H205    1.083   .     S
C194   C195    1.389   .     A
C195   C700    1.395   .     S
C195   H710    1.083   .     S
C196   Cl224   1.764   .     S
C196   C674    1.424   1_554 S
C196   C699    1.395   1_554 S
H203   C696    1.084   .     S
H206   C699    1.083   1_554 S
N209   Zn219   2.014   .     S
N210   Zn220   2.014   .     S
O211   Zn219   1.994   .     S
O212   Zn220   1.988   .     S
O213   Zn219   1.952   .     S
O214   Zn220   1.909   .     S
O215   Zn219   1.988   .     S
O216   Zn220   1.994   .     S
O217   Zn219   1.909   .     S
O218   Zn220   1.952   .     S
C225   O268    1.284   .     A
C225   C241    1.415   .     S
C225   O267    1.283   .     A
C226   C227    1.405   .     A
C226   C732    1.413   .     S
C226   C756    1.424   .     S
C227   C234    1.410   .     A
C227   C231    1.412   .     A
C228   C232    1.387   .     A
C228   C730    1.413   1_554 S
C228   C733    1.418   1_554 S
C229   C230    1.394   .     A
C229   C732    1.418   .     S
C229   C752    1.406   .     S
C230   C231    1.392   .     A
C230   H258    1.083   .     S
C231   H263    1.080   .     S
C232   C249    1.390   .     A
C232   H260    1.081   .     S
C233   H253    1.083   .     S
C233   C249    1.401   .     A
C233   C248    1.398   .     A
C234   C250    1.403   .     A
C234   C236    1.463   .     S
C235   H264    1.084   .     S
C235   C241    1.398   .     A
C235   C405    1.370   .     S
C236   O270    1.297   .     A
C236   O269    1.292   .     A
C237   C238    1.392   .     A
C237   H254    1.084   .     S
C238   C246    1.410   .     S
C238   C239    1.394   .     A
C239   H255    1.085   .     S
C240   C241    1.406   .     A
C240   Cl277   1.766   .     S
C240   C407    1.374   .     S
C242   N266    1.373   .     A
C242   Cl278   1.753   .     S
C242   C299    1.416   .     S
C243   H256    1.082   .     S
C243   N265    1.363   .     A
C244   Cl279   1.753   .     S
C244   N265    1.372   .     A
C245   H257    1.078   .     S
C245   N266    1.363   .     A
C245   C300    1.415   .     S
C246   O272    1.283   .     A
C246   O271    1.282   .     A
C247   C249    1.455   .     S
C247   O273    1.293   .     A
C247   O274    1.295   .     A
C248   C733    1.406   1_554 S
C248   H763    1.084   1_554 S
C250   H261    1.083   .     S
C250   C251    1.389   .     A
C251   C756    1.395   .     S
C251   H766    1.083   .     S
C252   Cl280   1.764   .     S
C252   C730    1.424   1_554 S
C252   C755    1.395   1_554 S
H259   C752    1.084   .     S
H262   C755    1.083   1_554 S
N265   Zn275   2.014   .     S
N266   Zn276   2.014   .     S
O267   Zn275   1.994   .     S
O268   Zn276   1.988   .     S
O269   Zn275   1.952   .     S
O270   Zn276   1.909   .     S
O271   Zn275   1.988   .     S
O272   Zn276   1.994   .     S
O273   Zn275   1.909   .     S
O274   Zn276   1.952   .     S
C281   O324    1.284   .     A
C281   C297    1.415   .     S
C281   O323    1.283   .     A
C282   C283    1.405   .     A
C282   C788    1.413   .     S
C282   C812    1.424   .     S
C283   C290    1.410   .     A
C283   C287    1.412   .     A
C284   C288    1.387   .     A
C284   C786    1.413   1_554 S
C284   C789    1.418   1_554 S
C285   C286    1.394   .     A
C285   C788    1.418   .     S
C285   C808    1.406   .     S
C286   C287    1.392   .     A
C286   H314    1.083   .     S
C287   H319    1.080   .     S
C288   C305    1.390   .     A
C288   H316    1.081   .     S
C289   H309    1.083   .     S
C289   C305    1.401   .     A
C289   C304    1.398   .     A
C290   C306    1.403   .     A
C290   C292    1.463   .     S
C291   H320    1.084   .     S
C291   C297    1.398   .     A
C291   C461    1.370   .     S
C292   O326    1.297   .     A
C292   O325    1.292   .     A
C293   C294    1.392   .     A
C293   H310    1.084   .     S
C294   C302    1.410   .     S
C294   C295    1.394   .     A
C295   H311    1.085   .     S
C296   C297    1.406   .     A
C296   Cl333   1.766   .     S
C296   C463    1.374   .     S
C298   N322    1.373   .     A
C298   Cl334   1.753   .     S
C298   C187    1.416   1_655 S
C299   H312    1.082   .     S
C299   N321    1.363   .     A
C300   Cl335   1.753   .     S
C300   N321    1.372   .     A
C301   H313    1.078   .     S
C301   N322    1.363   .     A
C301   C188    1.415   1_655 S
C302   O328    1.283   .     A
C302   O327    1.282   .     A
C303   C305    1.455   .     S
C303   O329    1.293   .     A
C303   O330    1.295   .     A
C304   C789    1.406   1_554 S
C304   H819    1.084   1_554 S
C306   H317    1.083   .     S
C306   C307    1.389   .     A
C307   C812    1.395   .     S
C307   H822    1.083   .     S
C308   Cl336   1.764   .     S
C308   C786    1.424   1_554 S
C308   C811    1.395   1_554 S
H315   C808    1.084   .     S
H318   C811    1.083   1_554 S
N321   Zn331   2.014   .     S
N322   Zn332   2.014   .     S
O323   Zn331   1.994   .     S
O324   Zn332   1.988   .     S
O325   Zn331   1.952   .     S
O326   Zn332   1.909   .     S
O327   Zn331   1.988   .     S
O328   Zn332   1.994   .     S
O329   Zn331   1.909   .     S
O330   Zn332   1.952   .     S
C337   O380    1.284   .     A
C337   C353    1.415   .     S
C337   O379    1.283   .     A
C338   C339    1.405   .     A
C338   C844    1.413   .     S
C338   C868    1.424   .     S
C339   C346    1.410   .     A
C339   C343    1.412   .     A
C340   C344    1.387   .     A
C340   C842    1.413   1_554 S
C340   C845    1.418   1_554 S
C341   C342    1.394   .     A
C341   C844    1.418   .     S
C341   C864    1.406   .     S
C342   C343    1.392   .     A
C342   H370    1.083   .     S
C343   H375    1.080   .     S
C344   C361    1.390   .     A
C344   H372    1.081   .     S
C345   H365    1.083   .     S
C345   C361    1.401   .     A
C345   C360    1.398   .     A
C346   C362    1.403   .     A
C346   C348    1.463   .     S
C347   H376    1.084   .     S
C347   C353    1.398   .     A
C347   C13     1.370   1_565 S
C348   O382    1.297   .     A
C348   O381    1.292   .     A
C349   C350    1.392   .     A
C349   H366    1.084   .     S
C350   C358    1.410   .     S
C350   C351    1.394   .     A
C351   H367    1.085   .     S
C352   C353    1.406   .     A
C352   Cl389   1.766   .     S
C352   C15     1.374   1_565 S
C354   N378    1.373   .     A
C354   Cl390   1.753   .     S
C354   C411    1.416   .     S
C355   H368    1.082   .     S
C355   N377    1.363   .     A
C355   C466    1.416   1_455 S
C356   Cl391   1.753   .     S
C356   N377    1.372   .     A
C356   C469    1.415   1_455 S
C357   H369    1.078   .     S
C357   N378    1.363   .     A
C357   C412    1.415   .     S
C358   O384    1.283   .     A
C358   O383    1.282   .     A
C359   C361    1.455   .     S
C359   O385    1.293   .     A
C359   O386    1.295   .     A
C360   C845    1.406   1_554 S
C360   H875    1.084   1_554 S
C362   H373    1.083   .     S
C362   C363    1.389   .     A
C363   C868    1.395   .     S
C363   H878    1.083   .     S
C364   Cl392   1.764   .     S
C364   C842    1.424   1_554 S
C364   C867    1.395   1_554 S
H371   C864    1.084   .     S
H374   C867    1.083   1_554 S
N377   Zn387   2.014   .     S
N378   Zn388   2.014   .     S
O379   Zn387   1.994   .     S
O380   Zn388   1.988   .     S
O381   Zn387   1.952   .     S
O382   Zn388   1.909   .     S
O383   Zn387   1.988   .     S
O384   Zn388   1.994   .     S
O385   Zn387   1.909   .     S
O386   Zn388   1.952   .     S
C393   O436    1.284   .     A
C393   C409    1.415   .     S
C393   O435    1.283   .     A
C394   C395    1.405   .     A
C394   C900    1.413   .     S
C394   C924    1.424   .     S
C395   C402    1.410   .     A
C395   C399    1.412   .     A
C396   C400    1.387   .     A
C396   C898    1.413   1_554 S
C396   C901    1.418   1_554 S
C397   C398    1.394   .     A
C397   C900    1.418   .     S
C397   C920    1.406   .     S
C398   C399    1.392   .     A
C398   H426    1.083   .     S
C399   H431    1.080   .     S
C400   C417    1.390   .     A
C400   H428    1.081   .     S
C401   H421    1.083   .     S
C401   C417    1.401   .     A
C401   C416    1.398   .     A
C402   C418    1.403   .     A
C402   C404    1.463   .     S
C403   H432    1.084   .     S
C403   C409    1.398   .     A
C403   C69     1.370   1_565 S
C404   O438    1.297   .     A
C404   O437    1.292   .     A
C405   C406    1.392   .     A
C405   H422    1.084   .     S
C406   C414    1.410   .     S
C406   C407    1.394   .     A
C407   H423    1.085   .     S
C408   C409    1.406   .     A
C408   Cl445   1.766   .     S
C408   C71     1.374   1_565 S
C410   N434    1.373   .     A
C410   Cl446   1.753   .     S
C410   C467    1.416   .     S
C411   H424    1.082   .     S
C411   N433    1.363   .     A
C412   Cl447   1.753   .     S
C412   N433    1.372   .     A
C413   H425    1.078   .     S
C413   N434    1.363   .     A
C413   C468    1.415   .     S
C414   O440    1.283   .     A
C414   O439    1.282   .     A
C415   C417    1.455   .     S
C415   O441    1.293   .     A
C415   O442    1.295   .     A
C416   C901    1.406   1_554 S
C416   H931    1.084   1_554 S
C418   H429    1.083   .     S
C418   C419    1.389   .     A
C419   C924    1.395   .     S
C419   H934    1.083   .     S
C420   Cl448   1.764   .     S
C420   C898    1.424   1_554 S
C420   C923    1.395   1_554 S
H427   C920    1.084   .     S
H430   C923    1.083   1_554 S
N433   Zn443   2.014   .     S
N434   Zn444   2.014   .     S
O435   Zn443   1.994   .     S
O436   Zn444   1.988   .     S
O437   Zn443   1.952   .     S
O438   Zn444   1.909   .     S
O439   Zn443   1.988   .     S
O440   Zn444   1.994   .     S
O441   Zn443   1.909   .     S
O442   Zn444   1.952   .     S
C449   O492    1.284   .     A
C449   C465    1.415   .     S
C449   O491    1.283   .     A
C450   C451    1.405   .     A
C450   C956    1.413   .     S
C450   C980    1.424   .     S
C451   C458    1.410   .     A
C451   C455    1.412   .     A
C452   C456    1.387   .     A
C452   C954    1.413   1_554 S
C452   C957    1.418   1_554 S
C453   C454    1.394   .     A
C453   C956    1.418   .     S
C453   C976    1.406   .     S
C454   C455    1.392   .     A
C454   H482    1.083   .     S
C455   H487    1.080   .     S
C456   C473    1.390   .     A
C456   H484    1.081   .     S
C457   H477    1.083   .     S
C457   C473    1.401   .     A
C457   C472    1.398   .     A
C458   C474    1.403   .     A
C458   C460    1.463   .     S
C459   H488    1.084   .     S
C459   C465    1.398   .     A
C459   C125    1.370   1_565 S
C460   O494    1.297   .     A
C460   O493    1.292   .     A
C461   C462    1.392   .     A
C461   H478    1.084   .     S
C462   C470    1.410   .     S
C462   C463    1.394   .     A
C463   H479    1.085   .     S
C464   C465    1.406   .     A
C464   Cl501   1.766   .     S
C464   C127    1.374   1_565 S
C466   N490    1.373   .     A
C466   Cl502   1.753   .     S
C466   C355    1.416   1_655 S
C467   H480    1.082   .     S
C467   N489    1.363   .     A
C468   Cl503   1.753   .     S
C468   N489    1.372   .     A
C469   H481    1.078   .     S
C469   N490    1.363   .     A
C469   C356    1.415   1_655 S
C470   O496    1.283   .     A
C470   O495    1.282   .     A
C471   C473    1.455   .     S
C471   O497    1.293   .     A
C471   O498    1.295   .     A
C472   C957    1.406   1_554 S
C472   H987    1.084   1_554 S
C474   H485    1.083   .     S
C474   C475    1.389   .     A
C475   C980    1.395   .     S
C475   H990    1.083   .     S
C476   Cl504   1.764   .     S
C476   C954    1.424   1_554 S
C476   C979    1.395   1_554 S
H483   C976    1.084   .     S
H486   C979    1.083   1_554 S
N489   Zn499   2.014   .     S
N490   Zn500   2.014   .     S
O491   Zn499   1.994   .     S
O492   Zn500   1.988   .     S
O493   Zn499   1.952   .     S
O494   Zn500   1.909   .     S
O495   Zn499   1.988   .     S
O496   Zn500   1.994   .     S
O497   Zn499   1.909   .     S
O498   Zn500   1.952   .     S
C505   O548    1.284   .     A
C505   C521    1.415   .     S
C505   O547    1.283   .     A
C506   C507    1.405   .     A
C506   C4      1.413   1_556 S
C506   C28     1.424   1_556 S
C507   C514    1.410   .     A
C507   C511    1.412   .     A
C508   C512    1.387   .     A
C509   C510    1.394   .     A
C509   C4      1.418   1_556 S
C509   C24     1.406   1_556 S
C510   C511    1.392   .     A
C510   H538    1.083   .     S
C511   H543    1.080   .     S
C512   C529    1.390   .     A
C512   H540    1.081   .     S
C513   H533    1.083   .     S
C513   C529    1.401   .     A
C513   C528    1.398   .     A
C514   C530    1.403   .     A
C514   C516    1.463   .     S
C515   H544    1.084   .     S
C515   C521    1.398   .     A
C515   C685    1.370   .     S
C516   O550    1.297   .     A
C516   O549    1.292   .     A
C517   C518    1.392   .     A
C517   H534    1.084   .     S
C517   C851    1.370   1_545 S
C518   C526    1.410   .     S
C518   C519    1.394   .     A
C519   H535    1.085   .     S
C519   C856    1.374   1_545 S
C520   C521    1.406   .     A
C520   Cl557   1.766   .     S
C520   C687    1.374   .     S
C522   N546    1.373   .     A
C522   Cl558   1.753   .     S
C522   C579    1.416   .     S
C523   H536    1.082   .     S
C523   N545    1.363   .     A
C523   C634    1.416   1_455 S
C524   Cl559   1.753   .     S
C524   N545    1.372   .     A
C524   C637    1.415   1_455 S
C525   H537    1.078   .     S
C525   N546    1.363   .     A
C525   C580    1.415   .     S
C526   O552    1.283   .     A
C526   O551    1.282   .     A
C527   C529    1.455   .     S
C527   O553    1.293   .     A
C527   O554    1.295   .     A
C530   H541    1.083   .     S
C530   C531    1.389   .     A
C531   C28     1.395   1_556 S
C531   H38     1.083   1_556 S
C532   Cl560   1.764   .     S
H539   C24     1.084   1_556 S
N545   Zn555   2.014   .     S
N546   Zn556   2.014   .     S
O547   Zn555   1.994   .     S
O548   Zn556   1.988   .     S
O549   Zn555   1.952   .     S
O550   Zn556   1.909   .     S
O551   Zn555   1.988   .     S
O552   Zn556   1.994   .     S
O553   Zn555   1.909   .     S
O554   Zn556   1.952   .     S
C561   O604    1.284   .     A
C561   C577    1.415   .     S
C561   O603    1.283   .     A
C562   C563    1.405   .     A
C562   C60     1.413   1_556 S
C562   C84     1.424   1_556 S
C563   C570    1.410   .     A
C563   C567    1.412   .     A
C564   C568    1.387   .     A
C565   C566    1.394   .     A
C565   C60     1.418   1_556 S
C565   C80     1.406   1_556 S
C566   C567    1.392   .     A
C566   H594    1.083   .     S
C567   H599    1.080   .     S
C568   C585    1.390   .     A
C568   H596    1.081   .     S
C569   H589    1.083   .     S
C569   C585    1.401   .     A
C569   C584    1.398   .     A
C570   C586    1.403   .     A
C570   C572    1.463   .     S
C571   H600    1.084   .     S
C571   C577    1.398   .     A
C571   C741    1.370   .     S
C572   O606    1.297   .     A
C572   O605    1.292   .     A
C573   C574    1.392   .     A
C573   H590    1.084   .     S
C573   C907    1.370   1_545 S
C574   C582    1.410   .     S
C574   C575    1.394   .     A
C575   H591    1.085   .     S
C575   C912    1.374   1_545 S
C576   C577    1.406   .     A
C576   Cl613   1.766   .     S
C576   C743    1.374   .     S
C578   N602    1.373   .     A
C578   Cl614   1.753   .     S
C578   C635    1.416   .     S
C579   H592    1.082   .     S
C579   N601    1.363   .     A
C580   Cl615   1.753   .     S
C580   N601    1.372   .     A
C581   H593    1.078   .     S
C581   N602    1.363   .     A
C581   C636    1.415   .     S
C582   O608    1.283   .     A
C582   O607    1.282   .     A
C583   C585    1.455   .     S
C583   O609    1.293   .     A
C583   O610    1.295   .     A
C586   H597    1.083   .     S
C586   C587    1.389   .     A
C587   C84     1.395   1_556 S
C587   H94     1.083   1_556 S
C588   Cl616   1.764   .     S
H595   C80     1.084   1_556 S
N601   Zn611   2.014   .     S
N602   Zn612   2.014   .     S
O603   Zn611   1.994   .     S
O604   Zn612   1.988   .     S
O605   Zn611   1.952   .     S
O606   Zn612   1.909   .     S
O607   Zn611   1.988   .     S
O608   Zn612   1.994   .     S
O609   Zn611   1.909   .     S
O610   Zn612   1.952   .     S
C617   O660    1.284   .     A
C617   C633    1.415   .     S
C617   O659    1.283   .     A
C618   C619    1.405   .     A
C618   C116    1.413   1_556 S
C618   C140    1.424   1_556 S
C619   C626    1.410   .     A
C619   C623    1.412   .     A
C620   C624    1.387   .     A
C621   C622    1.394   .     A
C621   C116    1.418   1_556 S
C621   C136    1.406   1_556 S
C622   C623    1.392   .     A
C622   H650    1.083   .     S
C623   H655    1.080   .     S
C624   C641    1.390   .     A
C624   H652    1.081   .     S
C625   H645    1.083   .     S
C625   C641    1.401   .     A
C625   C640    1.398   .     A
C626   C642    1.403   .     A
C626   C628    1.463   .     S
C627   H656    1.084   .     S
C627   C633    1.398   .     A
C627   C797    1.370   .     S
C628   O662    1.297   .     A
C628   O661    1.292   .     A
C629   C630    1.392   .     A
C629   H646    1.084   .     S
C629   C963    1.370   1_545 S
C630   C638    1.410   .     S
C630   C631    1.394   .     A
C631   H647    1.085   .     S
C631   C968    1.374   1_545 S
C632   C633    1.406   .     A
C632   Cl669   1.766   .     S
C632   C799    1.374   .     S
C634   N658    1.373   .     A
C634   Cl670   1.753   .     S
C634   C523    1.416   1_655 S
C635   H648    1.082   .     S
C635   N657    1.363   .     A
C636   Cl671   1.753   .     S
C636   N657    1.372   .     A
C637   H649    1.078   .     S
C637   N658    1.363   .     A
C637   C524    1.415   1_655 S
C638   O664    1.283   .     A
C638   O663    1.282   .     A
C639   C641    1.455   .     S
C639   O665    1.293   .     A
C639   O666    1.295   .     A
C642   H653    1.083   .     S
C642   C643    1.389   .     A
C643   C140    1.395   1_556 S
C643   H150    1.083   1_556 S
C644   Cl672   1.764   .     S
H651   C136    1.084   1_556 S
N657   Zn667   2.014   .     S
N658   Zn668   2.014   .     S
O659   Zn667   1.994   .     S
O660   Zn668   1.988   .     S
O661   Zn667   1.952   .     S
O662   Zn668   1.909   .     S
O663   Zn667   1.988   .     S
O664   Zn668   1.994   .     S
O665   Zn667   1.909   .     S
O666   Zn668   1.952   .     S
C673   O716    1.284   .     A
C673   C689    1.415   .     S
C673   O715    1.283   .     A
C674   C675    1.405   .     A
C674   C172    1.413   1_556 S
C674   C196    1.424   1_556 S
C675   C682    1.410   .     A
C675   C679    1.412   .     A
C676   C680    1.387   .     A
C677   C678    1.394   .     A
C677   C172    1.418   1_556 S
C677   C192    1.406   1_556 S
C678   C679    1.392   .     A
C678   H706    1.083   .     S
C679   H711    1.080   .     S
C680   C697    1.390   .     A
C680   H708    1.081   .     S
C681   H701    1.083   .     S
C681   C697    1.401   .     A
C681   C696    1.398   .     A
C682   C698    1.403   .     A
C682   C684    1.463   .     S
C683   H712    1.084   .     S
C683   C689    1.398   .     A
C683   C853    1.370   .     S
C684   O718    1.297   .     A
C684   O717    1.292   .     A
C685   C686    1.392   .     A
C685   H702    1.084   .     S
C686   C694    1.410   .     S
C686   C687    1.394   .     A
C687   H703    1.085   .     S
C688   C689    1.406   .     A
C688   Cl725   1.766   .     S
C688   C855    1.374   .     S
C690   N714    1.373   .     A
C690   Cl726   1.753   .     S
C690   C747    1.416   .     S
C691   H704    1.082   .     S
C691   N713    1.363   .     A
C691   C802    1.416   1_455 S
C692   Cl727   1.753   .     S
C692   N713    1.372   .     A
C692   C805    1.415   1_455 S
C693   H705    1.078   .     S
C693   N714    1.363   .     A
C693   C748    1.415   .     S
C694   O720    1.283   .     A
C694   O719    1.282   .     A
C695   C697    1.455   .     S
C695   O721    1.293   .     A
C695   O722    1.295   .     A
C698   H709    1.083   .     S
C698   C699    1.389   .     A
C699   C196    1.395   1_556 S
C699   H206    1.083   1_556 S
C700   Cl728   1.764   .     S
H707   C192    1.084   1_556 S
N713   Zn723   2.014   .     S
N714   Zn724   2.014   .     S
O715   Zn723   1.994   .     S
O716   Zn724   1.988   .     S
O717   Zn723   1.952   .     S
O718   Zn724   1.909   .     S
O719   Zn723   1.988   .     S
O720   Zn724   1.994   .     S
O721   Zn723   1.909   .     S
O722   Zn724   1.952   .     S
C729   O772    1.284   .     A
C729   C745    1.415   .     S
C729   O771    1.283   .     A
C730   C731    1.405   .     A
C730   C228    1.413   1_556 S
C730   C252    1.424   1_556 S
C731   C738    1.410   .     A
C731   C735    1.412   .     A
C732   C736    1.387   .     A
C733   C734    1.394   .     A
C733   C228    1.418   1_556 S
C733   C248    1.406   1_556 S
C734   C735    1.392   .     A
C734   H762    1.083   .     S
C735   H767    1.080   .     S
C736   C753    1.390   .     A
C736   H764    1.081   .     S
C737   H757    1.083   .     S
C737   C753    1.401   .     A
C737   C752    1.398   .     A
C738   C754    1.403   .     A
C738   C740    1.463   .     S
C739   H768    1.084   .     S
C739   C745    1.398   .     A
C739   C909    1.370   .     S
C740   O774    1.297   .     A
C740   O773    1.292   .     A
C741   C742    1.392   .     A
C741   H758    1.084   .     S
C742   C750    1.410   .     S
C742   C743    1.394   .     A
C743   H759    1.085   .     S
C744   C745    1.406   .     A
C744   Cl781   1.766   .     S
C744   C911    1.374   .     S
C746   N770    1.373   .     A
C746   Cl782   1.753   .     S
C746   C803    1.416   .     S
C747   H760    1.082   .     S
C747   N769    1.363   .     A
C748   Cl783   1.753   .     S
C748   N769    1.372   .     A
C749   H761    1.078   .     S
C749   N770    1.363   .     A
C749   C804    1.415   .     S
C750   O776    1.283   .     A
C750   O775    1.282   .     A
C751   C753    1.455   .     S
C751   O777    1.293   .     A
C751   O778    1.295   .     A
C754   H765    1.083   .     S
C754   C755    1.389   .     A
C755   C252    1.395   1_556 S
C755   H262    1.083   1_556 S
C756   Cl784   1.764   .     S
H763   C248    1.084   1_556 S
N769   Zn779   2.014   .     S
N770   Zn780   2.014   .     S
O771   Zn779   1.994   .     S
O772   Zn780   1.988   .     S
O773   Zn779   1.952   .     S
O774   Zn780   1.909   .     S
O775   Zn779   1.988   .     S
O776   Zn780   1.994   .     S
O777   Zn779   1.909   .     S
O778   Zn780   1.952   .     S
C785   O828    1.284   .     A
C785   C801    1.415   .     S
C785   O827    1.283   .     A
C786   C787    1.405   .     A
C786   C284    1.413   1_556 S
C786   C308    1.424   1_556 S
C787   C794    1.410   .     A
C787   C791    1.412   .     A
C788   C792    1.387   .     A
C789   C790    1.394   .     A
C789   C284    1.418   1_556 S
C789   C304    1.406   1_556 S
C790   C791    1.392   .     A
C790   H818    1.083   .     S
C791   H823    1.080   .     S
C792   C809    1.390   .     A
C792   H820    1.081   .     S
C793   H813    1.083   .     S
C793   C809    1.401   .     A
C793   C808    1.398   .     A
C794   C810    1.403   .     A
C794   C796    1.463   .     S
C795   H824    1.084   .     S
C795   C801    1.398   .     A
C795   C965    1.370   .     S
C796   O830    1.297   .     A
C796   O829    1.292   .     A
C797   C798    1.392   .     A
C797   H814    1.084   .     S
C798   C806    1.410   .     S
C798   C799    1.394   .     A
C799   H815    1.085   .     S
C800   C801    1.406   .     A
C800   Cl837   1.766   .     S
C800   C967    1.374   .     S
C802   N826    1.373   .     A
C802   Cl838   1.753   .     S
C802   C691    1.416   1_655 S
C803   H816    1.082   .     S
C803   N825    1.363   .     A
C804   Cl839   1.753   .     S
C804   N825    1.372   .     A
C805   H817    1.078   .     S
C805   N826    1.363   .     A
C805   C692    1.415   1_655 S
C806   O832    1.283   .     A
C806   O831    1.282   .     A
C807   C809    1.455   .     S
C807   O833    1.293   .     A
C807   O834    1.295   .     A
C810   H821    1.083   .     S
C810   C811    1.389   .     A
C811   C308    1.395   1_556 S
C811   H318    1.083   1_556 S
C812   Cl840   1.764   .     S
H819   C304    1.084   1_556 S
N825   Zn835   2.014   .     S
N826   Zn836   2.014   .     S
O827   Zn835   1.994   .     S
O828   Zn836   1.988   .     S
O829   Zn835   1.952   .     S
O830   Zn836   1.909   .     S
O831   Zn835   1.988   .     S
O832   Zn836   1.994   .     S
O833   Zn835   1.909   .     S
O834   Zn836   1.952   .     S
C841   O884    1.284   .     A
C841   C857    1.415   .     S
C841   O883    1.283   .     A
C842   C843    1.405   .     A
C842   C340    1.413   1_556 S
C842   C364    1.424   1_556 S
C843   C850    1.410   .     A
C843   C847    1.412   .     A
C844   C848    1.387   .     A
C845   C846    1.394   .     A
C845   C340    1.418   1_556 S
C845   C360    1.406   1_556 S
C846   C847    1.392   .     A
C846   H874    1.083   .     S
C847   H879    1.080   .     S
C848   C865    1.390   .     A
C848   H876    1.081   .     S
C849   H869    1.083   .     S
C849   C865    1.401   .     A
C849   C864    1.398   .     A
C850   C866    1.403   .     A
C850   C852    1.463   .     S
C851   H880    1.084   .     S
C851   C857    1.398   .     A
C851   C517    1.370   1_565 S
C852   O886    1.297   .     A
C852   O885    1.292   .     A
C853   C854    1.392   .     A
C853   H870    1.084   .     S
C854   C862    1.410   .     S
C854   C855    1.394   .     A
C855   H871    1.085   .     S
C856   C857    1.406   .     A
C856   Cl893   1.766   .     S
C856   C519    1.374   1_565 S
C858   N882    1.373   .     A
C858   Cl894   1.753   .     S
C858   C915    1.416   .     S
C859   H872    1.082   .     S
C859   N881    1.363   .     A
C859   C970    1.416   1_455 S
C860   Cl895   1.753   .     S
C860   N881    1.372   .     A
C860   C973    1.415   1_455 S
C861   H873    1.078   .     S
C861   N882    1.363   .     A
C861   C916    1.415   .     S
C862   O888    1.283   .     A
C862   O887    1.282   .     A
C863   C865    1.455   .     S
C863   O889    1.293   .     A
C863   O890    1.295   .     A
C866   H877    1.083   .     S
C866   C867    1.389   .     A
C867   C364    1.395   1_556 S
C867   H374    1.083   1_556 S
C868   Cl896   1.764   .     S
H875   C360    1.084   1_556 S
N881   Zn891   2.014   .     S
N882   Zn892   2.014   .     S
O883   Zn891   1.994   .     S
O884   Zn892   1.988   .     S
O885   Zn891   1.952   .     S
O886   Zn892   1.909   .     S
O887   Zn891   1.988   .     S
O888   Zn892   1.994   .     S
O889   Zn891   1.909   .     S
O890   Zn892   1.952   .     S
C897   O940    1.284   .     A
C897   C913    1.415   .     S
C897   O939    1.283   .     A
C898   C899    1.405   .     A
C898   C396    1.413   1_556 S
C898   C420    1.424   1_556 S
C899   C906    1.410   .     A
C899   C903    1.412   .     A
C900   C904    1.387   .     A
C901   C902    1.394   .     A
C901   C396    1.418   1_556 S
C901   C416    1.406   1_556 S
C902   C903    1.392   .     A
C902   H930    1.083   .     S
C903   H935    1.080   .     S
C904   C921    1.390   .     A
C904   H932    1.081   .     S
C905   H925    1.083   .     S
C905   C921    1.401   .     A
C905   C920    1.398   .     A
C906   C922    1.403   .     A
C906   C908    1.463   .     S
C907   H936    1.084   .     S
C907   C913    1.398   .     A
C907   C573    1.370   1_565 S
C908   O942    1.297   .     A
C908   O941    1.292   .     A
C909   C910    1.392   .     A
C909   H926    1.084   .     S
C910   C918    1.410   .     S
C910   C911    1.394   .     A
C911   H927    1.085   .     S
C912   C913    1.406   .     A
C912   Cl949   1.766   .     S
C912   C575    1.374   1_565 S
C914   N938    1.373   .     A
C914   Cl950   1.753   .     S
C914   C971    1.416   .     S
C915   H928    1.082   .     S
C915   N937    1.363   .     A
C916   Cl951   1.753   .     S
C916   N937    1.372   .     A
C917   H929    1.078   .     S
C917   N938    1.363   .     A
C917   C972    1.415   .     S
C918   O944    1.283   .     A
C918   O943    1.282   .     A
C919   C921    1.455   .     S
C919   O945    1.293   .     A
C919   O946    1.295   .     A
C922   H933    1.083   .     S
C922   C923    1.389   .     A
C923   C420    1.395   1_556 S
C923   H430    1.083   1_556 S
C924   Cl952   1.764   .     S
H931   C416    1.084   1_556 S
N937   Zn947   2.014   .     S
N938   Zn948   2.014   .     S
O939   Zn947   1.994   .     S
O940   Zn948   1.988   .     S
O941   Zn947   1.952   .     S
O942   Zn948   1.909   .     S
O943   Zn947   1.988   .     S
O944   Zn948   1.994   .     S
O945   Zn947   1.909   .     S
O946   Zn948   1.952   .     S
C953   O996    1.284   .     A
C953   C969    1.415   .     S
C953   O995    1.283   .     A
C954   C955    1.405   .     A
C954   C452    1.413   1_556 S
C954   C476    1.424   1_556 S
C955   C962    1.410   .     A
C955   C959    1.412   .     A
C956   C960    1.387   .     A
C957   C958    1.394   .     A
C957   C452    1.418   1_556 S
C957   C472    1.406   1_556 S
C958   C959    1.392   .     A
C958   H986    1.083   .     S
C959   H991    1.080   .     S
C960   C977    1.390   .     A
C960   H988    1.081   .     S
C961   H981    1.083   .     S
C961   C977    1.401   .     A
C961   C976    1.398   .     A
C962   C978    1.403   .     A
C962   C964    1.463   .     S
C963   H992    1.084   .     S
C963   C969    1.398   .     A
C963   C629    1.370   1_565 S
C964   O998    1.297   .     A
C964   O997    1.292   .     A
C965   C966    1.392   .     A
C965   H982    1.084   .     S
C966   C974    1.410   .     S
C966   C967    1.394   .     A
C967   H983    1.085   .     S
C968   C969    1.406   .     A
C968   Cl1005  1.766   .     S
C968   C631    1.374   1_565 S
C970   N994    1.373   .     A
C970   Cl1006  1.753   .     S
C970   C859    1.416   1_655 S
C971   H984    1.082   .     S
C971   N993    1.363   .     A
C972   Cl1007  1.753   .     S
C972   N993    1.372   .     A
C973   H985    1.078   .     S
C973   N994    1.363   .     A
C973   C860    1.415   1_655 S
C974   O1000   1.283   .     A
C974   O999    1.282   .     A
C975   C977    1.455   .     S
C975   O1001   1.293   .     A
C975   O1002   1.295   .     A
C978   H989    1.083   .     S
C978   C979    1.389   .     A
C979   C476    1.395   1_556 S
C979   H486    1.083   1_556 S
C980   Cl1008  1.764   .     S
H987   C472    1.084   1_556 S
N993   Zn1003  2.014   .     S
N994   Zn1004  2.014   .     S
O995   Zn1003  1.994   .     S
O996   Zn1004  1.988   .     S
O997   Zn1003  1.952   .     S
O998   Zn1004  1.909   .     S
O999   Zn1003  1.988   .     S
O1000  Zn1004  1.994   .     S
O1001  Zn1003  1.909   .     S
O1002  Zn1004  1.952   .     S
