data_str_m2_o1_o1_pcu_sym.7
_audit_creation_date              2020-01-03
_audit_creation_method            'Materials Studio'
_symmetry_space_group_name_H-M    'P1'
_symmetry_Int_Tables_number       1
_symmetry_cell_setting            triclinic
loop_
_symmetry_equiv_pos_as_xyz
  x,y,z
_cell_length_a                    31.2883
_cell_length_b                    30.0852
_cell_length_c                    28.5233
_cell_angle_alpha                 90.0000
_cell_angle_beta                  90.0000
_cell_angle_gamma                 90.2715
loop_
_atom_site_label
_atom_site_type_symbol
_atom_site_fract_x
_atom_site_fract_y
_atom_site_fract_z
_atom_site_U_iso_or_equiv
_atom_site_adp_type
_atom_site_occupancy
C1     C     0.05638   0.18730   0.16673   0.00000  Uiso   1.00
C2     C     0.03466   0.26511   0.30857   0.00000  Uiso   1.00
C3     C     0.03484   0.26468   0.02478   0.00000  Uiso   1.00
C4     C     0.46534   0.23489   0.30857   0.00000  Uiso   1.00
C5     C     0.23959   0.46255   0.02478   0.00000  Uiso   1.00
C6     C     0.26130   0.03726   0.30854   0.00000  Uiso   1.00
C7     C     0.26041   0.03745   0.02478   0.00000  Uiso   1.00
C8     C     0.23870   0.46274   0.30854   0.00000  Uiso   1.00
C9     C     0.36586   0.16995   0.15367   0.00000  Uiso   1.00
C10    C     0.08347   0.38658   0.18297   0.00000  Uiso   1.00
C11    C     0.13414   0.33005   0.15367   0.00000  Uiso   1.00
C12    C     0.44363   0.31270   0.16673   0.00000  Uiso   1.00
C13    C     0.41653   0.11342   0.18297   0.00000  Uiso   1.00
C14    C     0.10335   0.13443   0.21053   0.00000  Uiso   1.00
C15    C     0.39638   0.36650   0.12469   0.00000  Uiso   1.00
C16    C     0.39665   0.36557   0.21053   0.00000  Uiso   1.00
C17    C     0.10362   0.13350   0.12469   0.00000  Uiso   1.00
C18    C     0.16625   0.36297   0.15049   0.00000  Uiso   1.00
C19    C     0.38393   0.08088   0.18182   0.00000  Uiso   1.00
C20    C     0.33375   0.13703   0.15049   0.00000  Uiso   1.00
C21    C     0.11607   0.41912   0.18182   0.00000  Uiso   1.00
C22    C     0.35699   0.38751   0.21108   0.00000  Uiso   1.00
C23    C     0.44101   0.19028   0.16685   0.00000  Uiso   1.00
C24    C     0.14507   0.11583   0.12500   0.00000  Uiso   1.00
C25    C     0.14301   0.11249   0.21108   0.00000  Uiso   1.00
C26    C     0.35493   0.38417   0.12500   0.00000  Uiso   1.00
C27    C     0.09271   0.34286   0.16766   0.00000  Uiso   1.00
C28    C     0.40729   0.15714   0.16766   0.00000  Uiso   1.00
C29    C     0.41316   0.35008   0.16725   0.00000  Uiso   1.00
C30    C     0.08684   0.14992   0.16725   0.00000  Uiso   1.00
C31    C     0.34276   0.09325   0.16622   0.00000  Uiso   1.00
C32    C     0.15724   0.40675   0.16622   0.00000  Uiso   1.00
C33    C     0.16171   0.09925   0.16774   0.00000  Uiso   1.00
C34    C     0.05899   0.30972   0.16685   0.00000  Uiso   1.00
C35    C     0.33829   0.40075   0.16774   0.00000  Uiso   1.00
C36    C     0.35585   0.21939   0.14598   0.00000  Uiso   1.00
C37    C     0.34852   0.24304   0.19264   0.00000  Uiso   1.00
C38    C     0.03936   0.39815   0.20206   0.00000  Uiso   1.00
C39    C     0.03952   0.39781   0.25579   0.00000  Uiso   1.00
C40    C     0.14415   0.28061   0.14598   0.00000  Uiso   1.00
C41    C     0.15148   0.25696   0.19264   0.00000  Uiso   1.00
C42    C     0.46064   0.10185   0.20206   0.00000  Uiso   1.00
C43    C     0.46049   0.10219   0.25579   0.00000  Uiso   1.00
C44    C     0.07458   0.13257   0.25374   0.00000  Uiso   1.00
C45    C     0.30668   0.43736   0.16685   0.00000  Uiso   1.00
C46    C     0.08459   0.16769   0.29101   0.00000  Uiso   1.00
C47    C     0.42333   0.36930   0.07996   0.00000  Uiso   1.00
C48    C     0.46588   0.39337   0.08794   0.00000  Uiso   1.00
C49    C     0.42542   0.36743   0.25374   0.00000  Uiso   1.00
C50    C     0.41541   0.33231   0.29101   0.00000  Uiso   1.00
C51    C     0.07667   0.13070   0.07996   0.00000  Uiso   1.00
C52    C     0.03412   0.10663   0.08795   0.00000  Uiso   1.00
C53    C     0.20888   0.35209   0.12744   0.00000  Uiso   1.00
C54    C     0.20311   0.34860   0.07419   0.00000  Uiso   1.00
C55    C     0.39355   0.03212   0.19338   0.00000  Uiso   1.00
C56    C     0.19332   0.06264   0.16685   0.00000  Uiso   1.00
C57    C     0.40403   0.00582   0.14911   0.00000  Uiso   1.00
C58    C     0.29112   0.14791   0.12744   0.00000  Uiso   1.00
C59    C     0.29689   0.15140   0.07419   0.00000  Uiso   1.00
C60    C     0.10645   0.46788   0.19338   0.00000  Uiso   1.00
C61    C     0.09598   0.49418   0.14911   0.00000  Uiso   1.00
C62    C     0.33168   0.38929   0.25688   0.00000  Uiso   1.00
C63    C     0.34444   0.42823   0.28878   0.00000  Uiso   1.00
C64    C     0.17295   0.12044   0.08126   0.00000  Uiso   1.00
C65    C     0.17542   0.16856   0.06372   0.00000  Uiso   1.00
C66    C     0.16832   0.11071   0.25688   0.00000  Uiso   1.00
C67    C     0.19097   0.44017   0.16655   0.00000  Uiso   1.00
C68    C     0.15556   0.07177   0.28878   0.00000  Uiso   1.00
C69    C     0.32705   0.37956   0.08126   0.00000  Uiso   1.00
C70    C     0.32458   0.33144   0.06372   0.00000  Uiso   1.00
C71    C     0.30903   0.05983   0.16655   0.00000  Uiso   1.00
C72    C     0.46517   0.23532   0.02478   0.00000  Uiso   1.00
Cu73   Cu    0.00000   0.25000   0.21355   0.00000  Uiso   1.00
Cu74   Cu    0.00000   0.25000   0.11978   0.00000  Uiso   1.00
Cu75   Cu    0.25000  -0.00000   0.21355   0.00000  Uiso   1.00
Cu76   Cu    0.25000  -0.00000   0.11978   0.00000  Uiso   1.00
H77    H     0.43697   0.22404   0.04324   0.00000  Uiso   1.00
H78    H     0.37721   0.24087   0.21533   0.00000  Uiso   1.00
H79    H     0.34155   0.27869   0.18618   0.00000  Uiso   1.00
H80    H     0.38181   0.23638   0.12645   0.00000  Uiso   1.00
H81    H     0.32743   0.22536   0.12408   0.00000  Uiso   1.00
H82    H     0.03920   0.36306   0.26888   0.00000  Uiso   1.00
H83    H     0.06819   0.41477   0.27027   0.00000  Uiso   1.00
H84    H     0.01082   0.41520   0.26925   0.00000  Uiso   1.00
H85    H     0.02852   0.43079   0.18859   0.00000  Uiso   1.00
H86    H     0.01437   0.37491   0.18958   0.00000  Uiso   1.00
H87    H     0.17912   0.27212   0.21123   0.00000  Uiso   1.00
H88    H     0.06272   0.27678   0.29014   0.00000  Uiso   1.00
H89    H     0.12279   0.25913   0.21533   0.00000  Uiso   1.00
H90    H     0.15845   0.22131   0.18618   0.00000  Uiso   1.00
H91    H     0.11819   0.26362   0.12645   0.00000  Uiso   1.00
H92    H     0.17257   0.27464   0.12408   0.00000  Uiso   1.00
H93    H     0.46080   0.13694   0.26888   0.00000  Uiso   1.00
H94    H     0.43182   0.08523   0.27027   0.00000  Uiso   1.00
H95    H     0.48918   0.08480   0.26925   0.00000  Uiso   1.00
H96    H     0.47148   0.06921   0.18859   0.00000  Uiso   1.00
H97    H     0.48563   0.12509   0.18958   0.00000  Uiso   1.00
H98    H     0.10789   0.15528   0.31689   0.00000  Uiso   1.00
H99    H     0.06303   0.27596   0.04324   0.00000  Uiso   1.00
H100   H     0.09727   0.19870   0.27507   0.00000  Uiso   1.00
H101   H     0.05496   0.17530   0.31074   0.00000  Uiso   1.00
H102   H     0.04087   0.13615   0.24327   0.00000  Uiso   1.00
H103   H     0.07457   0.09883   0.26909   0.00000  Uiso   1.00
H104   H     0.48222   0.39841   0.05377   0.00000  Uiso   1.00
H105   H     0.48736   0.37366   0.11064   0.00000  Uiso   1.00
H106   H     0.46042   0.42637   0.10427   0.00000  Uiso   1.00
H107   H     0.42886   0.33614   0.06436   0.00000  Uiso   1.00
H108   H     0.40681   0.38871   0.05256   0.00000  Uiso   1.00
H109   H     0.39211   0.34472   0.31689   0.00000  Uiso   1.00
H110   H     0.43728   0.22322   0.29014   0.00000  Uiso   1.00
H111   H     0.40273   0.30130   0.27507   0.00000  Uiso   1.00
H112   H     0.44504   0.32470   0.31074   0.00000  Uiso   1.00
H113   H     0.45913   0.36384   0.24327   0.00000  Uiso   1.00
H114   H     0.42543   0.40117   0.26909   0.00000  Uiso   1.00
H115   H     0.03958   0.07363   0.10428   0.00000  Uiso   1.00
H116   H     0.01264   0.12633   0.11064   0.00000  Uiso   1.00
H117   H     0.01778   0.10159   0.05377   0.00000  Uiso   1.00
H118   H     0.07114   0.16386   0.06436   0.00000  Uiso   1.00
H119   H     0.09319   0.11129   0.05256   0.00000  Uiso   1.00
H120   H     0.18475   0.31855   0.06406   0.00000  Uiso   1.00
H121   H     0.23236   0.43239   0.04343   0.00000  Uiso   1.00
H122   H     0.18542   0.37784   0.06079   0.00000  Uiso   1.00
H123   H     0.23456   0.34704   0.05661   0.00000  Uiso   1.00
H124   H     0.23358   0.37752   0.13476   0.00000  Uiso   1.00
H125   H     0.22286   0.32124   0.14204   0.00000  Uiso   1.00
H126   H     0.41100   0.47080   0.15861   0.00000  Uiso   1.00
H127   H     0.37660   0.00609   0.12443   0.00000  Uiso   1.00
H128   H     0.43250   0.02021   0.13138   0.00000  Uiso   1.00
H129   H     0.42010   0.02814   0.21856   0.00000  Uiso   1.00
H130   H     0.36650   0.01590   0.21160   0.00000  Uiso   1.00
H131   H     0.31459   0.12216   0.06079   0.00000  Uiso   1.00
H132   H     0.26976   0.06737   0.28998   0.00000  Uiso   1.00
H133   H     0.26544   0.15296   0.05661   0.00000  Uiso   1.00
H134   H     0.31525   0.18145   0.06406   0.00000  Uiso   1.00
H135   H     0.26642   0.12248   0.13476   0.00000  Uiso   1.00
H136   H     0.27714   0.17876   0.14204   0.00000  Uiso   1.00
H137   H     0.12340   0.49391   0.12443   0.00000  Uiso   1.00
H138   H     0.06750   0.47979   0.13138   0.00000  Uiso   1.00
H139   H     0.08900   0.02920   0.15861   0.00000  Uiso   1.00
H140   H     0.07990   0.47186   0.21856   0.00000  Uiso   1.00
H141   H     0.13350   0.48410   0.21160   0.00000  Uiso   1.00
H142   H     0.37153   0.41968   0.31182   0.00000  Uiso   1.00
H143   H     0.26764   0.06761   0.04343   0.00000  Uiso   1.00
H144   H     0.35288   0.45831   0.26828   0.00000  Uiso   1.00
H145   H     0.31772   0.43625   0.31251   0.00000  Uiso   1.00
H146   H     0.29682   0.39012   0.24987   0.00000  Uiso   1.00
H147   H     0.33453   0.35746   0.27599   0.00000  Uiso   1.00
H148   H     0.19488   0.16999   0.03121   0.00000  Uiso   1.00
H149   H     0.19065   0.19000   0.09075   0.00000  Uiso   1.00
H150   H     0.14359   0.18224   0.05529   0.00000  Uiso   1.00
H151   H     0.20644   0.11144   0.08824   0.00000  Uiso   1.00
H152   H     0.16156   0.09800   0.05318   0.00000  Uiso   1.00
H153   H     0.12847   0.08032   0.31182   0.00000  Uiso   1.00
H154   H     0.23024   0.43263   0.28998   0.00000  Uiso   1.00
H155   H     0.14713   0.04169   0.26828   0.00000  Uiso   1.00
H156   H     0.18228   0.06375   0.31252   0.00000  Uiso   1.00
H157   H     0.20318   0.10988   0.24987   0.00000  Uiso   1.00
H158   H     0.16547   0.14254   0.27599   0.00000  Uiso   1.00
H159   H     0.35641   0.31776   0.05529   0.00000  Uiso   1.00
H160   H     0.30935   0.31000   0.09075   0.00000  Uiso   1.00
H161   H     0.30512   0.33000   0.03121   0.00000  Uiso   1.00
H162   H     0.29356   0.38856   0.08824   0.00000  Uiso   1.00
H163   H     0.33844   0.40200   0.05318   0.00000  Uiso   1.00
H164   H     0.32088   0.22788   0.21123   0.00000  Uiso   1.00
N165   N     0.00000   0.25000   0.28402   0.00000  Uiso   1.00
N166   N     0.00000   0.25000   0.04931   0.00000  Uiso   1.00
N167   N     0.25000  -0.00000   0.28402   0.00000  Uiso   1.00
N168   N     0.25000  -0.00000   0.04931   0.00000  Uiso   1.00
O169   O     0.04509   0.20491   0.20625   0.00000  Uiso   1.00
O170   O     0.20492   0.04509   0.12709   0.00000  Uiso   1.00
O171   O     0.20492   0.04509   0.20625   0.00000  Uiso   1.00
O172   O     0.29509   0.45491   0.12709   0.00000  Uiso   1.00
O173   O     0.20492   0.45491   0.12709   0.00000  Uiso   1.00
O174   O     0.29509   0.04509   0.20625   0.00000  Uiso   1.00
O175   O     0.29509   0.04509   0.12709   0.00000  Uiso   1.00
O176   O     0.20492   0.45491   0.20625   0.00000  Uiso   1.00
O177   O     0.45492   0.29509   0.12709   0.00000  Uiso   1.00
O178   O     0.45492   0.29509   0.20625   0.00000  Uiso   1.00
O179   O     0.04509   0.20491   0.12709   0.00000  Uiso   1.00
O180   O     0.45492   0.20491   0.12709   0.00000  Uiso   1.00
O181   O     0.04509   0.29509   0.20625   0.00000  Uiso   1.00
O182   O     0.04509   0.29509   0.12709   0.00000  Uiso   1.00
O183   O     0.45492   0.20491   0.20625   0.00000  Uiso   1.00
O184   O     0.29509   0.45491   0.20625   0.00000  Uiso   1.00
C185   C     0.55638   0.18730   0.16673   0.00000  Uiso   1.00
C186   C     0.53466   0.26511   0.30857   0.00000  Uiso   1.00
C187   C     0.53484   0.26468   0.02478   0.00000  Uiso   1.00
C188   C     0.96534   0.23489   0.30857   0.00000  Uiso   1.00
C189   C     0.73959   0.46255   0.02478   0.00000  Uiso   1.00
C190   C     0.76130   0.03726   0.30854   0.00000  Uiso   1.00
C191   C     0.76041   0.03745   0.02478   0.00000  Uiso   1.00
C192   C     0.73870   0.46274   0.30854   0.00000  Uiso   1.00
C193   C     0.86586   0.16995   0.15367   0.00000  Uiso   1.00
C194   C     0.58347   0.38658   0.18297   0.00000  Uiso   1.00
C195   C     0.63414   0.33005   0.15367   0.00000  Uiso   1.00
C196   C     0.94363   0.31270   0.16673   0.00000  Uiso   1.00
C197   C     0.91653   0.11342   0.18297   0.00000  Uiso   1.00
C198   C     0.60335   0.13443   0.21053   0.00000  Uiso   1.00
C199   C     0.89638   0.36650   0.12469   0.00000  Uiso   1.00
C200   C     0.89665   0.36557   0.21053   0.00000  Uiso   1.00
C201   C     0.60362   0.13350   0.12469   0.00000  Uiso   1.00
C202   C     0.66625   0.36297   0.15049   0.00000  Uiso   1.00
C203   C     0.88393   0.08088   0.18182   0.00000  Uiso   1.00
C204   C     0.83375   0.13703   0.15049   0.00000  Uiso   1.00
C205   C     0.61607   0.41912   0.18182   0.00000  Uiso   1.00
C206   C     0.85699   0.38751   0.21108   0.00000  Uiso   1.00
C207   C     0.94101   0.19028   0.16685   0.00000  Uiso   1.00
C208   C     0.64507   0.11583   0.12500   0.00000  Uiso   1.00
C209   C     0.64301   0.11249   0.21108   0.00000  Uiso   1.00
C210   C     0.85493   0.38417   0.12500   0.00000  Uiso   1.00
C211   C     0.59271   0.34286   0.16766   0.00000  Uiso   1.00
C212   C     0.90729   0.15714   0.16766   0.00000  Uiso   1.00
C213   C     0.91316   0.35008   0.16725   0.00000  Uiso   1.00
C214   C     0.58684   0.14992   0.16725   0.00000  Uiso   1.00
C215   C     0.84276   0.09325   0.16622   0.00000  Uiso   1.00
C216   C     0.65724   0.40675   0.16622   0.00000  Uiso   1.00
C217   C     0.66171   0.09925   0.16774   0.00000  Uiso   1.00
C218   C     0.55899   0.30972   0.16685   0.00000  Uiso   1.00
C219   C     0.83829   0.40075   0.16774   0.00000  Uiso   1.00
C220   C     0.85585   0.21939   0.14598   0.00000  Uiso   1.00
C221   C     0.84852   0.24304   0.19264   0.00000  Uiso   1.00
C222   C     0.53936   0.39815   0.20206   0.00000  Uiso   1.00
C223   C     0.53952   0.39781   0.25579   0.00000  Uiso   1.00
C224   C     0.64415   0.28061   0.14598   0.00000  Uiso   1.00
C225   C     0.65148   0.25696   0.19264   0.00000  Uiso   1.00
C226   C     0.96064   0.10185   0.20206   0.00000  Uiso   1.00
C227   C     0.96049   0.10219   0.25579   0.00000  Uiso   1.00
C228   C     0.57458   0.13257   0.25374   0.00000  Uiso   1.00
C229   C     0.80668   0.43736   0.16685   0.00000  Uiso   1.00
C230   C     0.58459   0.16769   0.29101   0.00000  Uiso   1.00
C231   C     0.92333   0.36930   0.07996   0.00000  Uiso   1.00
C232   C     0.96588   0.39337   0.08794   0.00000  Uiso   1.00
C233   C     0.92542   0.36743   0.25374   0.00000  Uiso   1.00
C234   C     0.91541   0.33231   0.29101   0.00000  Uiso   1.00
C235   C     0.57667   0.13070   0.07996   0.00000  Uiso   1.00
C236   C     0.53412   0.10663   0.08795   0.00000  Uiso   1.00
C237   C     0.70888   0.35209   0.12744   0.00000  Uiso   1.00
C238   C     0.70311   0.34860   0.07419   0.00000  Uiso   1.00
C239   C     0.89355   0.03212   0.19338   0.00000  Uiso   1.00
C240   C     0.69332   0.06264   0.16685   0.00000  Uiso   1.00
C241   C     0.90403   0.00582   0.14911   0.00000  Uiso   1.00
C242   C     0.79112   0.14791   0.12744   0.00000  Uiso   1.00
C243   C     0.79689   0.15140   0.07419   0.00000  Uiso   1.00
C244   C     0.60645   0.46788   0.19338   0.00000  Uiso   1.00
C245   C     0.59598   0.49418   0.14911   0.00000  Uiso   1.00
C246   C     0.83168   0.38929   0.25688   0.00000  Uiso   1.00
C247   C     0.84444   0.42823   0.28878   0.00000  Uiso   1.00
C248   C     0.67295   0.12044   0.08126   0.00000  Uiso   1.00
C249   C     0.67542   0.16856   0.06372   0.00000  Uiso   1.00
C250   C     0.66832   0.11071   0.25688   0.00000  Uiso   1.00
C251   C     0.69097   0.44017   0.16655   0.00000  Uiso   1.00
C252   C     0.65556   0.07177   0.28878   0.00000  Uiso   1.00
C253   C     0.82705   0.37956   0.08126   0.00000  Uiso   1.00
C254   C     0.82458   0.33144   0.06372   0.00000  Uiso   1.00
C255   C     0.80903   0.05983   0.16655   0.00000  Uiso   1.00
C256   C     0.96517   0.23532   0.02478   0.00000  Uiso   1.00
Cu257  Cu    0.50000   0.25000   0.21355   0.00000  Uiso   1.00
Cu258  Cu    0.50000   0.25000   0.11978   0.00000  Uiso   1.00
Cu259  Cu    0.75000  -0.00000   0.21355   0.00000  Uiso   1.00
Cu260  Cu    0.75000  -0.00000   0.11978   0.00000  Uiso   1.00
H261   H     0.93697   0.22404   0.04324   0.00000  Uiso   1.00
H262   H     0.87721   0.24087   0.21533   0.00000  Uiso   1.00
H263   H     0.84155   0.27869   0.18618   0.00000  Uiso   1.00
H264   H     0.88181   0.23638   0.12645   0.00000  Uiso   1.00
H265   H     0.82743   0.22536   0.12408   0.00000  Uiso   1.00
H266   H     0.53920   0.36306   0.26888   0.00000  Uiso   1.00
H267   H     0.56819   0.41477   0.27027   0.00000  Uiso   1.00
H268   H     0.51082   0.41520   0.26925   0.00000  Uiso   1.00
H269   H     0.52852   0.43079   0.18859   0.00000  Uiso   1.00
H270   H     0.51437   0.37491   0.18958   0.00000  Uiso   1.00
H271   H     0.67912   0.27212   0.21123   0.00000  Uiso   1.00
H272   H     0.56272   0.27678   0.29014   0.00000  Uiso   1.00
H273   H     0.62279   0.25913   0.21533   0.00000  Uiso   1.00
H274   H     0.65845   0.22131   0.18618   0.00000  Uiso   1.00
H275   H     0.61819   0.26362   0.12645   0.00000  Uiso   1.00
H276   H     0.67257   0.27464   0.12408   0.00000  Uiso   1.00
H277   H     0.96080   0.13694   0.26888   0.00000  Uiso   1.00
H278   H     0.93182   0.08523   0.27027   0.00000  Uiso   1.00
H279   H     0.98918   0.08480   0.26925   0.00000  Uiso   1.00
H280   H     0.97148   0.06921   0.18859   0.00000  Uiso   1.00
H281   H     0.98563   0.12509   0.18958   0.00000  Uiso   1.00
H282   H     0.60789   0.15528   0.31689   0.00000  Uiso   1.00
H283   H     0.56303   0.27596   0.04324   0.00000  Uiso   1.00
H284   H     0.59727   0.19870   0.27507   0.00000  Uiso   1.00
H285   H     0.55496   0.17530   0.31074   0.00000  Uiso   1.00
H286   H     0.54087   0.13615   0.24327   0.00000  Uiso   1.00
H287   H     0.57457   0.09883   0.26909   0.00000  Uiso   1.00
H288   H     0.98222   0.39841   0.05377   0.00000  Uiso   1.00
H289   H     0.98736   0.37366   0.11064   0.00000  Uiso   1.00
H290   H     0.96042   0.42637   0.10427   0.00000  Uiso   1.00
H291   H     0.92886   0.33614   0.06436   0.00000  Uiso   1.00
H292   H     0.90681   0.38871   0.05256   0.00000  Uiso   1.00
H293   H     0.89211   0.34472   0.31689   0.00000  Uiso   1.00
H294   H     0.93728   0.22322   0.29014   0.00000  Uiso   1.00
H295   H     0.90273   0.30130   0.27507   0.00000  Uiso   1.00
H296   H     0.94504   0.32470   0.31074   0.00000  Uiso   1.00
H297   H     0.95913   0.36384   0.24327   0.00000  Uiso   1.00
H298   H     0.92543   0.40117   0.26909   0.00000  Uiso   1.00
H299   H     0.53958   0.07363   0.10428   0.00000  Uiso   1.00
H300   H     0.51264   0.12633   0.11064   0.00000  Uiso   1.00
H301   H     0.51778   0.10159   0.05377   0.00000  Uiso   1.00
H302   H     0.57114   0.16386   0.06436   0.00000  Uiso   1.00
H303   H     0.59319   0.11129   0.05256   0.00000  Uiso   1.00
H304   H     0.68475   0.31855   0.06406   0.00000  Uiso   1.00
H305   H     0.73236   0.43239   0.04343   0.00000  Uiso   1.00
H306   H     0.68542   0.37784   0.06079   0.00000  Uiso   1.00
H307   H     0.73456   0.34704   0.05661   0.00000  Uiso   1.00
H308   H     0.73358   0.37752   0.13476   0.00000  Uiso   1.00
H309   H     0.72286   0.32124   0.14204   0.00000  Uiso   1.00
H310   H     0.91100   0.47080   0.15861   0.00000  Uiso   1.00
H311   H     0.87660   0.00609   0.12443   0.00000  Uiso   1.00
H312   H     0.93250   0.02021   0.13138   0.00000  Uiso   1.00
H313   H     0.92010   0.02814   0.21856   0.00000  Uiso   1.00
H314   H     0.86650   0.01590   0.21160   0.00000  Uiso   1.00
H315   H     0.81459   0.12216   0.06079   0.00000  Uiso   1.00
H316   H     0.76976   0.06737   0.28998   0.00000  Uiso   1.00
H317   H     0.76544   0.15296   0.05661   0.00000  Uiso   1.00
H318   H     0.81525   0.18145   0.06406   0.00000  Uiso   1.00
H319   H     0.76642   0.12248   0.13476   0.00000  Uiso   1.00
H320   H     0.77714   0.17876   0.14204   0.00000  Uiso   1.00
H321   H     0.62340   0.49391   0.12443   0.00000  Uiso   1.00
H322   H     0.56750   0.47979   0.13138   0.00000  Uiso   1.00
H323   H     0.58900   0.02920   0.15861   0.00000  Uiso   1.00
H324   H     0.57990   0.47186   0.21856   0.00000  Uiso   1.00
H325   H     0.63350   0.48410   0.21160   0.00000  Uiso   1.00
H326   H     0.87153   0.41968   0.31182   0.00000  Uiso   1.00
H327   H     0.76764   0.06761   0.04343   0.00000  Uiso   1.00
H328   H     0.85288   0.45831   0.26828   0.00000  Uiso   1.00
H329   H     0.81772   0.43625   0.31251   0.00000  Uiso   1.00
H330   H     0.79682   0.39012   0.24987   0.00000  Uiso   1.00
H331   H     0.83453   0.35746   0.27599   0.00000  Uiso   1.00
H332   H     0.69488   0.16999   0.03121   0.00000  Uiso   1.00
H333   H     0.69065   0.19000   0.09075   0.00000  Uiso   1.00
H334   H     0.64359   0.18224   0.05529   0.00000  Uiso   1.00
H335   H     0.70644   0.11144   0.08824   0.00000  Uiso   1.00
H336   H     0.66156   0.09800   0.05318   0.00000  Uiso   1.00
H337   H     0.62847   0.08032   0.31182   0.00000  Uiso   1.00
H338   H     0.73024   0.43263   0.28998   0.00000  Uiso   1.00
H339   H     0.64713   0.04169   0.26828   0.00000  Uiso   1.00
H340   H     0.68228   0.06375   0.31252   0.00000  Uiso   1.00
H341   H     0.70318   0.10988   0.24987   0.00000  Uiso   1.00
H342   H     0.66547   0.14254   0.27599   0.00000  Uiso   1.00
H343   H     0.85641   0.31776   0.05529   0.00000  Uiso   1.00
H344   H     0.80935   0.31000   0.09075   0.00000  Uiso   1.00
H345   H     0.80512   0.33000   0.03121   0.00000  Uiso   1.00
H346   H     0.79356   0.38856   0.08824   0.00000  Uiso   1.00
H347   H     0.83844   0.40200   0.05318   0.00000  Uiso   1.00
H348   H     0.82088   0.22788   0.21123   0.00000  Uiso   1.00
N349   N     0.50000   0.25000   0.28402   0.00000  Uiso   1.00
N350   N     0.50000   0.25000   0.04931   0.00000  Uiso   1.00
N351   N     0.75000  -0.00000   0.28402   0.00000  Uiso   1.00
N352   N     0.75000  -0.00000   0.04931   0.00000  Uiso   1.00
O353   O     0.54509   0.20491   0.20625   0.00000  Uiso   1.00
O354   O     0.70492   0.04509   0.12709   0.00000  Uiso   1.00
O355   O     0.70492   0.04509   0.20625   0.00000  Uiso   1.00
O356   O     0.79509   0.45491   0.12709   0.00000  Uiso   1.00
O357   O     0.70492   0.45491   0.12709   0.00000  Uiso   1.00
O358   O     0.79509   0.04509   0.20625   0.00000  Uiso   1.00
O359   O     0.79509   0.04509   0.12709   0.00000  Uiso   1.00
O360   O     0.70492   0.45491   0.20625   0.00000  Uiso   1.00
O361   O     0.95492   0.29509   0.12709   0.00000  Uiso   1.00
O362   O     0.95492   0.29509   0.20625   0.00000  Uiso   1.00
O363   O     0.54509   0.20491   0.12709   0.00000  Uiso   1.00
O364   O     0.95492   0.20491   0.12709   0.00000  Uiso   1.00
O365   O     0.54509   0.29509   0.20625   0.00000  Uiso   1.00
O366   O     0.54509   0.29509   0.12709   0.00000  Uiso   1.00
O367   O     0.95492   0.20491   0.20625   0.00000  Uiso   1.00
O368   O     0.79509   0.45491   0.20625   0.00000  Uiso   1.00
C369   C     0.05638   0.68730   0.16673   0.00000  Uiso   1.00
C370   C     0.03466   0.76511   0.30857   0.00000  Uiso   1.00
C371   C     0.03484   0.76468   0.02478   0.00000  Uiso   1.00
C372   C     0.46534   0.73489   0.30857   0.00000  Uiso   1.00
C373   C     0.23959   0.96255   0.02478   0.00000  Uiso   1.00
C374   C     0.26130   0.53726   0.30854   0.00000  Uiso   1.00
C375   C     0.26041   0.53745   0.02478   0.00000  Uiso   1.00
C376   C     0.23870   0.96274   0.30854   0.00000  Uiso   1.00
C377   C     0.36586   0.66995   0.15367   0.00000  Uiso   1.00
C378   C     0.08347   0.88658   0.18297   0.00000  Uiso   1.00
C379   C     0.13414   0.83005   0.15367   0.00000  Uiso   1.00
C380   C     0.44363   0.81270   0.16673   0.00000  Uiso   1.00
C381   C     0.41653   0.61342   0.18297   0.00000  Uiso   1.00
C382   C     0.10335   0.63443   0.21053   0.00000  Uiso   1.00
C383   C     0.39638   0.86650   0.12469   0.00000  Uiso   1.00
C384   C     0.39665   0.86557   0.21053   0.00000  Uiso   1.00
C385   C     0.10362   0.63350   0.12469   0.00000  Uiso   1.00
C386   C     0.16625   0.86297   0.15049   0.00000  Uiso   1.00
C387   C     0.38393   0.58088   0.18182   0.00000  Uiso   1.00
C388   C     0.33375   0.63703   0.15049   0.00000  Uiso   1.00
C389   C     0.11607   0.91912   0.18182   0.00000  Uiso   1.00
C390   C     0.35699   0.88751   0.21108   0.00000  Uiso   1.00
C391   C     0.44101   0.69028   0.16685   0.00000  Uiso   1.00
C392   C     0.14507   0.61583   0.12500   0.00000  Uiso   1.00
C393   C     0.14301   0.61249   0.21108   0.00000  Uiso   1.00
C394   C     0.35493   0.88417   0.12500   0.00000  Uiso   1.00
C395   C     0.09271   0.84286   0.16766   0.00000  Uiso   1.00
C396   C     0.40729   0.65714   0.16766   0.00000  Uiso   1.00
C397   C     0.41316   0.85008   0.16725   0.00000  Uiso   1.00
C398   C     0.08684   0.64992   0.16725   0.00000  Uiso   1.00
C399   C     0.34276   0.59325   0.16622   0.00000  Uiso   1.00
C400   C     0.15724   0.90675   0.16622   0.00000  Uiso   1.00
C401   C     0.16171   0.59925   0.16774   0.00000  Uiso   1.00
C402   C     0.05899   0.80972   0.16685   0.00000  Uiso   1.00
C403   C     0.33829   0.90075   0.16774   0.00000  Uiso   1.00
C404   C     0.35585   0.71939   0.14598   0.00000  Uiso   1.00
C405   C     0.34852   0.74304   0.19264   0.00000  Uiso   1.00
C406   C     0.03936   0.89815   0.20206   0.00000  Uiso   1.00
C407   C     0.03952   0.89781   0.25579   0.00000  Uiso   1.00
C408   C     0.14415   0.78061   0.14598   0.00000  Uiso   1.00
C409   C     0.15148   0.75696   0.19264   0.00000  Uiso   1.00
C410   C     0.46064   0.60185   0.20206   0.00000  Uiso   1.00
C411   C     0.46049   0.60219   0.25579   0.00000  Uiso   1.00
C412   C     0.07458   0.63257   0.25374   0.00000  Uiso   1.00
C413   C     0.30668   0.93736   0.16685   0.00000  Uiso   1.00
C414   C     0.08459   0.66769   0.29101   0.00000  Uiso   1.00
C415   C     0.42333   0.86930   0.07996   0.00000  Uiso   1.00
C416   C     0.46588   0.89337   0.08794   0.00000  Uiso   1.00
C417   C     0.42542   0.86743   0.25374   0.00000  Uiso   1.00
C418   C     0.41541   0.83231   0.29101   0.00000  Uiso   1.00
C419   C     0.07667   0.63070   0.07996   0.00000  Uiso   1.00
C420   C     0.03412   0.60663   0.08795   0.00000  Uiso   1.00
C421   C     0.20888   0.85209   0.12744   0.00000  Uiso   1.00
C422   C     0.20311   0.84860   0.07419   0.00000  Uiso   1.00
C423   C     0.39355   0.53212   0.19338   0.00000  Uiso   1.00
C424   C     0.19332   0.56264   0.16685   0.00000  Uiso   1.00
C425   C     0.40403   0.50582   0.14911   0.00000  Uiso   1.00
C426   C     0.29112   0.64791   0.12744   0.00000  Uiso   1.00
C427   C     0.29689   0.65140   0.07419   0.00000  Uiso   1.00
C428   C     0.10645   0.96788   0.19338   0.00000  Uiso   1.00
C429   C     0.09598   0.99418   0.14911   0.00000  Uiso   1.00
C430   C     0.33168   0.88929   0.25688   0.00000  Uiso   1.00
C431   C     0.34444   0.92823   0.28878   0.00000  Uiso   1.00
C432   C     0.17295   0.62044   0.08126   0.00000  Uiso   1.00
C433   C     0.17542   0.66856   0.06372   0.00000  Uiso   1.00
C434   C     0.16832   0.61071   0.25688   0.00000  Uiso   1.00
C435   C     0.19097   0.94017   0.16655   0.00000  Uiso   1.00
C436   C     0.15556   0.57177   0.28878   0.00000  Uiso   1.00
C437   C     0.32705   0.87956   0.08126   0.00000  Uiso   1.00
C438   C     0.32458   0.83144   0.06372   0.00000  Uiso   1.00
C439   C     0.30903   0.55983   0.16655   0.00000  Uiso   1.00
C440   C     0.46517   0.73532   0.02478   0.00000  Uiso   1.00
Cu441  Cu    0.00000   0.75000   0.21355   0.00000  Uiso   1.00
Cu442  Cu    0.00000   0.75000   0.11978   0.00000  Uiso   1.00
Cu443  Cu    0.25000   0.50000   0.21355   0.00000  Uiso   1.00
Cu444  Cu    0.25000   0.50000   0.11978   0.00000  Uiso   1.00
H445   H     0.43697   0.72404   0.04324   0.00000  Uiso   1.00
H446   H     0.37721   0.74087   0.21533   0.00000  Uiso   1.00
H447   H     0.34155   0.77869   0.18618   0.00000  Uiso   1.00
H448   H     0.38181   0.73638   0.12645   0.00000  Uiso   1.00
H449   H     0.32743   0.72536   0.12408   0.00000  Uiso   1.00
H450   H     0.03920   0.86306   0.26888   0.00000  Uiso   1.00
H451   H     0.06819   0.91477   0.27027   0.00000  Uiso   1.00
H452   H     0.01082   0.91520   0.26925   0.00000  Uiso   1.00
H453   H     0.02852   0.93079   0.18859   0.00000  Uiso   1.00
H454   H     0.01437   0.87491   0.18958   0.00000  Uiso   1.00
H455   H     0.17912   0.77212   0.21123   0.00000  Uiso   1.00
H456   H     0.06272   0.77678   0.29014   0.00000  Uiso   1.00
H457   H     0.12279   0.75913   0.21533   0.00000  Uiso   1.00
H458   H     0.15845   0.72131   0.18618   0.00000  Uiso   1.00
H459   H     0.11819   0.76362   0.12645   0.00000  Uiso   1.00
H460   H     0.17257   0.77464   0.12408   0.00000  Uiso   1.00
H461   H     0.46080   0.63694   0.26888   0.00000  Uiso   1.00
H462   H     0.43182   0.58523   0.27027   0.00000  Uiso   1.00
H463   H     0.48918   0.58480   0.26925   0.00000  Uiso   1.00
H464   H     0.47148   0.56921   0.18859   0.00000  Uiso   1.00
H465   H     0.48563   0.62509   0.18958   0.00000  Uiso   1.00
H466   H     0.10789   0.65528   0.31689   0.00000  Uiso   1.00
H467   H     0.06303   0.77596   0.04324   0.00000  Uiso   1.00
H468   H     0.09727   0.69870   0.27507   0.00000  Uiso   1.00
H469   H     0.05496   0.67530   0.31074   0.00000  Uiso   1.00
H470   H     0.04087   0.63615   0.24327   0.00000  Uiso   1.00
H471   H     0.07457   0.59883   0.26909   0.00000  Uiso   1.00
H472   H     0.48222   0.89841   0.05377   0.00000  Uiso   1.00
H473   H     0.48736   0.87366   0.11064   0.00000  Uiso   1.00
H474   H     0.46042   0.92637   0.10427   0.00000  Uiso   1.00
H475   H     0.42886   0.83614   0.06436   0.00000  Uiso   1.00
H476   H     0.40681   0.88871   0.05256   0.00000  Uiso   1.00
H477   H     0.39211   0.84472   0.31689   0.00000  Uiso   1.00
H478   H     0.43728   0.72322   0.29014   0.00000  Uiso   1.00
H479   H     0.40273   0.80130   0.27507   0.00000  Uiso   1.00
H480   H     0.44504   0.82470   0.31074   0.00000  Uiso   1.00
H481   H     0.45913   0.86384   0.24327   0.00000  Uiso   1.00
H482   H     0.42543   0.90117   0.26909   0.00000  Uiso   1.00
H483   H     0.03958   0.57363   0.10428   0.00000  Uiso   1.00
H484   H     0.01264   0.62633   0.11064   0.00000  Uiso   1.00
H485   H     0.01778   0.60159   0.05377   0.00000  Uiso   1.00
H486   H     0.07114   0.66386   0.06436   0.00000  Uiso   1.00
H487   H     0.09319   0.61129   0.05256   0.00000  Uiso   1.00
H488   H     0.18475   0.81855   0.06406   0.00000  Uiso   1.00
H489   H     0.23236   0.93239   0.04343   0.00000  Uiso   1.00
H490   H     0.18542   0.87784   0.06079   0.00000  Uiso   1.00
H491   H     0.23456   0.84704   0.05661   0.00000  Uiso   1.00
H492   H     0.23358   0.87752   0.13476   0.00000  Uiso   1.00
H493   H     0.22286   0.82124   0.14204   0.00000  Uiso   1.00
H494   H     0.41100   0.97080   0.15861   0.00000  Uiso   1.00
H495   H     0.37660   0.50609   0.12443   0.00000  Uiso   1.00
H496   H     0.43250   0.52021   0.13138   0.00000  Uiso   1.00
H497   H     0.42010   0.52814   0.21856   0.00000  Uiso   1.00
H498   H     0.36650   0.51590   0.21160   0.00000  Uiso   1.00
H499   H     0.31459   0.62216   0.06079   0.00000  Uiso   1.00
H500   H     0.26976   0.56737   0.28998   0.00000  Uiso   1.00
H501   H     0.26544   0.65296   0.05661   0.00000  Uiso   1.00
H502   H     0.31525   0.68145   0.06406   0.00000  Uiso   1.00
H503   H     0.26642   0.62248   0.13476   0.00000  Uiso   1.00
H504   H     0.27714   0.67876   0.14204   0.00000  Uiso   1.00
H505   H     0.12340   0.99391   0.12443   0.00000  Uiso   1.00
H506   H     0.06750   0.97979   0.13138   0.00000  Uiso   1.00
H507   H     0.08900   0.52920   0.15861   0.00000  Uiso   1.00
H508   H     0.07990   0.97186   0.21856   0.00000  Uiso   1.00
H509   H     0.13350   0.98410   0.21160   0.00000  Uiso   1.00
H510   H     0.37153   0.91968   0.31182   0.00000  Uiso   1.00
H511   H     0.26764   0.56761   0.04343   0.00000  Uiso   1.00
H512   H     0.35288   0.95831   0.26828   0.00000  Uiso   1.00
H513   H     0.31772   0.93625   0.31251   0.00000  Uiso   1.00
H514   H     0.29682   0.89012   0.24987   0.00000  Uiso   1.00
H515   H     0.33453   0.85746   0.27599   0.00000  Uiso   1.00
H516   H     0.19488   0.66999   0.03121   0.00000  Uiso   1.00
H517   H     0.19065   0.69000   0.09075   0.00000  Uiso   1.00
H518   H     0.14359   0.68224   0.05529   0.00000  Uiso   1.00
H519   H     0.20644   0.61144   0.08824   0.00000  Uiso   1.00
H520   H     0.16156   0.59800   0.05318   0.00000  Uiso   1.00
H521   H     0.12847   0.58032   0.31182   0.00000  Uiso   1.00
H522   H     0.23024   0.93263   0.28998   0.00000  Uiso   1.00
H523   H     0.14713   0.54169   0.26828   0.00000  Uiso   1.00
H524   H     0.18228   0.56375   0.31252   0.00000  Uiso   1.00
H525   H     0.20318   0.60988   0.24987   0.00000  Uiso   1.00
H526   H     0.16547   0.64254   0.27599   0.00000  Uiso   1.00
H527   H     0.35641   0.81776   0.05529   0.00000  Uiso   1.00
H528   H     0.30935   0.81000   0.09075   0.00000  Uiso   1.00
H529   H     0.30512   0.83000   0.03121   0.00000  Uiso   1.00
H530   H     0.29356   0.88856   0.08824   0.00000  Uiso   1.00
H531   H     0.33844   0.90200   0.05318   0.00000  Uiso   1.00
H532   H     0.32088   0.72788   0.21123   0.00000  Uiso   1.00
N533   N     0.00000   0.75000   0.28402   0.00000  Uiso   1.00
N534   N     0.00000   0.75000   0.04931   0.00000  Uiso   1.00
N535   N     0.25000   0.50000   0.28402   0.00000  Uiso   1.00
N536   N     0.25000   0.50000   0.04931   0.00000  Uiso   1.00
O537   O     0.04509   0.70491   0.20625   0.00000  Uiso   1.00
O538   O     0.20492   0.54509   0.12709   0.00000  Uiso   1.00
O539   O     0.20492   0.54509   0.20625   0.00000  Uiso   1.00
O540   O     0.29509   0.95491   0.12709   0.00000  Uiso   1.00
O541   O     0.20492   0.95491   0.12709   0.00000  Uiso   1.00
O542   O     0.29509   0.54509   0.20625   0.00000  Uiso   1.00
O543   O     0.29509   0.54509   0.12709   0.00000  Uiso   1.00
O544   O     0.20492   0.95491   0.20625   0.00000  Uiso   1.00
O545   O     0.45492   0.79509   0.12709   0.00000  Uiso   1.00
O546   O     0.45492   0.79509   0.20625   0.00000  Uiso   1.00
O547   O     0.04509   0.70491   0.12709   0.00000  Uiso   1.00
O548   O     0.45492   0.70491   0.12709   0.00000  Uiso   1.00
O549   O     0.04509   0.79509   0.20625   0.00000  Uiso   1.00
O550   O     0.04509   0.79509   0.12709   0.00000  Uiso   1.00
O551   O     0.45492   0.70491   0.20625   0.00000  Uiso   1.00
O552   O     0.29509   0.95491   0.20625   0.00000  Uiso   1.00
C553   C     0.55638   0.68730   0.16673   0.00000  Uiso   1.00
C554   C     0.53466   0.76511   0.30857   0.00000  Uiso   1.00
C555   C     0.53484   0.76468   0.02478   0.00000  Uiso   1.00
C556   C     0.96534   0.73489   0.30857   0.00000  Uiso   1.00
C557   C     0.73959   0.96255   0.02478   0.00000  Uiso   1.00
C558   C     0.76130   0.53726   0.30854   0.00000  Uiso   1.00
C559   C     0.76041   0.53745   0.02478   0.00000  Uiso   1.00
C560   C     0.73870   0.96274   0.30854   0.00000  Uiso   1.00
C561   C     0.86586   0.66995   0.15367   0.00000  Uiso   1.00
C562   C     0.58347   0.88658   0.18297   0.00000  Uiso   1.00
C563   C     0.63414   0.83005   0.15367   0.00000  Uiso   1.00
C564   C     0.94363   0.81270   0.16673   0.00000  Uiso   1.00
C565   C     0.91653   0.61342   0.18297   0.00000  Uiso   1.00
C566   C     0.60335   0.63443   0.21053   0.00000  Uiso   1.00
C567   C     0.89638   0.86650   0.12469   0.00000  Uiso   1.00
C568   C     0.89665   0.86557   0.21053   0.00000  Uiso   1.00
C569   C     0.60362   0.63350   0.12469   0.00000  Uiso   1.00
C570   C     0.66625   0.86297   0.15049   0.00000  Uiso   1.00
C571   C     0.88393   0.58088   0.18182   0.00000  Uiso   1.00
C572   C     0.83375   0.63703   0.15049   0.00000  Uiso   1.00
C573   C     0.61607   0.91912   0.18182   0.00000  Uiso   1.00
C574   C     0.85699   0.88751   0.21108   0.00000  Uiso   1.00
C575   C     0.94101   0.69028   0.16685   0.00000  Uiso   1.00
C576   C     0.64507   0.61583   0.12500   0.00000  Uiso   1.00
C577   C     0.64301   0.61249   0.21108   0.00000  Uiso   1.00
C578   C     0.85493   0.88417   0.12500   0.00000  Uiso   1.00
C579   C     0.59271   0.84286   0.16766   0.00000  Uiso   1.00
C580   C     0.90729   0.65714   0.16766   0.00000  Uiso   1.00
C581   C     0.91316   0.85008   0.16725   0.00000  Uiso   1.00
C582   C     0.58684   0.64992   0.16725   0.00000  Uiso   1.00
C583   C     0.84276   0.59325   0.16622   0.00000  Uiso   1.00
C584   C     0.65724   0.90675   0.16622   0.00000  Uiso   1.00
C585   C     0.66171   0.59925   0.16774   0.00000  Uiso   1.00
C586   C     0.55899   0.80972   0.16685   0.00000  Uiso   1.00
C587   C     0.83829   0.90075   0.16774   0.00000  Uiso   1.00
C588   C     0.85585   0.71939   0.14598   0.00000  Uiso   1.00
C589   C     0.84852   0.74304   0.19264   0.00000  Uiso   1.00
C590   C     0.53936   0.89815   0.20206   0.00000  Uiso   1.00
C591   C     0.53952   0.89781   0.25579   0.00000  Uiso   1.00
C592   C     0.64415   0.78061   0.14598   0.00000  Uiso   1.00
C593   C     0.65148   0.75696   0.19264   0.00000  Uiso   1.00
C594   C     0.96064   0.60185   0.20206   0.00000  Uiso   1.00
C595   C     0.96049   0.60219   0.25579   0.00000  Uiso   1.00
C596   C     0.57458   0.63257   0.25374   0.00000  Uiso   1.00
C597   C     0.80668   0.93736   0.16685   0.00000  Uiso   1.00
C598   C     0.58459   0.66769   0.29101   0.00000  Uiso   1.00
C599   C     0.92333   0.86930   0.07996   0.00000  Uiso   1.00
C600   C     0.96588   0.89337   0.08794   0.00000  Uiso   1.00
C601   C     0.92542   0.86743   0.25374   0.00000  Uiso   1.00
C602   C     0.91541   0.83231   0.29101   0.00000  Uiso   1.00
C603   C     0.57667   0.63070   0.07996   0.00000  Uiso   1.00
C604   C     0.53412   0.60663   0.08795   0.00000  Uiso   1.00
C605   C     0.70888   0.85209   0.12744   0.00000  Uiso   1.00
C606   C     0.70311   0.84860   0.07419   0.00000  Uiso   1.00
C607   C     0.89355   0.53212   0.19338   0.00000  Uiso   1.00
C608   C     0.69332   0.56264   0.16685   0.00000  Uiso   1.00
C609   C     0.90403   0.50582   0.14911   0.00000  Uiso   1.00
C610   C     0.79112   0.64791   0.12744   0.00000  Uiso   1.00
C611   C     0.79689   0.65140   0.07419   0.00000  Uiso   1.00
C612   C     0.60645   0.96788   0.19338   0.00000  Uiso   1.00
C613   C     0.59598   0.99418   0.14911   0.00000  Uiso   1.00
C614   C     0.83168   0.88929   0.25688   0.00000  Uiso   1.00
C615   C     0.84444   0.92823   0.28878   0.00000  Uiso   1.00
C616   C     0.67295   0.62044   0.08126   0.00000  Uiso   1.00
C617   C     0.67542   0.66856   0.06372   0.00000  Uiso   1.00
C618   C     0.66832   0.61071   0.25688   0.00000  Uiso   1.00
C619   C     0.69097   0.94017   0.16655   0.00000  Uiso   1.00
C620   C     0.65556   0.57177   0.28878   0.00000  Uiso   1.00
C621   C     0.82705   0.87956   0.08126   0.00000  Uiso   1.00
C622   C     0.82458   0.83144   0.06372   0.00000  Uiso   1.00
C623   C     0.80903   0.55983   0.16655   0.00000  Uiso   1.00
C624   C     0.96517   0.73532   0.02478   0.00000  Uiso   1.00
Cu625  Cu    0.50000   0.75000   0.21355   0.00000  Uiso   1.00
Cu626  Cu    0.50000   0.75000   0.11978   0.00000  Uiso   1.00
Cu627  Cu    0.75000   0.50000   0.21355   0.00000  Uiso   1.00
Cu628  Cu    0.75000   0.50000   0.11978   0.00000  Uiso   1.00
H629   H     0.93697   0.72404   0.04324   0.00000  Uiso   1.00
H630   H     0.87721   0.74087   0.21533   0.00000  Uiso   1.00
H631   H     0.84155   0.77869   0.18618   0.00000  Uiso   1.00
H632   H     0.88181   0.73638   0.12645   0.00000  Uiso   1.00
H633   H     0.82743   0.72536   0.12408   0.00000  Uiso   1.00
H634   H     0.53920   0.86306   0.26888   0.00000  Uiso   1.00
H635   H     0.56819   0.91477   0.27027   0.00000  Uiso   1.00
H636   H     0.51082   0.91520   0.26925   0.00000  Uiso   1.00
H637   H     0.52852   0.93079   0.18859   0.00000  Uiso   1.00
H638   H     0.51437   0.87491   0.18958   0.00000  Uiso   1.00
H639   H     0.67912   0.77212   0.21123   0.00000  Uiso   1.00
H640   H     0.56272   0.77678   0.29014   0.00000  Uiso   1.00
H641   H     0.62279   0.75913   0.21533   0.00000  Uiso   1.00
H642   H     0.65845   0.72131   0.18618   0.00000  Uiso   1.00
H643   H     0.61819   0.76362   0.12645   0.00000  Uiso   1.00
H644   H     0.67257   0.77464   0.12408   0.00000  Uiso   1.00
H645   H     0.96080   0.63694   0.26888   0.00000  Uiso   1.00
H646   H     0.93182   0.58523   0.27027   0.00000  Uiso   1.00
H647   H     0.98918   0.58480   0.26925   0.00000  Uiso   1.00
H648   H     0.97148   0.56921   0.18859   0.00000  Uiso   1.00
H649   H     0.98563   0.62509   0.18958   0.00000  Uiso   1.00
H650   H     0.60789   0.65528   0.31689   0.00000  Uiso   1.00
H651   H     0.56303   0.77596   0.04324   0.00000  Uiso   1.00
H652   H     0.59727   0.69870   0.27507   0.00000  Uiso   1.00
H653   H     0.55496   0.67530   0.31074   0.00000  Uiso   1.00
H654   H     0.54087   0.63615   0.24327   0.00000  Uiso   1.00
H655   H     0.57457   0.59883   0.26909   0.00000  Uiso   1.00
H656   H     0.98222   0.89841   0.05377   0.00000  Uiso   1.00
H657   H     0.98736   0.87366   0.11064   0.00000  Uiso   1.00
H658   H     0.96042   0.92637   0.10427   0.00000  Uiso   1.00
H659   H     0.92886   0.83614   0.06436   0.00000  Uiso   1.00
H660   H     0.90681   0.88871   0.05256   0.00000  Uiso   1.00
H661   H     0.89211   0.84472   0.31689   0.00000  Uiso   1.00
H662   H     0.93728   0.72322   0.29014   0.00000  Uiso   1.00
H663   H     0.90273   0.80130   0.27507   0.00000  Uiso   1.00
H664   H     0.94504   0.82470   0.31074   0.00000  Uiso   1.00
H665   H     0.95913   0.86384   0.24327   0.00000  Uiso   1.00
H666   H     0.92543   0.90117   0.26909   0.00000  Uiso   1.00
H667   H     0.53958   0.57363   0.10428   0.00000  Uiso   1.00
H668   H     0.51264   0.62633   0.11064   0.00000  Uiso   1.00
H669   H     0.51778   0.60159   0.05377   0.00000  Uiso   1.00
H670   H     0.57114   0.66386   0.06436   0.00000  Uiso   1.00
H671   H     0.59319   0.61129   0.05256   0.00000  Uiso   1.00
H672   H     0.68475   0.81855   0.06406   0.00000  Uiso   1.00
H673   H     0.73236   0.93239   0.04343   0.00000  Uiso   1.00
H674   H     0.68542   0.87784   0.06079   0.00000  Uiso   1.00
H675   H     0.73456   0.84704   0.05661   0.00000  Uiso   1.00
H676   H     0.73358   0.87752   0.13476   0.00000  Uiso   1.00
H677   H     0.72286   0.82124   0.14204   0.00000  Uiso   1.00
H678   H     0.91100   0.97080   0.15861   0.00000  Uiso   1.00
H679   H     0.87660   0.50609   0.12443   0.00000  Uiso   1.00
H680   H     0.93250   0.52021   0.13138   0.00000  Uiso   1.00
H681   H     0.92010   0.52814   0.21856   0.00000  Uiso   1.00
H682   H     0.86650   0.51590   0.21160   0.00000  Uiso   1.00
H683   H     0.81459   0.62216   0.06079   0.00000  Uiso   1.00
H684   H     0.76976   0.56737   0.28998   0.00000  Uiso   1.00
H685   H     0.76544   0.65296   0.05661   0.00000  Uiso   1.00
H686   H     0.81525   0.68145   0.06406   0.00000  Uiso   1.00
H687   H     0.76642   0.62248   0.13476   0.00000  Uiso   1.00
H688   H     0.77714   0.67876   0.14204   0.00000  Uiso   1.00
H689   H     0.62340   0.99391   0.12443   0.00000  Uiso   1.00
H690   H     0.56750   0.97979   0.13138   0.00000  Uiso   1.00
H691   H     0.58900   0.52920   0.15861   0.00000  Uiso   1.00
H692   H     0.57990   0.97186   0.21856   0.00000  Uiso   1.00
H693   H     0.63350   0.98410   0.21160   0.00000  Uiso   1.00
H694   H     0.87153   0.91968   0.31182   0.00000  Uiso   1.00
H695   H     0.76764   0.56761   0.04343   0.00000  Uiso   1.00
H696   H     0.85288   0.95831   0.26828   0.00000  Uiso   1.00
H697   H     0.81772   0.93625   0.31251   0.00000  Uiso   1.00
H698   H     0.79682   0.89012   0.24987   0.00000  Uiso   1.00
H699   H     0.83453   0.85746   0.27599   0.00000  Uiso   1.00
H700   H     0.69488   0.66999   0.03121   0.00000  Uiso   1.00
H701   H     0.69065   0.69000   0.09075   0.00000  Uiso   1.00
H702   H     0.64359   0.68224   0.05529   0.00000  Uiso   1.00
H703   H     0.70644   0.61144   0.08824   0.00000  Uiso   1.00
H704   H     0.66156   0.59800   0.05318   0.00000  Uiso   1.00
H705   H     0.62847   0.58032   0.31182   0.00000  Uiso   1.00
H706   H     0.73024   0.93263   0.28998   0.00000  Uiso   1.00
H707   H     0.64713   0.54169   0.26828   0.00000  Uiso   1.00
H708   H     0.68228   0.56375   0.31252   0.00000  Uiso   1.00
H709   H     0.70318   0.60988   0.24987   0.00000  Uiso   1.00
H710   H     0.66547   0.64254   0.27599   0.00000  Uiso   1.00
H711   H     0.85641   0.81776   0.05529   0.00000  Uiso   1.00
H712   H     0.80935   0.81000   0.09075   0.00000  Uiso   1.00
H713   H     0.80512   0.83000   0.03121   0.00000  Uiso   1.00
H714   H     0.79356   0.88856   0.08824   0.00000  Uiso   1.00
H715   H     0.83844   0.90200   0.05318   0.00000  Uiso   1.00
H716   H     0.82088   0.72788   0.21123   0.00000  Uiso   1.00
N717   N     0.50000   0.75000   0.28402   0.00000  Uiso   1.00
N718   N     0.50000   0.75000   0.04931   0.00000  Uiso   1.00
N719   N     0.75000   0.50000   0.28402   0.00000  Uiso   1.00
N720   N     0.75000   0.50000   0.04931   0.00000  Uiso   1.00
O721   O     0.54509   0.70491   0.20625   0.00000  Uiso   1.00
O722   O     0.70492   0.54509   0.12709   0.00000  Uiso   1.00
O723   O     0.70492   0.54509   0.20625   0.00000  Uiso   1.00
O724   O     0.79509   0.95491   0.12709   0.00000  Uiso   1.00
O725   O     0.70492   0.95491   0.12709   0.00000  Uiso   1.00
O726   O     0.79509   0.54509   0.20625   0.00000  Uiso   1.00
O727   O     0.79509   0.54509   0.12709   0.00000  Uiso   1.00
O728   O     0.70492   0.95491   0.20625   0.00000  Uiso   1.00
O729   O     0.95492   0.79509   0.12709   0.00000  Uiso   1.00
O730   O     0.95492   0.79509   0.20625   0.00000  Uiso   1.00
O731   O     0.54509   0.70491   0.12709   0.00000  Uiso   1.00
O732   O     0.95492   0.70491   0.12709   0.00000  Uiso   1.00
O733   O     0.54509   0.79509   0.20625   0.00000  Uiso   1.00
O734   O     0.54509   0.79509   0.12709   0.00000  Uiso   1.00
O735   O     0.95492   0.70491   0.20625   0.00000  Uiso   1.00
O736   O     0.79509   0.95491   0.20625   0.00000  Uiso   1.00
C737   C     0.05638   0.18730   0.50006   0.00000  Uiso   1.00
C738   C     0.03466   0.26511   0.64191   0.00000  Uiso   1.00
C739   C     0.03484   0.26468   0.35812   0.00000  Uiso   1.00
C740   C     0.46534   0.23489   0.64191   0.00000  Uiso   1.00
C741   C     0.23959   0.46255   0.35812   0.00000  Uiso   1.00
C742   C     0.26130   0.03726   0.64188   0.00000  Uiso   1.00
C743   C     0.26041   0.03745   0.35812   0.00000  Uiso   1.00
C744   C     0.23870   0.46274   0.64188   0.00000  Uiso   1.00
C745   C     0.36586   0.16995   0.48700   0.00000  Uiso   1.00
C746   C     0.08347   0.38658   0.51630   0.00000  Uiso   1.00
C747   C     0.13414   0.33005   0.48700   0.00000  Uiso   1.00
C748   C     0.44363   0.31270   0.50006   0.00000  Uiso   1.00
C749   C     0.41653   0.11342   0.51630   0.00000  Uiso   1.00
C750   C     0.10335   0.13443   0.54386   0.00000  Uiso   1.00
C751   C     0.39638   0.36650   0.45802   0.00000  Uiso   1.00
C752   C     0.39665   0.36557   0.54386   0.00000  Uiso   1.00
C753   C     0.10362   0.13350   0.45802   0.00000  Uiso   1.00
C754   C     0.16625   0.36297   0.48382   0.00000  Uiso   1.00
C755   C     0.38393   0.08088   0.51516   0.00000  Uiso   1.00
C756   C     0.33375   0.13703   0.48382   0.00000  Uiso   1.00
C757   C     0.11607   0.41912   0.51516   0.00000  Uiso   1.00
C758   C     0.35699   0.38751   0.54441   0.00000  Uiso   1.00
C759   C     0.44101   0.19028   0.50019   0.00000  Uiso   1.00
C760   C     0.14507   0.11583   0.45834   0.00000  Uiso   1.00
C761   C     0.14301   0.11249   0.54441   0.00000  Uiso   1.00
C762   C     0.35493   0.38417   0.45834   0.00000  Uiso   1.00
C763   C     0.09271   0.34286   0.50099   0.00000  Uiso   1.00
C764   C     0.40729   0.15714   0.50099   0.00000  Uiso   1.00
C765   C     0.41316   0.35008   0.50058   0.00000  Uiso   1.00
C766   C     0.08684   0.14992   0.50058   0.00000  Uiso   1.00
C767   C     0.34276   0.09325   0.49956   0.00000  Uiso   1.00
C768   C     0.15724   0.40675   0.49956   0.00000  Uiso   1.00
C769   C     0.16171   0.09925   0.50107   0.00000  Uiso   1.00
C770   C     0.05899   0.30972   0.50019   0.00000  Uiso   1.00
C771   C     0.33829   0.40075   0.50107   0.00000  Uiso   1.00
C772   C     0.35585   0.21939   0.47931   0.00000  Uiso   1.00
C773   C     0.34852   0.24304   0.52597   0.00000  Uiso   1.00
C774   C     0.03936   0.39815   0.53539   0.00000  Uiso   1.00
C775   C     0.03952   0.39781   0.58912   0.00000  Uiso   1.00
C776   C     0.14415   0.28061   0.47931   0.00000  Uiso   1.00
C777   C     0.15148   0.25696   0.52597   0.00000  Uiso   1.00
C778   C     0.46064   0.10185   0.53539   0.00000  Uiso   1.00
C779   C     0.46049   0.10219   0.58912   0.00000  Uiso   1.00
C780   C     0.07458   0.13257   0.58708   0.00000  Uiso   1.00
C781   C     0.30668   0.43736   0.50018   0.00000  Uiso   1.00
C782   C     0.08459   0.16769   0.62435   0.00000  Uiso   1.00
C783   C     0.42333   0.36930   0.41329   0.00000  Uiso   1.00
C784   C     0.46588   0.39337   0.42128   0.00000  Uiso   1.00
C785   C     0.42542   0.36743   0.58708   0.00000  Uiso   1.00
C786   C     0.41541   0.33231   0.62435   0.00000  Uiso   1.00
C787   C     0.07667   0.13070   0.41330   0.00000  Uiso   1.00
C788   C     0.03412   0.10663   0.42128   0.00000  Uiso   1.00
C789   C     0.20888   0.35209   0.46078   0.00000  Uiso   1.00
C790   C     0.20311   0.34860   0.40752   0.00000  Uiso   1.00
C791   C     0.39355   0.03212   0.52672   0.00000  Uiso   1.00
C792   C     0.19332   0.06264   0.50018   0.00000  Uiso   1.00
C793   C     0.40403   0.00582   0.48244   0.00000  Uiso   1.00
C794   C     0.29112   0.14791   0.46078   0.00000  Uiso   1.00
C795   C     0.29689   0.15140   0.40752   0.00000  Uiso   1.00
C796   C     0.10645   0.46788   0.52672   0.00000  Uiso   1.00
C797   C     0.09598   0.49418   0.48244   0.00000  Uiso   1.00
C798   C     0.33168   0.38929   0.59021   0.00000  Uiso   1.00
C799   C     0.34444   0.42823   0.62211   0.00000  Uiso   1.00
C800   C     0.17295   0.12044   0.41459   0.00000  Uiso   1.00
C801   C     0.17542   0.16856   0.39705   0.00000  Uiso   1.00
C802   C     0.16832   0.11071   0.59021   0.00000  Uiso   1.00
C803   C     0.19097   0.44017   0.49989   0.00000  Uiso   1.00
C804   C     0.15556   0.07177   0.62211   0.00000  Uiso   1.00
C805   C     0.32705   0.37956   0.41459   0.00000  Uiso   1.00
C806   C     0.32458   0.33144   0.39705   0.00000  Uiso   1.00
C807   C     0.30903   0.05983   0.49989   0.00000  Uiso   1.00
C808   C     0.46517   0.23532   0.35812   0.00000  Uiso   1.00
Cu809  Cu    0.00000   0.25000   0.54689   0.00000  Uiso   1.00
Cu810  Cu    0.00000   0.25000   0.45311   0.00000  Uiso   1.00
Cu811  Cu    0.25000  -0.00000   0.54689   0.00000  Uiso   1.00
Cu812  Cu    0.25000  -0.00000   0.45311   0.00000  Uiso   1.00
H813   H     0.43697   0.22404   0.37657   0.00000  Uiso   1.00
H814   H     0.37721   0.24087   0.54866   0.00000  Uiso   1.00
H815   H     0.34155   0.27869   0.51951   0.00000  Uiso   1.00
H816   H     0.38181   0.23638   0.45978   0.00000  Uiso   1.00
H817   H     0.32743   0.22536   0.45742   0.00000  Uiso   1.00
H818   H     0.03920   0.36306   0.60222   0.00000  Uiso   1.00
H819   H     0.06819   0.41477   0.60361   0.00000  Uiso   1.00
H820   H     0.01082   0.41520   0.60258   0.00000  Uiso   1.00
H821   H     0.02852   0.43079   0.52192   0.00000  Uiso   1.00
H822   H     0.01437   0.37491   0.52291   0.00000  Uiso   1.00
H823   H     0.17912   0.27212   0.54456   0.00000  Uiso   1.00
H824   H     0.06272   0.27678   0.62347   0.00000  Uiso   1.00
H825   H     0.12279   0.25913   0.54866   0.00000  Uiso   1.00
H826   H     0.15845   0.22131   0.51951   0.00000  Uiso   1.00
H827   H     0.11819   0.26362   0.45978   0.00000  Uiso   1.00
H828   H     0.17257   0.27464   0.45742   0.00000  Uiso   1.00
H829   H     0.46080   0.13694   0.60222   0.00000  Uiso   1.00
H830   H     0.43182   0.08523   0.60361   0.00000  Uiso   1.00
H831   H     0.48918   0.08480   0.60258   0.00000  Uiso   1.00
H832   H     0.47148   0.06921   0.52192   0.00000  Uiso   1.00
H833   H     0.48563   0.12509   0.52291   0.00000  Uiso   1.00
H834   H     0.10789   0.15528   0.65022   0.00000  Uiso   1.00
H835   H     0.06303   0.27596   0.37657   0.00000  Uiso   1.00
H836   H     0.09727   0.19870   0.60840   0.00000  Uiso   1.00
H837   H     0.05496   0.17530   0.64407   0.00000  Uiso   1.00
H838   H     0.04087   0.13615   0.57661   0.00000  Uiso   1.00
H839   H     0.07457   0.09883   0.60243   0.00000  Uiso   1.00
H840   H     0.48222   0.39841   0.38710   0.00000  Uiso   1.00
H841   H     0.48736   0.37366   0.44397   0.00000  Uiso   1.00
H842   H     0.46042   0.42637   0.43761   0.00000  Uiso   1.00
H843   H     0.42886   0.33614   0.39769   0.00000  Uiso   1.00
H844   H     0.40681   0.38871   0.38589   0.00000  Uiso   1.00
H845   H     0.39211   0.34472   0.65022   0.00000  Uiso   1.00
H846   H     0.43728   0.22322   0.62347   0.00000  Uiso   1.00
H847   H     0.40273   0.30130   0.60840   0.00000  Uiso   1.00
H848   H     0.44504   0.32470   0.64407   0.00000  Uiso   1.00
H849   H     0.45913   0.36384   0.57661   0.00000  Uiso   1.00
H850   H     0.42543   0.40117   0.60243   0.00000  Uiso   1.00
H851   H     0.03958   0.07363   0.43761   0.00000  Uiso   1.00
H852   H     0.01264   0.12633   0.44397   0.00000  Uiso   1.00
H853   H     0.01778   0.10159   0.38710   0.00000  Uiso   1.00
H854   H     0.07114   0.16386   0.39769   0.00000  Uiso   1.00
H855   H     0.09319   0.11129   0.38589   0.00000  Uiso   1.00
H856   H     0.18475   0.31855   0.39740   0.00000  Uiso   1.00
H857   H     0.23236   0.43239   0.37676   0.00000  Uiso   1.00
H858   H     0.18542   0.37784   0.39413   0.00000  Uiso   1.00
H859   H     0.23456   0.34704   0.38994   0.00000  Uiso   1.00
H860   H     0.23358   0.37752   0.46809   0.00000  Uiso   1.00
H861   H     0.22286   0.32124   0.47537   0.00000  Uiso   1.00
H862   H     0.41100   0.47080   0.49195   0.00000  Uiso   1.00
H863   H     0.37660   0.00609   0.45776   0.00000  Uiso   1.00
H864   H     0.43250   0.02021   0.46471   0.00000  Uiso   1.00
H865   H     0.42010   0.02814   0.55190   0.00000  Uiso   1.00
H866   H     0.36650   0.01590   0.54494   0.00000  Uiso   1.00
H867   H     0.31459   0.12216   0.39413   0.00000  Uiso   1.00
H868   H     0.26976   0.06737   0.62332   0.00000  Uiso   1.00
H869   H     0.26544   0.15296   0.38994   0.00000  Uiso   1.00
H870   H     0.31525   0.18145   0.39740   0.00000  Uiso   1.00
H871   H     0.26642   0.12248   0.46809   0.00000  Uiso   1.00
H872   H     0.27714   0.17876   0.47537   0.00000  Uiso   1.00
H873   H     0.12340   0.49391   0.45776   0.00000  Uiso   1.00
H874   H     0.06750   0.47979   0.46471   0.00000  Uiso   1.00
H875   H     0.08900   0.02920   0.49195   0.00000  Uiso   1.00
H876   H     0.07990   0.47186   0.55190   0.00000  Uiso   1.00
H877   H     0.13350   0.48410   0.54494   0.00000  Uiso   1.00
H878   H     0.37153   0.41968   0.64515   0.00000  Uiso   1.00
H879   H     0.26764   0.06761   0.37676   0.00000  Uiso   1.00
H880   H     0.35288   0.45831   0.60161   0.00000  Uiso   1.00
H881   H     0.31772   0.43625   0.64584   0.00000  Uiso   1.00
H882   H     0.29682   0.39012   0.58320   0.00000  Uiso   1.00
H883   H     0.33453   0.35746   0.60932   0.00000  Uiso   1.00
H884   H     0.19488   0.16999   0.36455   0.00000  Uiso   1.00
H885   H     0.19065   0.19000   0.42409   0.00000  Uiso   1.00
H886   H     0.14359   0.18224   0.38862   0.00000  Uiso   1.00
H887   H     0.20644   0.11144   0.42157   0.00000  Uiso   1.00
H888   H     0.16156   0.09800   0.38652   0.00000  Uiso   1.00
H889   H     0.12847   0.08032   0.64515   0.00000  Uiso   1.00
H890   H     0.23024   0.43263   0.62332   0.00000  Uiso   1.00
H891   H     0.14713   0.04169   0.60161   0.00000  Uiso   1.00
H892   H     0.18228   0.06375   0.64585   0.00000  Uiso   1.00
H893   H     0.20318   0.10988   0.58320   0.00000  Uiso   1.00
H894   H     0.16547   0.14254   0.60932   0.00000  Uiso   1.00
H895   H     0.35641   0.31776   0.38862   0.00000  Uiso   1.00
H896   H     0.30935   0.31000   0.42409   0.00000  Uiso   1.00
H897   H     0.30512   0.33000   0.36455   0.00000  Uiso   1.00
H898   H     0.29356   0.38856   0.42157   0.00000  Uiso   1.00
H899   H     0.33844   0.40200   0.38652   0.00000  Uiso   1.00
H900   H     0.32088   0.22788   0.54456   0.00000  Uiso   1.00
N901   N     0.00000   0.25000   0.61736   0.00000  Uiso   1.00
N902   N     0.00000   0.25000   0.38264   0.00000  Uiso   1.00
N903   N     0.25000  -0.00000   0.61736   0.00000  Uiso   1.00
N904   N     0.25000  -0.00000   0.38264   0.00000  Uiso   1.00
O905   O     0.04509   0.20491   0.53958   0.00000  Uiso   1.00
O906   O     0.20492   0.04509   0.46042   0.00000  Uiso   1.00
O907   O     0.20492   0.04509   0.53958   0.00000  Uiso   1.00
O908   O     0.29509   0.45491   0.46042   0.00000  Uiso   1.00
O909   O     0.20492   0.45491   0.46042   0.00000  Uiso   1.00
O910   O     0.29509   0.04509   0.53958   0.00000  Uiso   1.00
O911   O     0.29509   0.04509   0.46042   0.00000  Uiso   1.00
O912   O     0.20492   0.45491   0.53958   0.00000  Uiso   1.00
O913   O     0.45492   0.29509   0.46042   0.00000  Uiso   1.00
O914   O     0.45492   0.29509   0.53958   0.00000  Uiso   1.00
O915   O     0.04509   0.20491   0.46042   0.00000  Uiso   1.00
O916   O     0.45492   0.20491   0.46042   0.00000  Uiso   1.00
O917   O     0.04509   0.29509   0.53958   0.00000  Uiso   1.00
O918   O     0.04509   0.29509   0.46042   0.00000  Uiso   1.00
O919   O     0.45492   0.20491   0.53958   0.00000  Uiso   1.00
O920   O     0.29509   0.45491   0.53958   0.00000  Uiso   1.00
C921   C     0.55638   0.18730   0.50006   0.00000  Uiso   1.00
C922   C     0.53466   0.26511   0.64191   0.00000  Uiso   1.00
C923   C     0.53484   0.26468   0.35812   0.00000  Uiso   1.00
C924   C     0.96534   0.23489   0.64191   0.00000  Uiso   1.00
C925   C     0.73959   0.46255   0.35812   0.00000  Uiso   1.00
C926   C     0.76130   0.03726   0.64188   0.00000  Uiso   1.00
C927   C     0.76041   0.03745   0.35812   0.00000  Uiso   1.00
C928   C     0.73870   0.46274   0.64188   0.00000  Uiso   1.00
C929   C     0.86586   0.16995   0.48700   0.00000  Uiso   1.00
C930   C     0.58347   0.38658   0.51630   0.00000  Uiso   1.00
C931   C     0.63414   0.33005   0.48700   0.00000  Uiso   1.00
C932   C     0.94363   0.31270   0.50006   0.00000  Uiso   1.00
C933   C     0.91653   0.11342   0.51630   0.00000  Uiso   1.00
C934   C     0.60335   0.13443   0.54386   0.00000  Uiso   1.00
C935   C     0.89638   0.36650   0.45802   0.00000  Uiso   1.00
C936   C     0.89665   0.36557   0.54386   0.00000  Uiso   1.00
C937   C     0.60362   0.13350   0.45802   0.00000  Uiso   1.00
C938   C     0.66625   0.36297   0.48382   0.00000  Uiso   1.00
C939   C     0.88393   0.08088   0.51516   0.00000  Uiso   1.00
C940   C     0.83375   0.13703   0.48382   0.00000  Uiso   1.00
C941   C     0.61607   0.41912   0.51516   0.00000  Uiso   1.00
C942   C     0.85699   0.38751   0.54441   0.00000  Uiso   1.00
C943   C     0.94101   0.19028   0.50019   0.00000  Uiso   1.00
C944   C     0.64507   0.11583   0.45834   0.00000  Uiso   1.00
C945   C     0.64301   0.11249   0.54441   0.00000  Uiso   1.00
C946   C     0.85493   0.38417   0.45834   0.00000  Uiso   1.00
C947   C     0.59271   0.34286   0.50099   0.00000  Uiso   1.00
C948   C     0.90729   0.15714   0.50099   0.00000  Uiso   1.00
C949   C     0.91316   0.35008   0.50058   0.00000  Uiso   1.00
C950   C     0.58684   0.14992   0.50058   0.00000  Uiso   1.00
C951   C     0.84276   0.09325   0.49956   0.00000  Uiso   1.00
C952   C     0.65724   0.40675   0.49956   0.00000  Uiso   1.00
C953   C     0.66171   0.09925   0.50107   0.00000  Uiso   1.00
C954   C     0.55899   0.30972   0.50019   0.00000  Uiso   1.00
C955   C     0.83829   0.40075   0.50107   0.00000  Uiso   1.00
C956   C     0.85585   0.21939   0.47931   0.00000  Uiso   1.00
C957   C     0.84852   0.24304   0.52597   0.00000  Uiso   1.00
C958   C     0.53936   0.39815   0.53539   0.00000  Uiso   1.00
C959   C     0.53952   0.39781   0.58912   0.00000  Uiso   1.00
C960   C     0.64415   0.28061   0.47931   0.00000  Uiso   1.00
C961   C     0.65148   0.25696   0.52597   0.00000  Uiso   1.00
C962   C     0.96064   0.10185   0.53539   0.00000  Uiso   1.00
C963   C     0.96049   0.10219   0.58912   0.00000  Uiso   1.00
C964   C     0.57458   0.13257   0.58708   0.00000  Uiso   1.00
C965   C     0.80668   0.43736   0.50018   0.00000  Uiso   1.00
C966   C     0.58459   0.16769   0.62435   0.00000  Uiso   1.00
C967   C     0.92333   0.36930   0.41329   0.00000  Uiso   1.00
C968   C     0.96588   0.39337   0.42128   0.00000  Uiso   1.00
C969   C     0.92542   0.36743   0.58708   0.00000  Uiso   1.00
C970   C     0.91541   0.33231   0.62435   0.00000  Uiso   1.00
C971   C     0.57667   0.13070   0.41330   0.00000  Uiso   1.00
C972   C     0.53412   0.10663   0.42128   0.00000  Uiso   1.00
C973   C     0.70888   0.35209   0.46078   0.00000  Uiso   1.00
C974   C     0.70311   0.34860   0.40752   0.00000  Uiso   1.00
C975   C     0.89355   0.03212   0.52672   0.00000  Uiso   1.00
C976   C     0.69332   0.06264   0.50018   0.00000  Uiso   1.00
C977   C     0.90403   0.00582   0.48244   0.00000  Uiso   1.00
C978   C     0.79112   0.14791   0.46078   0.00000  Uiso   1.00
C979   C     0.79689   0.15140   0.40752   0.00000  Uiso   1.00
C980   C     0.60645   0.46788   0.52672   0.00000  Uiso   1.00
C981   C     0.59598   0.49418   0.48244   0.00000  Uiso   1.00
C982   C     0.83168   0.38929   0.59021   0.00000  Uiso   1.00
C983   C     0.84444   0.42823   0.62211   0.00000  Uiso   1.00
C984   C     0.67295   0.12044   0.41459   0.00000  Uiso   1.00
C985   C     0.67542   0.16856   0.39705   0.00000  Uiso   1.00
C986   C     0.66832   0.11071   0.59021   0.00000  Uiso   1.00
C987   C     0.69097   0.44017   0.49989   0.00000  Uiso   1.00
C988   C     0.65556   0.07177   0.62211   0.00000  Uiso   1.00
C989   C     0.82705   0.37956   0.41459   0.00000  Uiso   1.00
C990   C     0.82458   0.33144   0.39705   0.00000  Uiso   1.00
C991   C     0.80903   0.05983   0.49989   0.00000  Uiso   1.00
C992   C     0.96517   0.23532   0.35812   0.00000  Uiso   1.00
Cu993  Cu    0.50000   0.25000   0.54689   0.00000  Uiso   1.00
Cu994  Cu    0.50000   0.25000   0.45311   0.00000  Uiso   1.00
Cu995  Cu    0.75000  -0.00000   0.54689   0.00000  Uiso   1.00
Cu996  Cu    0.75000  -0.00000   0.45311   0.00000  Uiso   1.00
H997   H     0.93697   0.22404   0.37657   0.00000  Uiso   1.00
H998   H     0.87721   0.24087   0.54866   0.00000  Uiso   1.00
H999   H     0.84155   0.27869   0.51951   0.00000  Uiso   1.00
H1000  H     0.88181   0.23638   0.45978   0.00000  Uiso   1.00
H1001  H     0.82743   0.22536   0.45742   0.00000  Uiso   1.00
H1002  H     0.53920   0.36306   0.60222   0.00000  Uiso   1.00
H1003  H     0.56819   0.41477   0.60361   0.00000  Uiso   1.00
H1004  H     0.51082   0.41520   0.60258   0.00000  Uiso   1.00
H1005  H     0.52852   0.43079   0.52192   0.00000  Uiso   1.00
H1006  H     0.51437   0.37491   0.52291   0.00000  Uiso   1.00
H1007  H     0.67912   0.27212   0.54456   0.00000  Uiso   1.00
H1008  H     0.56272   0.27678   0.62347   0.00000  Uiso   1.00
H1009  H     0.62279   0.25913   0.54866   0.00000  Uiso   1.00
H1010  H     0.65845   0.22131   0.51951   0.00000  Uiso   1.00
H1011  H     0.61819   0.26362   0.45978   0.00000  Uiso   1.00
H1012  H     0.67257   0.27464   0.45742   0.00000  Uiso   1.00
H1013  H     0.96080   0.13694   0.60222   0.00000  Uiso   1.00
H1014  H     0.93182   0.08523   0.60361   0.00000  Uiso   1.00
H1015  H     0.98918   0.08480   0.60258   0.00000  Uiso   1.00
H1016  H     0.97148   0.06921   0.52192   0.00000  Uiso   1.00
H1017  H     0.98563   0.12509   0.52291   0.00000  Uiso   1.00
H1018  H     0.60789   0.15528   0.65022   0.00000  Uiso   1.00
H1019  H     0.56303   0.27596   0.37657   0.00000  Uiso   1.00
H1020  H     0.59727   0.19870   0.60840   0.00000  Uiso   1.00
H1021  H     0.55496   0.17530   0.64407   0.00000  Uiso   1.00
H1022  H     0.54087   0.13615   0.57661   0.00000  Uiso   1.00
H1023  H     0.57457   0.09883   0.60243   0.00000  Uiso   1.00
H1024  H     0.98222   0.39841   0.38710   0.00000  Uiso   1.00
H1025  H     0.98736   0.37366   0.44397   0.00000  Uiso   1.00
H1026  H     0.96042   0.42637   0.43761   0.00000  Uiso   1.00
H1027  H     0.92886   0.33614   0.39769   0.00000  Uiso   1.00
H1028  H     0.90681   0.38871   0.38589   0.00000  Uiso   1.00
H1029  H     0.89211   0.34472   0.65022   0.00000  Uiso   1.00
H1030  H     0.93728   0.22322   0.62347   0.00000  Uiso   1.00
H1031  H     0.90273   0.30130   0.60840   0.00000  Uiso   1.00
H1032  H     0.94504   0.32470   0.64407   0.00000  Uiso   1.00
H1033  H     0.95913   0.36384   0.57661   0.00000  Uiso   1.00
H1034  H     0.92543   0.40117   0.60243   0.00000  Uiso   1.00
H1035  H     0.53958   0.07363   0.43761   0.00000  Uiso   1.00
H1036  H     0.51264   0.12633   0.44397   0.00000  Uiso   1.00
H1037  H     0.51778   0.10159   0.38710   0.00000  Uiso   1.00
H1038  H     0.57114   0.16386   0.39769   0.00000  Uiso   1.00
H1039  H     0.59319   0.11129   0.38589   0.00000  Uiso   1.00
H1040  H     0.68475   0.31855   0.39740   0.00000  Uiso   1.00
H1041  H     0.73236   0.43239   0.37676   0.00000  Uiso   1.00
H1042  H     0.68542   0.37784   0.39413   0.00000  Uiso   1.00
H1043  H     0.73456   0.34704   0.38994   0.00000  Uiso   1.00
H1044  H     0.73358   0.37752   0.46809   0.00000  Uiso   1.00
H1045  H     0.72286   0.32124   0.47537   0.00000  Uiso   1.00
H1046  H     0.91100   0.47080   0.49195   0.00000  Uiso   1.00
H1047  H     0.87660   0.00609   0.45776   0.00000  Uiso   1.00
H1048  H     0.93250   0.02021   0.46471   0.00000  Uiso   1.00
H1049  H     0.92010   0.02814   0.55190   0.00000  Uiso   1.00
H1050  H     0.86650   0.01590   0.54494   0.00000  Uiso   1.00
H1051  H     0.81459   0.12216   0.39413   0.00000  Uiso   1.00
H1052  H     0.76976   0.06737   0.62332   0.00000  Uiso   1.00
H1053  H     0.76544   0.15296   0.38994   0.00000  Uiso   1.00
H1054  H     0.81525   0.18145   0.39740   0.00000  Uiso   1.00
H1055  H     0.76642   0.12248   0.46809   0.00000  Uiso   1.00
H1056  H     0.77714   0.17876   0.47537   0.00000  Uiso   1.00
H1057  H     0.62340   0.49391   0.45776   0.00000  Uiso   1.00
H1058  H     0.56750   0.47979   0.46471   0.00000  Uiso   1.00
H1059  H     0.58900   0.02920   0.49195   0.00000  Uiso   1.00
H1060  H     0.57990   0.47186   0.55190   0.00000  Uiso   1.00
H1061  H     0.63350   0.48410   0.54494   0.00000  Uiso   1.00
H1062  H     0.87153   0.41968   0.64515   0.00000  Uiso   1.00
H1063  H     0.76764   0.06761   0.37676   0.00000  Uiso   1.00
H1064  H     0.85288   0.45831   0.60161   0.00000  Uiso   1.00
H1065  H     0.81772   0.43625   0.64584   0.00000  Uiso   1.00
H1066  H     0.79682   0.39012   0.58320   0.00000  Uiso   1.00
H1067  H     0.83453   0.35746   0.60932   0.00000  Uiso   1.00
H1068  H     0.69488   0.16999   0.36455   0.00000  Uiso   1.00
H1069  H     0.69065   0.19000   0.42409   0.00000  Uiso   1.00
H1070  H     0.64359   0.18224   0.38862   0.00000  Uiso   1.00
H1071  H     0.70644   0.11144   0.42157   0.00000  Uiso   1.00
H1072  H     0.66156   0.09800   0.38652   0.00000  Uiso   1.00
H1073  H     0.62847   0.08032   0.64515   0.00000  Uiso   1.00
H1074  H     0.73024   0.43263   0.62332   0.00000  Uiso   1.00
H1075  H     0.64713   0.04169   0.60161   0.00000  Uiso   1.00
H1076  H     0.68228   0.06375   0.64585   0.00000  Uiso   1.00
H1077  H     0.70318   0.10988   0.58320   0.00000  Uiso   1.00
H1078  H     0.66547   0.14254   0.60932   0.00000  Uiso   1.00
H1079  H     0.85641   0.31776   0.38862   0.00000  Uiso   1.00
H1080  H     0.80935   0.31000   0.42409   0.00000  Uiso   1.00
H1081  H     0.80512   0.33000   0.36455   0.00000  Uiso   1.00
H1082  H     0.79356   0.38856   0.42157   0.00000  Uiso   1.00
H1083  H     0.83844   0.40200   0.38652   0.00000  Uiso   1.00
H1084  H     0.82088   0.22788   0.54456   0.00000  Uiso   1.00
N1085  N     0.50000   0.25000   0.61736   0.00000  Uiso   1.00
N1086  N     0.50000   0.25000   0.38264   0.00000  Uiso   1.00
N1087  N     0.75000  -0.00000   0.61736   0.00000  Uiso   1.00
N1088  N     0.75000  -0.00000   0.38264   0.00000  Uiso   1.00
O1089  O     0.54509   0.20491   0.53958   0.00000  Uiso   1.00
O1090  O     0.70492   0.04509   0.46042   0.00000  Uiso   1.00
O1091  O     0.70492   0.04509   0.53958   0.00000  Uiso   1.00
O1092  O     0.79509   0.45491   0.46042   0.00000  Uiso   1.00
O1093  O     0.70492   0.45491   0.46042   0.00000  Uiso   1.00
O1094  O     0.79509   0.04509   0.53958   0.00000  Uiso   1.00
O1095  O     0.79509   0.04509   0.46042   0.00000  Uiso   1.00
O1096  O     0.70492   0.45491   0.53958   0.00000  Uiso   1.00
O1097  O     0.95492   0.29509   0.46042   0.00000  Uiso   1.00
O1098  O     0.95492   0.29509   0.53958   0.00000  Uiso   1.00
O1099  O     0.54509   0.20491   0.46042   0.00000  Uiso   1.00
O1100  O     0.95492   0.20491   0.46042   0.00000  Uiso   1.00
O1101  O     0.54509   0.29509   0.53958   0.00000  Uiso   1.00
O1102  O     0.54509   0.29509   0.46042   0.00000  Uiso   1.00
O1103  O     0.95492   0.20491   0.53958   0.00000  Uiso   1.00
O1104  O     0.79509   0.45491   0.53958   0.00000  Uiso   1.00
C1105  C     0.05638   0.68730   0.50006   0.00000  Uiso   1.00
C1106  C     0.03466   0.76511   0.64191   0.00000  Uiso   1.00
C1107  C     0.03484   0.76468   0.35812   0.00000  Uiso   1.00
C1108  C     0.46534   0.73489   0.64191   0.00000  Uiso   1.00
C1109  C     0.23959   0.96255   0.35812   0.00000  Uiso   1.00
C1110  C     0.26130   0.53726   0.64188   0.00000  Uiso   1.00
C1111  C     0.26041   0.53745   0.35812   0.00000  Uiso   1.00
C1112  C     0.23870   0.96274   0.64188   0.00000  Uiso   1.00
C1113  C     0.36586   0.66995   0.48700   0.00000  Uiso   1.00
C1114  C     0.08347   0.88658   0.51630   0.00000  Uiso   1.00
C1115  C     0.13414   0.83005   0.48700   0.00000  Uiso   1.00
C1116  C     0.44363   0.81270   0.50006   0.00000  Uiso   1.00
C1117  C     0.41653   0.61342   0.51630   0.00000  Uiso   1.00
C1118  C     0.10335   0.63443   0.54386   0.00000  Uiso   1.00
C1119  C     0.39638   0.86650   0.45802   0.00000  Uiso   1.00
C1120  C     0.39665   0.86557   0.54386   0.00000  Uiso   1.00
C1121  C     0.10362   0.63350   0.45802   0.00000  Uiso   1.00
C1122  C     0.16625   0.86297   0.48382   0.00000  Uiso   1.00
C1123  C     0.38393   0.58088   0.51516   0.00000  Uiso   1.00
C1124  C     0.33375   0.63703   0.48382   0.00000  Uiso   1.00
C1125  C     0.11607   0.91912   0.51516   0.00000  Uiso   1.00
C1126  C     0.35699   0.88751   0.54441   0.00000  Uiso   1.00
C1127  C     0.44101   0.69028   0.50019   0.00000  Uiso   1.00
C1128  C     0.14507   0.61583   0.45834   0.00000  Uiso   1.00
C1129  C     0.14301   0.61249   0.54441   0.00000  Uiso   1.00
C1130  C     0.35493   0.88417   0.45834   0.00000  Uiso   1.00
C1131  C     0.09271   0.84286   0.50099   0.00000  Uiso   1.00
C1132  C     0.40729   0.65714   0.50099   0.00000  Uiso   1.00
C1133  C     0.41316   0.85008   0.50058   0.00000  Uiso   1.00
C1134  C     0.08684   0.64992   0.50058   0.00000  Uiso   1.00
C1135  C     0.34276   0.59325   0.49956   0.00000  Uiso   1.00
C1136  C     0.15724   0.90675   0.49956   0.00000  Uiso   1.00
C1137  C     0.16171   0.59925   0.50107   0.00000  Uiso   1.00
C1138  C     0.05899   0.80972   0.50019   0.00000  Uiso   1.00
C1139  C     0.33829   0.90075   0.50107   0.00000  Uiso   1.00
C1140  C     0.35585   0.71939   0.47931   0.00000  Uiso   1.00
C1141  C     0.34852   0.74304   0.52597   0.00000  Uiso   1.00
C1142  C     0.03936   0.89815   0.53539   0.00000  Uiso   1.00
C1143  C     0.03952   0.89781   0.58912   0.00000  Uiso   1.00
C1144  C     0.14415   0.78061   0.47931   0.00000  Uiso   1.00
C1145  C     0.15148   0.75696   0.52597   0.00000  Uiso   1.00
C1146  C     0.46064   0.60185   0.53539   0.00000  Uiso   1.00
C1147  C     0.46049   0.60219   0.58912   0.00000  Uiso   1.00
C1148  C     0.07458   0.63257   0.58708   0.00000  Uiso   1.00
C1149  C     0.30668   0.93736   0.50018   0.00000  Uiso   1.00
C1150  C     0.08459   0.66769   0.62435   0.00000  Uiso   1.00
C1151  C     0.42333   0.86930   0.41329   0.00000  Uiso   1.00
C1152  C     0.46588   0.89337   0.42128   0.00000  Uiso   1.00
C1153  C     0.42542   0.86743   0.58708   0.00000  Uiso   1.00
C1154  C     0.41541   0.83231   0.62435   0.00000  Uiso   1.00
C1155  C     0.07667   0.63070   0.41330   0.00000  Uiso   1.00
C1156  C     0.03412   0.60663   0.42128   0.00000  Uiso   1.00
C1157  C     0.20888   0.85209   0.46078   0.00000  Uiso   1.00
C1158  C     0.20311   0.84860   0.40752   0.00000  Uiso   1.00
C1159  C     0.39355   0.53212   0.52672   0.00000  Uiso   1.00
C1160  C     0.19332   0.56264   0.50018   0.00000  Uiso   1.00
C1161  C     0.40403   0.50582   0.48244   0.00000  Uiso   1.00
C1162  C     0.29112   0.64791   0.46078   0.00000  Uiso   1.00
C1163  C     0.29689   0.65140   0.40752   0.00000  Uiso   1.00
C1164  C     0.10645   0.96788   0.52672   0.00000  Uiso   1.00
C1165  C     0.09598   0.99418   0.48244   0.00000  Uiso   1.00
C1166  C     0.33168   0.88929   0.59021   0.00000  Uiso   1.00
C1167  C     0.34444   0.92823   0.62211   0.00000  Uiso   1.00
C1168  C     0.17295   0.62044   0.41459   0.00000  Uiso   1.00
C1169  C     0.17542   0.66856   0.39705   0.00000  Uiso   1.00
C1170  C     0.16832   0.61071   0.59021   0.00000  Uiso   1.00
C1171  C     0.19097   0.94017   0.49989   0.00000  Uiso   1.00
C1172  C     0.15556   0.57177   0.62211   0.00000  Uiso   1.00
C1173  C     0.32705   0.87956   0.41459   0.00000  Uiso   1.00
C1174  C     0.32458   0.83144   0.39705   0.00000  Uiso   1.00
C1175  C     0.30903   0.55983   0.49989   0.00000  Uiso   1.00
C1176  C     0.46517   0.73532   0.35812   0.00000  Uiso   1.00
Cu1177 Cu    0.00000   0.75000   0.54689   0.00000  Uiso   1.00
Cu1178 Cu    0.00000   0.75000   0.45311   0.00000  Uiso   1.00
Cu1179 Cu    0.25000   0.50000   0.54689   0.00000  Uiso   1.00
Cu1180 Cu    0.25000   0.50000   0.45311   0.00000  Uiso   1.00
H1181  H     0.43697   0.72404   0.37657   0.00000  Uiso   1.00
H1182  H     0.37721   0.74087   0.54866   0.00000  Uiso   1.00
H1183  H     0.34155   0.77869   0.51951   0.00000  Uiso   1.00
H1184  H     0.38181   0.73638   0.45978   0.00000  Uiso   1.00
H1185  H     0.32743   0.72536   0.45742   0.00000  Uiso   1.00
H1186  H     0.03920   0.86306   0.60222   0.00000  Uiso   1.00
H1187  H     0.06819   0.91477   0.60361   0.00000  Uiso   1.00
H1188  H     0.01082   0.91520   0.60258   0.00000  Uiso   1.00
H1189  H     0.02852   0.93079   0.52192   0.00000  Uiso   1.00
H1190  H     0.01437   0.87491   0.52291   0.00000  Uiso   1.00
H1191  H     0.17912   0.77212   0.54456   0.00000  Uiso   1.00
H1192  H     0.06272   0.77678   0.62347   0.00000  Uiso   1.00
H1193  H     0.12279   0.75913   0.54866   0.00000  Uiso   1.00
H1194  H     0.15845   0.72131   0.51951   0.00000  Uiso   1.00
H1195  H     0.11819   0.76362   0.45978   0.00000  Uiso   1.00
H1196  H     0.17257   0.77464   0.45742   0.00000  Uiso   1.00
H1197  H     0.46080   0.63694   0.60222   0.00000  Uiso   1.00
H1198  H     0.43182   0.58523   0.60361   0.00000  Uiso   1.00
H1199  H     0.48918   0.58480   0.60258   0.00000  Uiso   1.00
H1200  H     0.47148   0.56921   0.52192   0.00000  Uiso   1.00
H1201  H     0.48563   0.62509   0.52291   0.00000  Uiso   1.00
H1202  H     0.10789   0.65528   0.65022   0.00000  Uiso   1.00
H1203  H     0.06303   0.77596   0.37657   0.00000  Uiso   1.00
H1204  H     0.09727   0.69870   0.60840   0.00000  Uiso   1.00
H1205  H     0.05496   0.67530   0.64407   0.00000  Uiso   1.00
H1206  H     0.04087   0.63615   0.57661   0.00000  Uiso   1.00
H1207  H     0.07457   0.59883   0.60243   0.00000  Uiso   1.00
H1208  H     0.48222   0.89841   0.38710   0.00000  Uiso   1.00
H1209  H     0.48736   0.87366   0.44397   0.00000  Uiso   1.00
H1210  H     0.46042   0.92637   0.43761   0.00000  Uiso   1.00
H1211  H     0.42886   0.83614   0.39769   0.00000  Uiso   1.00
H1212  H     0.40681   0.88871   0.38589   0.00000  Uiso   1.00
H1213  H     0.39211   0.84472   0.65022   0.00000  Uiso   1.00
H1214  H     0.43728   0.72322   0.62347   0.00000  Uiso   1.00
H1215  H     0.40273   0.80130   0.60840   0.00000  Uiso   1.00
H1216  H     0.44504   0.82470   0.64407   0.00000  Uiso   1.00
H1217  H     0.45913   0.86384   0.57661   0.00000  Uiso   1.00
H1218  H     0.42543   0.90117   0.60243   0.00000  Uiso   1.00
H1219  H     0.03958   0.57363   0.43761   0.00000  Uiso   1.00
H1220  H     0.01264   0.62633   0.44397   0.00000  Uiso   1.00
H1221  H     0.01778   0.60159   0.38710   0.00000  Uiso   1.00
H1222  H     0.07114   0.66386   0.39769   0.00000  Uiso   1.00
H1223  H     0.09319   0.61129   0.38589   0.00000  Uiso   1.00
H1224  H     0.18475   0.81855   0.39740   0.00000  Uiso   1.00
H1225  H     0.23236   0.93239   0.37676   0.00000  Uiso   1.00
H1226  H     0.18542   0.87784   0.39413   0.00000  Uiso   1.00
H1227  H     0.23456   0.84704   0.38994   0.00000  Uiso   1.00
H1228  H     0.23358   0.87752   0.46809   0.00000  Uiso   1.00
H1229  H     0.22286   0.82124   0.47537   0.00000  Uiso   1.00
H1230  H     0.41100   0.97080   0.49195   0.00000  Uiso   1.00
H1231  H     0.37660   0.50609   0.45776   0.00000  Uiso   1.00
H1232  H     0.43250   0.52021   0.46471   0.00000  Uiso   1.00
H1233  H     0.42010   0.52814   0.55190   0.00000  Uiso   1.00
H1234  H     0.36650   0.51590   0.54494   0.00000  Uiso   1.00
H1235  H     0.31459   0.62216   0.39413   0.00000  Uiso   1.00
H1236  H     0.26976   0.56737   0.62332   0.00000  Uiso   1.00
H1237  H     0.26544   0.65296   0.38994   0.00000  Uiso   1.00
H1238  H     0.31525   0.68145   0.39740   0.00000  Uiso   1.00
H1239  H     0.26642   0.62248   0.46809   0.00000  Uiso   1.00
H1240  H     0.27714   0.67876   0.47537   0.00000  Uiso   1.00
H1241  H     0.12340   0.99391   0.45776   0.00000  Uiso   1.00
H1242  H     0.06750   0.97979   0.46471   0.00000  Uiso   1.00
H1243  H     0.08900   0.52920   0.49195   0.00000  Uiso   1.00
H1244  H     0.07990   0.97186   0.55190   0.00000  Uiso   1.00
H1245  H     0.13350   0.98410   0.54494   0.00000  Uiso   1.00
H1246  H     0.37153   0.91968   0.64515   0.00000  Uiso   1.00
H1247  H     0.26764   0.56761   0.37676   0.00000  Uiso   1.00
H1248  H     0.35288   0.95831   0.60161   0.00000  Uiso   1.00
H1249  H     0.31772   0.93625   0.64584   0.00000  Uiso   1.00
H1250  H     0.29682   0.89012   0.58320   0.00000  Uiso   1.00
H1251  H     0.33453   0.85746   0.60932   0.00000  Uiso   1.00
H1252  H     0.19488   0.66999   0.36455   0.00000  Uiso   1.00
H1253  H     0.19065   0.69000   0.42409   0.00000  Uiso   1.00
H1254  H     0.14359   0.68224   0.38862   0.00000  Uiso   1.00
H1255  H     0.20644   0.61144   0.42157   0.00000  Uiso   1.00
H1256  H     0.16156   0.59800   0.38652   0.00000  Uiso   1.00
H1257  H     0.12847   0.58032   0.64515   0.00000  Uiso   1.00
H1258  H     0.23024   0.93263   0.62332   0.00000  Uiso   1.00
H1259  H     0.14713   0.54169   0.60161   0.00000  Uiso   1.00
H1260  H     0.18228   0.56375   0.64585   0.00000  Uiso   1.00
H1261  H     0.20318   0.60988   0.58320   0.00000  Uiso   1.00
H1262  H     0.16547   0.64254   0.60932   0.00000  Uiso   1.00
H1263  H     0.35641   0.81776   0.38862   0.00000  Uiso   1.00
H1264  H     0.30935   0.81000   0.42409   0.00000  Uiso   1.00
H1265  H     0.30512   0.83000   0.36455   0.00000  Uiso   1.00
H1266  H     0.29356   0.88856   0.42157   0.00000  Uiso   1.00
H1267  H     0.33844   0.90200   0.38652   0.00000  Uiso   1.00
H1268  H     0.32088   0.72788   0.54456   0.00000  Uiso   1.00
N1269  N     0.00000   0.75000   0.61736   0.00000  Uiso   1.00
N1270  N     0.00000   0.75000   0.38264   0.00000  Uiso   1.00
N1271  N     0.25000   0.50000   0.61736   0.00000  Uiso   1.00
N1272  N     0.25000   0.50000   0.38264   0.00000  Uiso   1.00
O1273  O     0.04509   0.70491   0.53958   0.00000  Uiso   1.00
O1274  O     0.20492   0.54509   0.46042   0.00000  Uiso   1.00
O1275  O     0.20492   0.54509   0.53958   0.00000  Uiso   1.00
O1276  O     0.29509   0.95491   0.46042   0.00000  Uiso   1.00
O1277  O     0.20492   0.95491   0.46042   0.00000  Uiso   1.00
O1278  O     0.29509   0.54509   0.53958   0.00000  Uiso   1.00
O1279  O     0.29509   0.54509   0.46042   0.00000  Uiso   1.00
O1280  O     0.20492   0.95491   0.53958   0.00000  Uiso   1.00
O1281  O     0.45492   0.79509   0.46042   0.00000  Uiso   1.00
O1282  O     0.45492   0.79509   0.53958   0.00000  Uiso   1.00
O1283  O     0.04509   0.70491   0.46042   0.00000  Uiso   1.00
O1284  O     0.45492   0.70491   0.46042   0.00000  Uiso   1.00
O1285  O     0.04509   0.79509   0.53958   0.00000  Uiso   1.00
O1286  O     0.04509   0.79509   0.46042   0.00000  Uiso   1.00
O1287  O     0.45492   0.70491   0.53958   0.00000  Uiso   1.00
O1288  O     0.29509   0.95491   0.53958   0.00000  Uiso   1.00
C1289  C     0.55638   0.68730   0.50006   0.00000  Uiso   1.00
C1290  C     0.53466   0.76511   0.64191   0.00000  Uiso   1.00
C1291  C     0.53484   0.76468   0.35812   0.00000  Uiso   1.00
C1292  C     0.96534   0.73489   0.64191   0.00000  Uiso   1.00
C1293  C     0.73959   0.96255   0.35812   0.00000  Uiso   1.00
C1294  C     0.76130   0.53726   0.64188   0.00000  Uiso   1.00
C1295  C     0.76041   0.53745   0.35812   0.00000  Uiso   1.00
C1296  C     0.73870   0.96274   0.64188   0.00000  Uiso   1.00
C1297  C     0.86586   0.66995   0.48700   0.00000  Uiso   1.00
C1298  C     0.58347   0.88658   0.51630   0.00000  Uiso   1.00
C1299  C     0.63414   0.83005   0.48700   0.00000  Uiso   1.00
C1300  C     0.94363   0.81270   0.50006   0.00000  Uiso   1.00
C1301  C     0.91653   0.61342   0.51630   0.00000  Uiso   1.00
C1302  C     0.60335   0.63443   0.54386   0.00000  Uiso   1.00
C1303  C     0.89638   0.86650   0.45802   0.00000  Uiso   1.00
C1304  C     0.89665   0.86557   0.54386   0.00000  Uiso   1.00
C1305  C     0.60362   0.63350   0.45802   0.00000  Uiso   1.00
C1306  C     0.66625   0.86297   0.48382   0.00000  Uiso   1.00
C1307  C     0.88393   0.58088   0.51516   0.00000  Uiso   1.00
C1308  C     0.83375   0.63703   0.48382   0.00000  Uiso   1.00
C1309  C     0.61607   0.91912   0.51516   0.00000  Uiso   1.00
C1310  C     0.85699   0.88751   0.54441   0.00000  Uiso   1.00
C1311  C     0.94101   0.69028   0.50019   0.00000  Uiso   1.00
C1312  C     0.64507   0.61583   0.45834   0.00000  Uiso   1.00
C1313  C     0.64301   0.61249   0.54441   0.00000  Uiso   1.00
C1314  C     0.85493   0.88417   0.45834   0.00000  Uiso   1.00
C1315  C     0.59271   0.84286   0.50099   0.00000  Uiso   1.00
C1316  C     0.90729   0.65714   0.50099   0.00000  Uiso   1.00
C1317  C     0.91316   0.85008   0.50058   0.00000  Uiso   1.00
C1318  C     0.58684   0.64992   0.50058   0.00000  Uiso   1.00
C1319  C     0.84276   0.59325   0.49956   0.00000  Uiso   1.00
C1320  C     0.65724   0.90675   0.49956   0.00000  Uiso   1.00
C1321  C     0.66171   0.59925   0.50107   0.00000  Uiso   1.00
C1322  C     0.55899   0.80972   0.50019   0.00000  Uiso   1.00
C1323  C     0.83829   0.90075   0.50107   0.00000  Uiso   1.00
C1324  C     0.85585   0.71939   0.47931   0.00000  Uiso   1.00
C1325  C     0.84852   0.74304   0.52597   0.00000  Uiso   1.00
C1326  C     0.53936   0.89815   0.53539   0.00000  Uiso   1.00
C1327  C     0.53952   0.89781   0.58912   0.00000  Uiso   1.00
C1328  C     0.64415   0.78061   0.47931   0.00000  Uiso   1.00
C1329  C     0.65148   0.75696   0.52597   0.00000  Uiso   1.00
C1330  C     0.96064   0.60185   0.53539   0.00000  Uiso   1.00
C1331  C     0.96049   0.60219   0.58912   0.00000  Uiso   1.00
C1332  C     0.57458   0.63257   0.58708   0.00000  Uiso   1.00
C1333  C     0.80668   0.93736   0.50018   0.00000  Uiso   1.00
C1334  C     0.58459   0.66769   0.62435   0.00000  Uiso   1.00
C1335  C     0.92333   0.86930   0.41329   0.00000  Uiso   1.00
C1336  C     0.96588   0.89337   0.42128   0.00000  Uiso   1.00
C1337  C     0.92542   0.86743   0.58708   0.00000  Uiso   1.00
C1338  C     0.91541   0.83231   0.62435   0.00000  Uiso   1.00
C1339  C     0.57667   0.63070   0.41330   0.00000  Uiso   1.00
C1340  C     0.53412   0.60663   0.42128   0.00000  Uiso   1.00
C1341  C     0.70888   0.85209   0.46078   0.00000  Uiso   1.00
C1342  C     0.70311   0.84860   0.40752   0.00000  Uiso   1.00
C1343  C     0.89355   0.53212   0.52672   0.00000  Uiso   1.00
C1344  C     0.69332   0.56264   0.50018   0.00000  Uiso   1.00
C1345  C     0.90403   0.50582   0.48244   0.00000  Uiso   1.00
C1346  C     0.79112   0.64791   0.46078   0.00000  Uiso   1.00
C1347  C     0.79689   0.65140   0.40752   0.00000  Uiso   1.00
C1348  C     0.60645   0.96788   0.52672   0.00000  Uiso   1.00
C1349  C     0.59598   0.99418   0.48244   0.00000  Uiso   1.00
C1350  C     0.83168   0.88929   0.59021   0.00000  Uiso   1.00
C1351  C     0.84444   0.92823   0.62211   0.00000  Uiso   1.00
C1352  C     0.67295   0.62044   0.41459   0.00000  Uiso   1.00
C1353  C     0.67542   0.66856   0.39705   0.00000  Uiso   1.00
C1354  C     0.66832   0.61071   0.59021   0.00000  Uiso   1.00
C1355  C     0.69097   0.94017   0.49989   0.00000  Uiso   1.00
C1356  C     0.65556   0.57177   0.62211   0.00000  Uiso   1.00
C1357  C     0.82705   0.87956   0.41459   0.00000  Uiso   1.00
C1358  C     0.82458   0.83144   0.39705   0.00000  Uiso   1.00
C1359  C     0.80903   0.55983   0.49989   0.00000  Uiso   1.00
C1360  C     0.96517   0.73532   0.35812   0.00000  Uiso   1.00
Cu1361 Cu    0.50000   0.75000   0.54689   0.00000  Uiso   1.00
Cu1362 Cu    0.50000   0.75000   0.45311   0.00000  Uiso   1.00
Cu1363 Cu    0.75000   0.50000   0.54689   0.00000  Uiso   1.00
Cu1364 Cu    0.75000   0.50000   0.45311   0.00000  Uiso   1.00
H1365  H     0.93697   0.72404   0.37657   0.00000  Uiso   1.00
H1366  H     0.87721   0.74087   0.54866   0.00000  Uiso   1.00
H1367  H     0.84155   0.77869   0.51951   0.00000  Uiso   1.00
H1368  H     0.88181   0.73638   0.45978   0.00000  Uiso   1.00
H1369  H     0.82743   0.72536   0.45742   0.00000  Uiso   1.00
H1370  H     0.53920   0.86306   0.60222   0.00000  Uiso   1.00
H1371  H     0.56819   0.91477   0.60361   0.00000  Uiso   1.00
H1372  H     0.51082   0.91520   0.60258   0.00000  Uiso   1.00
H1373  H     0.52852   0.93079   0.52192   0.00000  Uiso   1.00
H1374  H     0.51437   0.87491   0.52291   0.00000  Uiso   1.00
H1375  H     0.67912   0.77212   0.54456   0.00000  Uiso   1.00
H1376  H     0.56272   0.77678   0.62347   0.00000  Uiso   1.00
H1377  H     0.62279   0.75913   0.54866   0.00000  Uiso   1.00
H1378  H     0.65845   0.72131   0.51951   0.00000  Uiso   1.00
H1379  H     0.61819   0.76362   0.45978   0.00000  Uiso   1.00
H1380  H     0.67257   0.77464   0.45742   0.00000  Uiso   1.00
H1381  H     0.96080   0.63694   0.60222   0.00000  Uiso   1.00
H1382  H     0.93182   0.58523   0.60361   0.00000  Uiso   1.00
H1383  H     0.98918   0.58480   0.60258   0.00000  Uiso   1.00
H1384  H     0.97148   0.56921   0.52192   0.00000  Uiso   1.00
H1385  H     0.98563   0.62509   0.52291   0.00000  Uiso   1.00
H1386  H     0.60789   0.65528   0.65022   0.00000  Uiso   1.00
H1387  H     0.56303   0.77596   0.37657   0.00000  Uiso   1.00
H1388  H     0.59727   0.69870   0.60840   0.00000  Uiso   1.00
H1389  H     0.55496   0.67530   0.64407   0.00000  Uiso   1.00
H1390  H     0.54087   0.63615   0.57661   0.00000  Uiso   1.00
H1391  H     0.57457   0.59883   0.60243   0.00000  Uiso   1.00
H1392  H     0.98222   0.89841   0.38710   0.00000  Uiso   1.00
H1393  H     0.98736   0.87366   0.44397   0.00000  Uiso   1.00
H1394  H     0.96042   0.92637   0.43761   0.00000  Uiso   1.00
H1395  H     0.92886   0.83614   0.39769   0.00000  Uiso   1.00
H1396  H     0.90681   0.88871   0.38589   0.00000  Uiso   1.00
H1397  H     0.89211   0.84472   0.65022   0.00000  Uiso   1.00
H1398  H     0.93728   0.72322   0.62347   0.00000  Uiso   1.00
H1399  H     0.90273   0.80130   0.60840   0.00000  Uiso   1.00
H1400  H     0.94504   0.82470   0.64407   0.00000  Uiso   1.00
H1401  H     0.95913   0.86384   0.57661   0.00000  Uiso   1.00
H1402  H     0.92543   0.90117   0.60243   0.00000  Uiso   1.00
H1403  H     0.53958   0.57363   0.43761   0.00000  Uiso   1.00
H1404  H     0.51264   0.62633   0.44397   0.00000  Uiso   1.00
H1405  H     0.51778   0.60159   0.38710   0.00000  Uiso   1.00
H1406  H     0.57114   0.66386   0.39769   0.00000  Uiso   1.00
H1407  H     0.59319   0.61129   0.38589   0.00000  Uiso   1.00
H1408  H     0.68475   0.81855   0.39740   0.00000  Uiso   1.00
H1409  H     0.73236   0.93239   0.37676   0.00000  Uiso   1.00
H1410  H     0.68542   0.87784   0.39413   0.00000  Uiso   1.00
H1411  H     0.73456   0.84704   0.38994   0.00000  Uiso   1.00
H1412  H     0.73358   0.87752   0.46809   0.00000  Uiso   1.00
H1413  H     0.72286   0.82124   0.47537   0.00000  Uiso   1.00
H1414  H     0.91100   0.97080   0.49195   0.00000  Uiso   1.00
H1415  H     0.87660   0.50609   0.45776   0.00000  Uiso   1.00
H1416  H     0.93250   0.52021   0.46471   0.00000  Uiso   1.00
H1417  H     0.92010   0.52814   0.55190   0.00000  Uiso   1.00
H1418  H     0.86650   0.51590   0.54494   0.00000  Uiso   1.00
H1419  H     0.81459   0.62216   0.39413   0.00000  Uiso   1.00
H1420  H     0.76976   0.56737   0.62332   0.00000  Uiso   1.00
H1421  H     0.76544   0.65296   0.38994   0.00000  Uiso   1.00
H1422  H     0.81525   0.68145   0.39740   0.00000  Uiso   1.00
H1423  H     0.76642   0.62248   0.46809   0.00000  Uiso   1.00
H1424  H     0.77714   0.67876   0.47537   0.00000  Uiso   1.00
H1425  H     0.62340   0.99391   0.45776   0.00000  Uiso   1.00
H1426  H     0.56750   0.97979   0.46471   0.00000  Uiso   1.00
H1427  H     0.58900   0.52920   0.49195   0.00000  Uiso   1.00
H1428  H     0.57990   0.97186   0.55190   0.00000  Uiso   1.00
H1429  H     0.63350   0.98410   0.54494   0.00000  Uiso   1.00
H1430  H     0.87153   0.91968   0.64515   0.00000  Uiso   1.00
H1431  H     0.76764   0.56761   0.37676   0.00000  Uiso   1.00
H1432  H     0.85288   0.95831   0.60161   0.00000  Uiso   1.00
H1433  H     0.81772   0.93625   0.64584   0.00000  Uiso   1.00
H1434  H     0.79682   0.89012   0.58320   0.00000  Uiso   1.00
H1435  H     0.83453   0.85746   0.60932   0.00000  Uiso   1.00
H1436  H     0.69488   0.66999   0.36455   0.00000  Uiso   1.00
H1437  H     0.69065   0.69000   0.42409   0.00000  Uiso   1.00
H1438  H     0.64359   0.68224   0.38862   0.00000  Uiso   1.00
H1439  H     0.70644   0.61144   0.42157   0.00000  Uiso   1.00
H1440  H     0.66156   0.59800   0.38652   0.00000  Uiso   1.00
H1441  H     0.62847   0.58032   0.64515   0.00000  Uiso   1.00
H1442  H     0.73024   0.93263   0.62332   0.00000  Uiso   1.00
H1443  H     0.64713   0.54169   0.60161   0.00000  Uiso   1.00
H1444  H     0.68228   0.56375   0.64585   0.00000  Uiso   1.00
H1445  H     0.70318   0.60988   0.58320   0.00000  Uiso   1.00
H1446  H     0.66547   0.64254   0.60932   0.00000  Uiso   1.00
H1447  H     0.85641   0.81776   0.38862   0.00000  Uiso   1.00
H1448  H     0.80935   0.81000   0.42409   0.00000  Uiso   1.00
H1449  H     0.80512   0.83000   0.36455   0.00000  Uiso   1.00
H1450  H     0.79356   0.88856   0.42157   0.00000  Uiso   1.00
H1451  H     0.83844   0.90200   0.38652   0.00000  Uiso   1.00
H1452  H     0.82088   0.72788   0.54456   0.00000  Uiso   1.00
N1453  N     0.50000   0.75000   0.61736   0.00000  Uiso   1.00
N1454  N     0.50000   0.75000   0.38264   0.00000  Uiso   1.00
N1455  N     0.75000   0.50000   0.61736   0.00000  Uiso   1.00
N1456  N     0.75000   0.50000   0.38264   0.00000  Uiso   1.00
O1457  O     0.54509   0.70491   0.53958   0.00000  Uiso   1.00
O1458  O     0.70492   0.54509   0.46042   0.00000  Uiso   1.00
O1459  O     0.70492   0.54509   0.53958   0.00000  Uiso   1.00
O1460  O     0.79509   0.95491   0.46042   0.00000  Uiso   1.00
O1461  O     0.70492   0.95491   0.46042   0.00000  Uiso   1.00
O1462  O     0.79509   0.54509   0.53958   0.00000  Uiso   1.00
O1463  O     0.79509   0.54509   0.46042   0.00000  Uiso   1.00
O1464  O     0.70492   0.95491   0.53958   0.00000  Uiso   1.00
O1465  O     0.95492   0.79509   0.46042   0.00000  Uiso   1.00
O1466  O     0.95492   0.79509   0.53958   0.00000  Uiso   1.00
O1467  O     0.54509   0.70491   0.46042   0.00000  Uiso   1.00
O1468  O     0.95492   0.70491   0.46042   0.00000  Uiso   1.00
O1469  O     0.54509   0.79509   0.53958   0.00000  Uiso   1.00
O1470  O     0.54509   0.79509   0.46042   0.00000  Uiso   1.00
O1471  O     0.95492   0.70491   0.53958   0.00000  Uiso   1.00
O1472  O     0.79509   0.95491   0.53958   0.00000  Uiso   1.00
C1473  C     0.05638   0.18730   0.83340   0.00000  Uiso   1.00
C1474  C     0.03466   0.26511   0.97524   0.00000  Uiso   1.00
C1475  C     0.03484   0.26468   0.69145   0.00000  Uiso   1.00
C1476  C     0.46534   0.23489   0.97524   0.00000  Uiso   1.00
C1477  C     0.23959   0.46255   0.69145   0.00000  Uiso   1.00
C1478  C     0.26130   0.03726   0.97521   0.00000  Uiso   1.00
C1479  C     0.26041   0.03745   0.69145   0.00000  Uiso   1.00
C1480  C     0.23870   0.46274   0.97521   0.00000  Uiso   1.00
C1481  C     0.36586   0.16995   0.82033   0.00000  Uiso   1.00
C1482  C     0.08347   0.38658   0.84964   0.00000  Uiso   1.00
C1483  C     0.13414   0.33005   0.82033   0.00000  Uiso   1.00
C1484  C     0.44363   0.31270   0.83340   0.00000  Uiso   1.00
C1485  C     0.41653   0.11342   0.84964   0.00000  Uiso   1.00
C1486  C     0.10335   0.13443   0.87720   0.00000  Uiso   1.00
C1487  C     0.39638   0.36650   0.79136   0.00000  Uiso   1.00
C1488  C     0.39665   0.36557   0.87720   0.00000  Uiso   1.00
C1489  C     0.10362   0.13350   0.79136   0.00000  Uiso   1.00
C1490  C     0.16625   0.36297   0.81716   0.00000  Uiso   1.00
C1491  C     0.38393   0.08088   0.84849   0.00000  Uiso   1.00
C1492  C     0.33375   0.13703   0.81716   0.00000  Uiso   1.00
C1493  C     0.11607   0.41912   0.84849   0.00000  Uiso   1.00
C1494  C     0.35699   0.38751   0.87774   0.00000  Uiso   1.00
C1495  C     0.44101   0.19028   0.83352   0.00000  Uiso   1.00
C1496  C     0.14507   0.11583   0.79167   0.00000  Uiso   1.00
C1497  C     0.14301   0.11249   0.87774   0.00000  Uiso   1.00
C1498  C     0.35493   0.38417   0.79167   0.00000  Uiso   1.00
C1499  C     0.09271   0.34286   0.83433   0.00000  Uiso   1.00
C1500  C     0.40729   0.15714   0.83433   0.00000  Uiso   1.00
C1501  C     0.41316   0.35008   0.83391   0.00000  Uiso   1.00
C1502  C     0.08684   0.14992   0.83391   0.00000  Uiso   1.00
C1503  C     0.34276   0.09325   0.83289   0.00000  Uiso   1.00
C1504  C     0.15724   0.40675   0.83289   0.00000  Uiso   1.00
C1505  C     0.16171   0.09925   0.83441   0.00000  Uiso   1.00
C1506  C     0.05899   0.30972   0.83352   0.00000  Uiso   1.00
C1507  C     0.33829   0.40075   0.83441   0.00000  Uiso   1.00
C1508  C     0.35585   0.21939   0.81265   0.00000  Uiso   1.00
C1509  C     0.34852   0.24304   0.85931   0.00000  Uiso   1.00
C1510  C     0.03936   0.39815   0.86873   0.00000  Uiso   1.00
C1511  C     0.03952   0.39781   0.92245   0.00000  Uiso   1.00
C1512  C     0.14415   0.28061   0.81265   0.00000  Uiso   1.00
C1513  C     0.15148   0.25696   0.85931   0.00000  Uiso   1.00
C1514  C     0.46064   0.10185   0.86873   0.00000  Uiso   1.00
C1515  C     0.46049   0.10219   0.92245   0.00000  Uiso   1.00
C1516  C     0.07458   0.13257   0.92041   0.00000  Uiso   1.00
C1517  C     0.30668   0.43736   0.83352   0.00000  Uiso   1.00
C1518  C     0.08459   0.16769   0.95768   0.00000  Uiso   1.00
C1519  C     0.42333   0.36930   0.74663   0.00000  Uiso   1.00
C1520  C     0.46588   0.39337   0.75461   0.00000  Uiso   1.00
C1521  C     0.42542   0.36743   0.92041   0.00000  Uiso   1.00
C1522  C     0.41541   0.33231   0.95768   0.00000  Uiso   1.00
C1523  C     0.07667   0.13070   0.74663   0.00000  Uiso   1.00
C1524  C     0.03412   0.10663   0.75461   0.00000  Uiso   1.00
C1525  C     0.20888   0.35209   0.79411   0.00000  Uiso   1.00
C1526  C     0.20311   0.34860   0.74086   0.00000  Uiso   1.00
C1527  C     0.39355   0.03212   0.86005   0.00000  Uiso   1.00
C1528  C     0.19332   0.06264   0.83352   0.00000  Uiso   1.00
C1529  C     0.40403   0.00582   0.81577   0.00000  Uiso   1.00
C1530  C     0.29112   0.14791   0.79411   0.00000  Uiso   1.00
C1531  C     0.29689   0.15140   0.74086   0.00000  Uiso   1.00
C1532  C     0.10645   0.46788   0.86005   0.00000  Uiso   1.00
C1533  C     0.09598   0.49418   0.81577   0.00000  Uiso   1.00
C1534  C     0.33168   0.38929   0.92355   0.00000  Uiso   1.00
C1535  C     0.34444   0.42823   0.95544   0.00000  Uiso   1.00
C1536  C     0.17295   0.12044   0.74792   0.00000  Uiso   1.00
C1537  C     0.17542   0.16856   0.73038   0.00000  Uiso   1.00
C1538  C     0.16832   0.11071   0.92355   0.00000  Uiso   1.00
C1539  C     0.19097   0.44017   0.83322   0.00000  Uiso   1.00
C1540  C     0.15556   0.07177   0.95544   0.00000  Uiso   1.00
C1541  C     0.32705   0.37956   0.74792   0.00000  Uiso   1.00
C1542  C     0.32458   0.33144   0.73039   0.00000  Uiso   1.00
C1543  C     0.30903   0.05983   0.83322   0.00000  Uiso   1.00
C1544  C     0.46517   0.23532   0.69145   0.00000  Uiso   1.00
Cu1545 Cu    0.00000   0.25000   0.88022   0.00000  Uiso   1.00
Cu1546 Cu    0.00000   0.25000   0.78645   0.00000  Uiso   1.00
Cu1547 Cu    0.25000  -0.00000   0.88022   0.00000  Uiso   1.00
Cu1548 Cu    0.25000  -0.00000   0.78645   0.00000  Uiso   1.00
H1549  H     0.43697   0.22404   0.70991   0.00000  Uiso   1.00
H1550  H     0.37721   0.24087   0.88200   0.00000  Uiso   1.00
H1551  H     0.34155   0.27869   0.85284   0.00000  Uiso   1.00
H1552  H     0.38181   0.23638   0.79312   0.00000  Uiso   1.00
H1553  H     0.32743   0.22536   0.79075   0.00000  Uiso   1.00
H1554  H     0.03920   0.36306   0.93555   0.00000  Uiso   1.00
H1555  H     0.06819   0.41477   0.93694   0.00000  Uiso   1.00
H1556  H     0.01082   0.41520   0.93591   0.00000  Uiso   1.00
H1557  H     0.02852   0.43079   0.85525   0.00000  Uiso   1.00
H1558  H     0.01437   0.37491   0.85624   0.00000  Uiso   1.00
H1559  H     0.17912   0.27212   0.87790   0.00000  Uiso   1.00
H1560  H     0.06272   0.27678   0.95680   0.00000  Uiso   1.00
H1561  H     0.12279   0.25913   0.88200   0.00000  Uiso   1.00
H1562  H     0.15845   0.22131   0.85285   0.00000  Uiso   1.00
H1563  H     0.11819   0.26362   0.79312   0.00000  Uiso   1.00
H1564  H     0.17257   0.27464   0.79075   0.00000  Uiso   1.00
H1565  H     0.46080   0.13694   0.93555   0.00000  Uiso   1.00
H1566  H     0.43182   0.08523   0.93694   0.00000  Uiso   1.00
H1567  H     0.48918   0.08480   0.93591   0.00000  Uiso   1.00
H1568  H     0.47148   0.06921   0.85525   0.00000  Uiso   1.00
H1569  H     0.48563   0.12509   0.85624   0.00000  Uiso   1.00
H1570  H     0.10789   0.15528   0.98355   0.00000  Uiso   1.00
H1571  H     0.06303   0.27596   0.70991   0.00000  Uiso   1.00
H1572  H     0.09727   0.19870   0.94173   0.00000  Uiso   1.00
H1573  H     0.05496   0.17530   0.97741   0.00000  Uiso   1.00
H1574  H     0.04087   0.13615   0.90994   0.00000  Uiso   1.00
H1575  H     0.07457   0.09883   0.93576   0.00000  Uiso   1.00
H1576  H     0.48222   0.39841   0.72044   0.00000  Uiso   1.00
H1577  H     0.48736   0.37366   0.77730   0.00000  Uiso   1.00
H1578  H     0.46042   0.42637   0.77094   0.00000  Uiso   1.00
H1579  H     0.42886   0.33614   0.73103   0.00000  Uiso   1.00
H1580  H     0.40681   0.38871   0.71922   0.00000  Uiso   1.00
H1581  H     0.39211   0.34472   0.98355   0.00000  Uiso   1.00
H1582  H     0.43728   0.22322   0.95680   0.00000  Uiso   1.00
H1583  H     0.40273   0.30130   0.94173   0.00000  Uiso   1.00
H1584  H     0.44504   0.32470   0.97741   0.00000  Uiso   1.00
H1585  H     0.45913   0.36384   0.90994   0.00000  Uiso   1.00
H1586  H     0.42543   0.40117   0.93576   0.00000  Uiso   1.00
H1587  H     0.03958   0.07363   0.77094   0.00000  Uiso   1.00
H1588  H     0.01264   0.12633   0.77731   0.00000  Uiso   1.00
H1589  H     0.01778   0.10159   0.72044   0.00000  Uiso   1.00
H1590  H     0.07114   0.16386   0.73103   0.00000  Uiso   1.00
H1591  H     0.09319   0.11129   0.71922   0.00000  Uiso   1.00
H1592  H     0.18475   0.31855   0.73073   0.00000  Uiso   1.00
H1593  H     0.23236   0.43239   0.71009   0.00000  Uiso   1.00
H1594  H     0.18542   0.37784   0.72746   0.00000  Uiso   1.00
H1595  H     0.23456   0.34704   0.72328   0.00000  Uiso   1.00
H1596  H     0.23358   0.37752   0.80143   0.00000  Uiso   1.00
H1597  H     0.22286   0.32124   0.80871   0.00000  Uiso   1.00
H1598  H     0.41100   0.47080   0.82528   0.00000  Uiso   1.00
H1599  H     0.37660   0.00609   0.79109   0.00000  Uiso   1.00
H1600  H     0.43250   0.02021   0.79805   0.00000  Uiso   1.00
H1601  H     0.42010   0.02814   0.88523   0.00000  Uiso   1.00
H1602  H     0.36650   0.01590   0.87827   0.00000  Uiso   1.00
H1603  H     0.31459   0.12216   0.72746   0.00000  Uiso   1.00
H1604  H     0.26976   0.06737   0.95665   0.00000  Uiso   1.00
H1605  H     0.26544   0.15296   0.72327   0.00000  Uiso   1.00
H1606  H     0.31525   0.18145   0.73073   0.00000  Uiso   1.00
H1607  H     0.26642   0.12248   0.80143   0.00000  Uiso   1.00
H1608  H     0.27714   0.17876   0.80870   0.00000  Uiso   1.00
H1609  H     0.12340   0.49391   0.79109   0.00000  Uiso   1.00
H1610  H     0.06750   0.47979   0.79804   0.00000  Uiso   1.00
H1611  H     0.08900   0.02920   0.82528   0.00000  Uiso   1.00
H1612  H     0.07990   0.47186   0.88523   0.00000  Uiso   1.00
H1613  H     0.13350   0.48410   0.87827   0.00000  Uiso   1.00
H1614  H     0.37153   0.41968   0.97849   0.00000  Uiso   1.00
H1615  H     0.26764   0.06761   0.71009   0.00000  Uiso   1.00
H1616  H     0.35288   0.45831   0.93494   0.00000  Uiso   1.00
H1617  H     0.31772   0.43625   0.97918   0.00000  Uiso   1.00
H1618  H     0.29682   0.39012   0.91654   0.00000  Uiso   1.00
H1619  H     0.33453   0.35746   0.94265   0.00000  Uiso   1.00
H1620  H     0.19488   0.16999   0.69788   0.00000  Uiso   1.00
H1621  H     0.19065   0.19000   0.75742   0.00000  Uiso   1.00
H1622  H     0.14359   0.18224   0.72195   0.00000  Uiso   1.00
H1623  H     0.20644   0.11144   0.75490   0.00000  Uiso   1.00
H1624  H     0.16156   0.09800   0.71985   0.00000  Uiso   1.00
H1625  H     0.12847   0.08032   0.97848   0.00000  Uiso   1.00
H1626  H     0.23024   0.43263   0.95665   0.00000  Uiso   1.00
H1627  H     0.14713   0.04169   0.93495   0.00000  Uiso   1.00
H1628  H     0.18228   0.06375   0.97918   0.00000  Uiso   1.00
H1629  H     0.20318   0.10988   0.91654   0.00000  Uiso   1.00
H1630  H     0.16547   0.14254   0.94265   0.00000  Uiso   1.00
H1631  H     0.35641   0.31776   0.72196   0.00000  Uiso   1.00
H1632  H     0.30935   0.31000   0.75742   0.00000  Uiso   1.00
H1633  H     0.30512   0.33000   0.69788   0.00000  Uiso   1.00
H1634  H     0.29356   0.38856   0.75490   0.00000  Uiso   1.00
H1635  H     0.33844   0.40200   0.71985   0.00000  Uiso   1.00
H1636  H     0.32088   0.22788   0.87789   0.00000  Uiso   1.00
N1637  N     0.00000   0.25000   0.95069   0.00000  Uiso   1.00
N1638  N     0.00000   0.25000   0.71598   0.00000  Uiso   1.00
N1639  N     0.25000  -0.00000   0.95069   0.00000  Uiso   1.00
N1640  N     0.25000  -0.00000   0.71598   0.00000  Uiso   1.00
O1641  O     0.04509   0.20491   0.87291   0.00000  Uiso   1.00
O1642  O     0.20492   0.04509   0.79375   0.00000  Uiso   1.00
O1643  O     0.20492   0.04509   0.87291   0.00000  Uiso   1.00
O1644  O     0.29509   0.45491   0.79375   0.00000  Uiso   1.00
O1645  O     0.20492   0.45491   0.79375   0.00000  Uiso   1.00
O1646  O     0.29509   0.04509   0.87291   0.00000  Uiso   1.00
O1647  O     0.29509   0.04509   0.79375   0.00000  Uiso   1.00
O1648  O     0.20492   0.45491   0.87291   0.00000  Uiso   1.00
O1649  O     0.45492   0.29509   0.79375   0.00000  Uiso   1.00
O1650  O     0.45492   0.29509   0.87291   0.00000  Uiso   1.00
O1651  O     0.04509   0.20491   0.79375   0.00000  Uiso   1.00
O1652  O     0.45492   0.20491   0.79375   0.00000  Uiso   1.00
O1653  O     0.04509   0.29509   0.87291   0.00000  Uiso   1.00
O1654  O     0.04509   0.29509   0.79375   0.00000  Uiso   1.00
O1655  O     0.45492   0.20491   0.87291   0.00000  Uiso   1.00
O1656  O     0.29509   0.45491   0.87291   0.00000  Uiso   1.00
C1657  C     0.55638   0.18730   0.83340   0.00000  Uiso   1.00
C1658  C     0.53466   0.26511   0.97524   0.00000  Uiso   1.00
C1659  C     0.53484   0.26468   0.69145   0.00000  Uiso   1.00
C1660  C     0.96534   0.23489   0.97524   0.00000  Uiso   1.00
C1661  C     0.73959   0.46255   0.69145   0.00000  Uiso   1.00
C1662  C     0.76130   0.03726   0.97521   0.00000  Uiso   1.00
C1663  C     0.76041   0.03745   0.69145   0.00000  Uiso   1.00
C1664  C     0.73870   0.46274   0.97521   0.00000  Uiso   1.00
C1665  C     0.86586   0.16995   0.82033   0.00000  Uiso   1.00
C1666  C     0.58347   0.38658   0.84964   0.00000  Uiso   1.00
C1667  C     0.63414   0.33005   0.82033   0.00000  Uiso   1.00
C1668  C     0.94363   0.31270   0.83340   0.00000  Uiso   1.00
C1669  C     0.91653   0.11342   0.84964   0.00000  Uiso   1.00
C1670  C     0.60335   0.13443   0.87720   0.00000  Uiso   1.00
C1671  C     0.89638   0.36650   0.79136   0.00000  Uiso   1.00
C1672  C     0.89665   0.36557   0.87720   0.00000  Uiso   1.00
C1673  C     0.60362   0.13350   0.79136   0.00000  Uiso   1.00
C1674  C     0.66625   0.36297   0.81716   0.00000  Uiso   1.00
C1675  C     0.88393   0.08088   0.84849   0.00000  Uiso   1.00
C1676  C     0.83375   0.13703   0.81716   0.00000  Uiso   1.00
C1677  C     0.61607   0.41912   0.84849   0.00000  Uiso   1.00
C1678  C     0.85699   0.38751   0.87774   0.00000  Uiso   1.00
C1679  C     0.94101   0.19028   0.83352   0.00000  Uiso   1.00
C1680  C     0.64507   0.11583   0.79167   0.00000  Uiso   1.00
C1681  C     0.64301   0.11249   0.87774   0.00000  Uiso   1.00
C1682  C     0.85493   0.38417   0.79167   0.00000  Uiso   1.00
C1683  C     0.59271   0.34286   0.83433   0.00000  Uiso   1.00
C1684  C     0.90729   0.15714   0.83433   0.00000  Uiso   1.00
C1685  C     0.91316   0.35008   0.83391   0.00000  Uiso   1.00
C1686  C     0.58684   0.14992   0.83391   0.00000  Uiso   1.00
C1687  C     0.84276   0.09325   0.83289   0.00000  Uiso   1.00
C1688  C     0.65724   0.40675   0.83289   0.00000  Uiso   1.00
C1689  C     0.66171   0.09925   0.83441   0.00000  Uiso   1.00
C1690  C     0.55899   0.30972   0.83352   0.00000  Uiso   1.00
C1691  C     0.83829   0.40075   0.83441   0.00000  Uiso   1.00
C1692  C     0.85585   0.21939   0.81265   0.00000  Uiso   1.00
C1693  C     0.84852   0.24304   0.85931   0.00000  Uiso   1.00
C1694  C     0.53936   0.39815   0.86873   0.00000  Uiso   1.00
C1695  C     0.53952   0.39781   0.92245   0.00000  Uiso   1.00
C1696  C     0.64415   0.28061   0.81265   0.00000  Uiso   1.00
C1697  C     0.65148   0.25696   0.85931   0.00000  Uiso   1.00
C1698  C     0.96064   0.10185   0.86873   0.00000  Uiso   1.00
C1699  C     0.96049   0.10219   0.92245   0.00000  Uiso   1.00
C1700  C     0.57458   0.13257   0.92041   0.00000  Uiso   1.00
C1701  C     0.80668   0.43736   0.83352   0.00000  Uiso   1.00
C1702  C     0.58459   0.16769   0.95768   0.00000  Uiso   1.00
C1703  C     0.92333   0.36930   0.74663   0.00000  Uiso   1.00
C1704  C     0.96588   0.39337   0.75461   0.00000  Uiso   1.00
C1705  C     0.92542   0.36743   0.92041   0.00000  Uiso   1.00
C1706  C     0.91541   0.33231   0.95768   0.00000  Uiso   1.00
C1707  C     0.57667   0.13070   0.74663   0.00000  Uiso   1.00
C1708  C     0.53412   0.10663   0.75461   0.00000  Uiso   1.00
C1709  C     0.70888   0.35209   0.79411   0.00000  Uiso   1.00
C1710  C     0.70311   0.34860   0.74086   0.00000  Uiso   1.00
C1711  C     0.89355   0.03212   0.86005   0.00000  Uiso   1.00
C1712  C     0.69332   0.06264   0.83352   0.00000  Uiso   1.00
C1713  C     0.90403   0.00582   0.81577   0.00000  Uiso   1.00
C1714  C     0.79112   0.14791   0.79411   0.00000  Uiso   1.00
C1715  C     0.79689   0.15140   0.74086   0.00000  Uiso   1.00
C1716  C     0.60645   0.46788   0.86005   0.00000  Uiso   1.00
C1717  C     0.59598   0.49418   0.81577   0.00000  Uiso   1.00
C1718  C     0.83168   0.38929   0.92355   0.00000  Uiso   1.00
C1719  C     0.84444   0.42823   0.95544   0.00000  Uiso   1.00
C1720  C     0.67295   0.12044   0.74792   0.00000  Uiso   1.00
C1721  C     0.67542   0.16856   0.73038   0.00000  Uiso   1.00
C1722  C     0.66832   0.11071   0.92355   0.00000  Uiso   1.00
C1723  C     0.69097   0.44017   0.83322   0.00000  Uiso   1.00
C1724  C     0.65556   0.07177   0.95544   0.00000  Uiso   1.00
C1725  C     0.82705   0.37956   0.74792   0.00000  Uiso   1.00
C1726  C     0.82458   0.33144   0.73039   0.00000  Uiso   1.00
C1727  C     0.80903   0.05983   0.83322   0.00000  Uiso   1.00
C1728  C     0.96517   0.23532   0.69145   0.00000  Uiso   1.00
Cu1729 Cu    0.50000   0.25000   0.88022   0.00000  Uiso   1.00
Cu1730 Cu    0.50000   0.25000   0.78645   0.00000  Uiso   1.00
Cu1731 Cu    0.75000  -0.00000   0.88022   0.00000  Uiso   1.00
Cu1732 Cu    0.75000  -0.00000   0.78645   0.00000  Uiso   1.00
H1733  H     0.93697   0.22404   0.70991   0.00000  Uiso   1.00
H1734  H     0.87721   0.24087   0.88200   0.00000  Uiso   1.00
H1735  H     0.84155   0.27869   0.85284   0.00000  Uiso   1.00
H1736  H     0.88181   0.23638   0.79312   0.00000  Uiso   1.00
H1737  H     0.82743   0.22536   0.79075   0.00000  Uiso   1.00
H1738  H     0.53920   0.36306   0.93555   0.00000  Uiso   1.00
H1739  H     0.56819   0.41477   0.93694   0.00000  Uiso   1.00
H1740  H     0.51082   0.41520   0.93591   0.00000  Uiso   1.00
H1741  H     0.52852   0.43079   0.85525   0.00000  Uiso   1.00
H1742  H     0.51437   0.37491   0.85624   0.00000  Uiso   1.00
H1743  H     0.67912   0.27212   0.87790   0.00000  Uiso   1.00
H1744  H     0.56272   0.27678   0.95680   0.00000  Uiso   1.00
H1745  H     0.62279   0.25913   0.88200   0.00000  Uiso   1.00
H1746  H     0.65845   0.22131   0.85285   0.00000  Uiso   1.00
H1747  H     0.61819   0.26362   0.79312   0.00000  Uiso   1.00
H1748  H     0.67257   0.27464   0.79075   0.00000  Uiso   1.00
H1749  H     0.96080   0.13694   0.93555   0.00000  Uiso   1.00
H1750  H     0.93182   0.08523   0.93694   0.00000  Uiso   1.00
H1751  H     0.98918   0.08480   0.93591   0.00000  Uiso   1.00
H1752  H     0.97148   0.06921   0.85525   0.00000  Uiso   1.00
H1753  H     0.98563   0.12509   0.85624   0.00000  Uiso   1.00
H1754  H     0.60789   0.15528   0.98355   0.00000  Uiso   1.00
H1755  H     0.56303   0.27596   0.70991   0.00000  Uiso   1.00
H1756  H     0.59727   0.19870   0.94173   0.00000  Uiso   1.00
H1757  H     0.55496   0.17530   0.97741   0.00000  Uiso   1.00
H1758  H     0.54087   0.13615   0.90994   0.00000  Uiso   1.00
H1759  H     0.57457   0.09883   0.93576   0.00000  Uiso   1.00
H1760  H     0.98222   0.39841   0.72044   0.00000  Uiso   1.00
H1761  H     0.98736   0.37366   0.77730   0.00000  Uiso   1.00
H1762  H     0.96042   0.42637   0.77094   0.00000  Uiso   1.00
H1763  H     0.92886   0.33614   0.73103   0.00000  Uiso   1.00
H1764  H     0.90681   0.38871   0.71922   0.00000  Uiso   1.00
H1765  H     0.89211   0.34472   0.98355   0.00000  Uiso   1.00
H1766  H     0.93728   0.22322   0.95680   0.00000  Uiso   1.00
H1767  H     0.90273   0.30130   0.94173   0.00000  Uiso   1.00
H1768  H     0.94504   0.32470   0.97741   0.00000  Uiso   1.00
H1769  H     0.95913   0.36384   0.90994   0.00000  Uiso   1.00
H1770  H     0.92543   0.40117   0.93576   0.00000  Uiso   1.00
H1771  H     0.53958   0.07363   0.77094   0.00000  Uiso   1.00
H1772  H     0.51264   0.12633   0.77731   0.00000  Uiso   1.00
H1773  H     0.51778   0.10159   0.72044   0.00000  Uiso   1.00
H1774  H     0.57114   0.16386   0.73103   0.00000  Uiso   1.00
H1775  H     0.59319   0.11129   0.71922   0.00000  Uiso   1.00
H1776  H     0.68475   0.31855   0.73073   0.00000  Uiso   1.00
H1777  H     0.73236   0.43239   0.71009   0.00000  Uiso   1.00
H1778  H     0.68542   0.37784   0.72746   0.00000  Uiso   1.00
H1779  H     0.73456   0.34704   0.72328   0.00000  Uiso   1.00
H1780  H     0.73358   0.37752   0.80143   0.00000  Uiso   1.00
H1781  H     0.72286   0.32124   0.80871   0.00000  Uiso   1.00
H1782  H     0.91100   0.47080   0.82528   0.00000  Uiso   1.00
H1783  H     0.87660   0.00609   0.79109   0.00000  Uiso   1.00
H1784  H     0.93250   0.02021   0.79805   0.00000  Uiso   1.00
H1785  H     0.92010   0.02814   0.88523   0.00000  Uiso   1.00
H1786  H     0.86650   0.01590   0.87827   0.00000  Uiso   1.00
H1787  H     0.81459   0.12216   0.72746   0.00000  Uiso   1.00
H1788  H     0.76976   0.06737   0.95665   0.00000  Uiso   1.00
H1789  H     0.76544   0.15296   0.72327   0.00000  Uiso   1.00
H1790  H     0.81525   0.18145   0.73073   0.00000  Uiso   1.00
H1791  H     0.76642   0.12248   0.80143   0.00000  Uiso   1.00
H1792  H     0.77714   0.17876   0.80870   0.00000  Uiso   1.00
H1793  H     0.62340   0.49391   0.79109   0.00000  Uiso   1.00
H1794  H     0.56750   0.47979   0.79804   0.00000  Uiso   1.00
H1795  H     0.58900   0.02920   0.82528   0.00000  Uiso   1.00
H1796  H     0.57990   0.47186   0.88523   0.00000  Uiso   1.00
H1797  H     0.63350   0.48410   0.87827   0.00000  Uiso   1.00
H1798  H     0.87153   0.41968   0.97849   0.00000  Uiso   1.00
H1799  H     0.76764   0.06761   0.71009   0.00000  Uiso   1.00
H1800  H     0.85288   0.45831   0.93494   0.00000  Uiso   1.00
H1801  H     0.81772   0.43625   0.97918   0.00000  Uiso   1.00
H1802  H     0.79682   0.39012   0.91654   0.00000  Uiso   1.00
H1803  H     0.83453   0.35746   0.94265   0.00000  Uiso   1.00
H1804  H     0.69488   0.16999   0.69788   0.00000  Uiso   1.00
H1805  H     0.69065   0.19000   0.75742   0.00000  Uiso   1.00
H1806  H     0.64359   0.18224   0.72195   0.00000  Uiso   1.00
H1807  H     0.70644   0.11144   0.75490   0.00000  Uiso   1.00
H1808  H     0.66156   0.09800   0.71985   0.00000  Uiso   1.00
H1809  H     0.62847   0.08032   0.97848   0.00000  Uiso   1.00
H1810  H     0.73024   0.43263   0.95665   0.00000  Uiso   1.00
H1811  H     0.64713   0.04169   0.93495   0.00000  Uiso   1.00
H1812  H     0.68228   0.06375   0.97918   0.00000  Uiso   1.00
H1813  H     0.70318   0.10988   0.91654   0.00000  Uiso   1.00
H1814  H     0.66547   0.14254   0.94265   0.00000  Uiso   1.00
H1815  H     0.85641   0.31776   0.72196   0.00000  Uiso   1.00
H1816  H     0.80935   0.31000   0.75742   0.00000  Uiso   1.00
H1817  H     0.80512   0.33000   0.69788   0.00000  Uiso   1.00
H1818  H     0.79356   0.38856   0.75490   0.00000  Uiso   1.00
H1819  H     0.83844   0.40200   0.71985   0.00000  Uiso   1.00
H1820  H     0.82088   0.22788   0.87789   0.00000  Uiso   1.00
N1821  N     0.50000   0.25000   0.95069   0.00000  Uiso   1.00
N1822  N     0.50000   0.25000   0.71598   0.00000  Uiso   1.00
N1823  N     0.75000  -0.00000   0.95069   0.00000  Uiso   1.00
N1824  N     0.75000  -0.00000   0.71598   0.00000  Uiso   1.00
O1825  O     0.54509   0.20491   0.87291   0.00000  Uiso   1.00
O1826  O     0.70492   0.04509   0.79375   0.00000  Uiso   1.00
O1827  O     0.70492   0.04509   0.87291   0.00000  Uiso   1.00
O1828  O     0.79509   0.45491   0.79375   0.00000  Uiso   1.00
O1829  O     0.70492   0.45491   0.79375   0.00000  Uiso   1.00
O1830  O     0.79509   0.04509   0.87291   0.00000  Uiso   1.00
O1831  O     0.79509   0.04509   0.79375   0.00000  Uiso   1.00
O1832  O     0.70492   0.45491   0.87291   0.00000  Uiso   1.00
O1833  O     0.95492   0.29509   0.79375   0.00000  Uiso   1.00
O1834  O     0.95492   0.29509   0.87291   0.00000  Uiso   1.00
O1835  O     0.54509   0.20491   0.79375   0.00000  Uiso   1.00
O1836  O     0.95492   0.20491   0.79375   0.00000  Uiso   1.00
O1837  O     0.54509   0.29509   0.87291   0.00000  Uiso   1.00
O1838  O     0.54509   0.29509   0.79375   0.00000  Uiso   1.00
O1839  O     0.95492   0.20491   0.87291   0.00000  Uiso   1.00
O1840  O     0.79509   0.45491   0.87291   0.00000  Uiso   1.00
C1841  C     0.05638   0.68730   0.83340   0.00000  Uiso   1.00
C1842  C     0.03466   0.76511   0.97524   0.00000  Uiso   1.00
C1843  C     0.03484   0.76468   0.69145   0.00000  Uiso   1.00
C1844  C     0.46534   0.73489   0.97524   0.00000  Uiso   1.00
C1845  C     0.23959   0.96255   0.69145   0.00000  Uiso   1.00
C1846  C     0.26130   0.53726   0.97521   0.00000  Uiso   1.00
C1847  C     0.26041   0.53745   0.69145   0.00000  Uiso   1.00
C1848  C     0.23870   0.96274   0.97521   0.00000  Uiso   1.00
C1849  C     0.36586   0.66995   0.82033   0.00000  Uiso   1.00
C1850  C     0.08347   0.88658   0.84964   0.00000  Uiso   1.00
C1851  C     0.13414   0.83005   0.82033   0.00000  Uiso   1.00
C1852  C     0.44363   0.81270   0.83340   0.00000  Uiso   1.00
C1853  C     0.41653   0.61342   0.84964   0.00000  Uiso   1.00
C1854  C     0.10335   0.63443   0.87720   0.00000  Uiso   1.00
C1855  C     0.39638   0.86650   0.79136   0.00000  Uiso   1.00
C1856  C     0.39665   0.86557   0.87720   0.00000  Uiso   1.00
C1857  C     0.10362   0.63350   0.79136   0.00000  Uiso   1.00
C1858  C     0.16625   0.86297   0.81716   0.00000  Uiso   1.00
C1859  C     0.38393   0.58088   0.84849   0.00000  Uiso   1.00
C1860  C     0.33375   0.63703   0.81716   0.00000  Uiso   1.00
C1861  C     0.11607   0.91912   0.84849   0.00000  Uiso   1.00
C1862  C     0.35699   0.88751   0.87774   0.00000  Uiso   1.00
C1863  C     0.44101   0.69028   0.83352   0.00000  Uiso   1.00
C1864  C     0.14507   0.61583   0.79167   0.00000  Uiso   1.00
C1865  C     0.14301   0.61249   0.87774   0.00000  Uiso   1.00
C1866  C     0.35493   0.88417   0.79167   0.00000  Uiso   1.00
C1867  C     0.09271   0.84286   0.83433   0.00000  Uiso   1.00
C1868  C     0.40729   0.65714   0.83433   0.00000  Uiso   1.00
C1869  C     0.41316   0.85008   0.83391   0.00000  Uiso   1.00
C1870  C     0.08684   0.64992   0.83391   0.00000  Uiso   1.00
C1871  C     0.34276   0.59325   0.83289   0.00000  Uiso   1.00
C1872  C     0.15724   0.90675   0.83289   0.00000  Uiso   1.00
C1873  C     0.16171   0.59925   0.83441   0.00000  Uiso   1.00
C1874  C     0.05899   0.80972   0.83352   0.00000  Uiso   1.00
C1875  C     0.33829   0.90075   0.83441   0.00000  Uiso   1.00
C1876  C     0.35585   0.71939   0.81265   0.00000  Uiso   1.00
C1877  C     0.34852   0.74304   0.85931   0.00000  Uiso   1.00
C1878  C     0.03936   0.89815   0.86873   0.00000  Uiso   1.00
C1879  C     0.03952   0.89781   0.92245   0.00000  Uiso   1.00
C1880  C     0.14415   0.78061   0.81265   0.00000  Uiso   1.00
C1881  C     0.15148   0.75696   0.85931   0.00000  Uiso   1.00
C1882  C     0.46064   0.60185   0.86873   0.00000  Uiso   1.00
C1883  C     0.46049   0.60219   0.92245   0.00000  Uiso   1.00
C1884  C     0.07458   0.63257   0.92041   0.00000  Uiso   1.00
C1885  C     0.30668   0.93736   0.83352   0.00000  Uiso   1.00
C1886  C     0.08459   0.66769   0.95768   0.00000  Uiso   1.00
C1887  C     0.42333   0.86930   0.74663   0.00000  Uiso   1.00
C1888  C     0.46588   0.89337   0.75461   0.00000  Uiso   1.00
C1889  C     0.42542   0.86743   0.92041   0.00000  Uiso   1.00
C1890  C     0.41541   0.83231   0.95768   0.00000  Uiso   1.00
C1891  C     0.07667   0.63070   0.74663   0.00000  Uiso   1.00
C1892  C     0.03412   0.60663   0.75461   0.00000  Uiso   1.00
C1893  C     0.20888   0.85209   0.79411   0.00000  Uiso   1.00
C1894  C     0.20311   0.84860   0.74086   0.00000  Uiso   1.00
C1895  C     0.39355   0.53212   0.86005   0.00000  Uiso   1.00
C1896  C     0.19332   0.56264   0.83352   0.00000  Uiso   1.00
C1897  C     0.40403   0.50582   0.81577   0.00000  Uiso   1.00
C1898  C     0.29112   0.64791   0.79411   0.00000  Uiso   1.00
C1899  C     0.29689   0.65140   0.74086   0.00000  Uiso   1.00
C1900  C     0.10645   0.96788   0.86005   0.00000  Uiso   1.00
C1901  C     0.09598   0.99418   0.81577   0.00000  Uiso   1.00
C1902  C     0.33168   0.88929   0.92355   0.00000  Uiso   1.00
C1903  C     0.34444   0.92823   0.95544   0.00000  Uiso   1.00
C1904  C     0.17295   0.62044   0.74792   0.00000  Uiso   1.00
C1905  C     0.17542   0.66856   0.73038   0.00000  Uiso   1.00
C1906  C     0.16832   0.61071   0.92355   0.00000  Uiso   1.00
C1907  C     0.19097   0.94017   0.83322   0.00000  Uiso   1.00
C1908  C     0.15556   0.57177   0.95544   0.00000  Uiso   1.00
C1909  C     0.32705   0.87956   0.74792   0.00000  Uiso   1.00
C1910  C     0.32458   0.83144   0.73039   0.00000  Uiso   1.00
C1911  C     0.30903   0.55983   0.83322   0.00000  Uiso   1.00
C1912  C     0.46517   0.73532   0.69145   0.00000  Uiso   1.00
Cu1913 Cu    0.00000   0.75000   0.88022   0.00000  Uiso   1.00
Cu1914 Cu    0.00000   0.75000   0.78645   0.00000  Uiso   1.00
Cu1915 Cu    0.25000   0.50000   0.88022   0.00000  Uiso   1.00
Cu1916 Cu    0.25000   0.50000   0.78645   0.00000  Uiso   1.00
H1917  H     0.43697   0.72404   0.70991   0.00000  Uiso   1.00
H1918  H     0.37721   0.74087   0.88200   0.00000  Uiso   1.00
H1919  H     0.34155   0.77869   0.85284   0.00000  Uiso   1.00
H1920  H     0.38181   0.73638   0.79312   0.00000  Uiso   1.00
H1921  H     0.32743   0.72536   0.79075   0.00000  Uiso   1.00
H1922  H     0.03920   0.86306   0.93555   0.00000  Uiso   1.00
H1923  H     0.06819   0.91477   0.93694   0.00000  Uiso   1.00
H1924  H     0.01082   0.91520   0.93591   0.00000  Uiso   1.00
H1925  H     0.02852   0.93079   0.85525   0.00000  Uiso   1.00
H1926  H     0.01437   0.87491   0.85624   0.00000  Uiso   1.00
H1927  H     0.17912   0.77212   0.87790   0.00000  Uiso   1.00
H1928  H     0.06272   0.77678   0.95680   0.00000  Uiso   1.00
H1929  H     0.12279   0.75913   0.88200   0.00000  Uiso   1.00
H1930  H     0.15845   0.72131   0.85285   0.00000  Uiso   1.00
H1931  H     0.11819   0.76362   0.79312   0.00000  Uiso   1.00
H1932  H     0.17257   0.77464   0.79075   0.00000  Uiso   1.00
H1933  H     0.46080   0.63694   0.93555   0.00000  Uiso   1.00
H1934  H     0.43182   0.58523   0.93694   0.00000  Uiso   1.00
H1935  H     0.48918   0.58480   0.93591   0.00000  Uiso   1.00
H1936  H     0.47148   0.56921   0.85525   0.00000  Uiso   1.00
H1937  H     0.48563   0.62509   0.85624   0.00000  Uiso   1.00
H1938  H     0.10789   0.65528   0.98355   0.00000  Uiso   1.00
H1939  H     0.06303   0.77596   0.70991   0.00000  Uiso   1.00
H1940  H     0.09727   0.69870   0.94173   0.00000  Uiso   1.00
H1941  H     0.05496   0.67530   0.97741   0.00000  Uiso   1.00
H1942  H     0.04087   0.63615   0.90994   0.00000  Uiso   1.00
H1943  H     0.07457   0.59883   0.93576   0.00000  Uiso   1.00
H1944  H     0.48222   0.89841   0.72044   0.00000  Uiso   1.00
H1945  H     0.48736   0.87366   0.77730   0.00000  Uiso   1.00
H1946  H     0.46042   0.92637   0.77094   0.00000  Uiso   1.00
H1947  H     0.42886   0.83614   0.73103   0.00000  Uiso   1.00
H1948  H     0.40681   0.88871   0.71922   0.00000  Uiso   1.00
H1949  H     0.39211   0.84472   0.98355   0.00000  Uiso   1.00
H1950  H     0.43728   0.72322   0.95680   0.00000  Uiso   1.00
H1951  H     0.40273   0.80130   0.94173   0.00000  Uiso   1.00
H1952  H     0.44504   0.82470   0.97741   0.00000  Uiso   1.00
H1953  H     0.45913   0.86384   0.90994   0.00000  Uiso   1.00
H1954  H     0.42543   0.90117   0.93576   0.00000  Uiso   1.00
H1955  H     0.03958   0.57363   0.77094   0.00000  Uiso   1.00
H1956  H     0.01264   0.62633   0.77731   0.00000  Uiso   1.00
H1957  H     0.01778   0.60159   0.72044   0.00000  Uiso   1.00
H1958  H     0.07114   0.66386   0.73103   0.00000  Uiso   1.00
H1959  H     0.09319   0.61129   0.71922   0.00000  Uiso   1.00
H1960  H     0.18475   0.81855   0.73073   0.00000  Uiso   1.00
H1961  H     0.23236   0.93239   0.71009   0.00000  Uiso   1.00
H1962  H     0.18542   0.87784   0.72746   0.00000  Uiso   1.00
H1963  H     0.23456   0.84704   0.72328   0.00000  Uiso   1.00
H1964  H     0.23358   0.87752   0.80143   0.00000  Uiso   1.00
H1965  H     0.22286   0.82124   0.80871   0.00000  Uiso   1.00
H1966  H     0.41100   0.97080   0.82528   0.00000  Uiso   1.00
H1967  H     0.37660   0.50609   0.79109   0.00000  Uiso   1.00
H1968  H     0.43250   0.52021   0.79805   0.00000  Uiso   1.00
H1969  H     0.42010   0.52814   0.88523   0.00000  Uiso   1.00
H1970  H     0.36650   0.51590   0.87827   0.00000  Uiso   1.00
H1971  H     0.31459   0.62216   0.72746   0.00000  Uiso   1.00
H1972  H     0.26976   0.56737   0.95665   0.00000  Uiso   1.00
H1973  H     0.26544   0.65296   0.72327   0.00000  Uiso   1.00
H1974  H     0.31525   0.68145   0.73073   0.00000  Uiso   1.00
H1975  H     0.26642   0.62248   0.80143   0.00000  Uiso   1.00
H1976  H     0.27714   0.67876   0.80870   0.00000  Uiso   1.00
H1977  H     0.12340   0.99391   0.79109   0.00000  Uiso   1.00
H1978  H     0.06750   0.97979   0.79804   0.00000  Uiso   1.00
H1979  H     0.08900   0.52920   0.82528   0.00000  Uiso   1.00
H1980  H     0.07990   0.97186   0.88523   0.00000  Uiso   1.00
H1981  H     0.13350   0.98410   0.87827   0.00000  Uiso   1.00
H1982  H     0.37153   0.91968   0.97849   0.00000  Uiso   1.00
H1983  H     0.26764   0.56761   0.71009   0.00000  Uiso   1.00
H1984  H     0.35288   0.95831   0.93494   0.00000  Uiso   1.00
H1985  H     0.31772   0.93625   0.97918   0.00000  Uiso   1.00
H1986  H     0.29682   0.89012   0.91654   0.00000  Uiso   1.00
H1987  H     0.33453   0.85746   0.94265   0.00000  Uiso   1.00
H1988  H     0.19488   0.66999   0.69788   0.00000  Uiso   1.00
H1989  H     0.19065   0.69000   0.75742   0.00000  Uiso   1.00
H1990  H     0.14359   0.68224   0.72195   0.00000  Uiso   1.00
H1991  H     0.20644   0.61144   0.75490   0.00000  Uiso   1.00
H1992  H     0.16156   0.59800   0.71985   0.00000  Uiso   1.00
H1993  H     0.12847   0.58032   0.97848   0.00000  Uiso   1.00
H1994  H     0.23024   0.93263   0.95665   0.00000  Uiso   1.00
H1995  H     0.14713   0.54169   0.93495   0.00000  Uiso   1.00
H1996  H     0.18228   0.56375   0.97918   0.00000  Uiso   1.00
H1997  H     0.20318   0.60988   0.91654   0.00000  Uiso   1.00
H1998  H     0.16547   0.64254   0.94265   0.00000  Uiso   1.00
H1999  H     0.35641   0.81776   0.72196   0.00000  Uiso   1.00
H2000  H     0.30935   0.81000   0.75742   0.00000  Uiso   1.00
H2001  H     0.30512   0.83000   0.69788   0.00000  Uiso   1.00
H2002  H     0.29356   0.88856   0.75490   0.00000  Uiso   1.00
H2003  H     0.33844   0.90200   0.71985   0.00000  Uiso   1.00
H2004  H     0.32088   0.72788   0.87789   0.00000  Uiso   1.00
N2005  N     0.00000   0.75000   0.95069   0.00000  Uiso   1.00
N2006  N     0.00000   0.75000   0.71598   0.00000  Uiso   1.00
N2007  N     0.25000   0.50000   0.95069   0.00000  Uiso   1.00
N2008  N     0.25000   0.50000   0.71598   0.00000  Uiso   1.00
O2009  O     0.04509   0.70491   0.87291   0.00000  Uiso   1.00
O2010  O     0.20492   0.54509   0.79375   0.00000  Uiso   1.00
O2011  O     0.20492   0.54509   0.87291   0.00000  Uiso   1.00
O2012  O     0.29509   0.95491   0.79375   0.00000  Uiso   1.00
O2013  O     0.20492   0.95491   0.79375   0.00000  Uiso   1.00
O2014  O     0.29509   0.54509   0.87291   0.00000  Uiso   1.00
O2015  O     0.29509   0.54509   0.79375   0.00000  Uiso   1.00
O2016  O     0.20492   0.95491   0.87291   0.00000  Uiso   1.00
O2017  O     0.45492   0.79509   0.79375   0.00000  Uiso   1.00
O2018  O     0.45492   0.79509   0.87291   0.00000  Uiso   1.00
O2019  O     0.04509   0.70491   0.79375   0.00000  Uiso   1.00
O2020  O     0.45492   0.70491   0.79375   0.00000  Uiso   1.00
O2021  O     0.04509   0.79509   0.87291   0.00000  Uiso   1.00
O2022  O     0.04509   0.79509   0.79375   0.00000  Uiso   1.00
O2023  O     0.45492   0.70491   0.87291   0.00000  Uiso   1.00
O2024  O     0.29509   0.95491   0.87291   0.00000  Uiso   1.00
C2025  C     0.55638   0.68730   0.83340   0.00000  Uiso   1.00
C2026  C     0.53466   0.76511   0.97524   0.00000  Uiso   1.00
C2027  C     0.53484   0.76468   0.69145   0.00000  Uiso   1.00
C2028  C     0.96534   0.73489   0.97524   0.00000  Uiso   1.00
C2029  C     0.73959   0.96255   0.69145   0.00000  Uiso   1.00
C2030  C     0.76130   0.53726   0.97521   0.00000  Uiso   1.00
C2031  C     0.76041   0.53745   0.69145   0.00000  Uiso   1.00
C2032  C     0.73870   0.96274   0.97521   0.00000  Uiso   1.00
C2033  C     0.86586   0.66995   0.82033   0.00000  Uiso   1.00
C2034  C     0.58347   0.88658   0.84964   0.00000  Uiso   1.00
C2035  C     0.63414   0.83005   0.82033   0.00000  Uiso   1.00
C2036  C     0.94363   0.81270   0.83340   0.00000  Uiso   1.00
C2037  C     0.91653   0.61342   0.84964   0.00000  Uiso   1.00
C2038  C     0.60335   0.63443   0.87720   0.00000  Uiso   1.00
C2039  C     0.89638   0.86650   0.79136   0.00000  Uiso   1.00
C2040  C     0.89665   0.86557   0.87720   0.00000  Uiso   1.00
C2041  C     0.60362   0.63350   0.79136   0.00000  Uiso   1.00
C2042  C     0.66625   0.86297   0.81716   0.00000  Uiso   1.00
C2043  C     0.88393   0.58088   0.84849   0.00000  Uiso   1.00
C2044  C     0.83375   0.63703   0.81716   0.00000  Uiso   1.00
C2045  C     0.61607   0.91912   0.84849   0.00000  Uiso   1.00
C2046  C     0.85699   0.88751   0.87774   0.00000  Uiso   1.00
C2047  C     0.94101   0.69028   0.83352   0.00000  Uiso   1.00
C2048  C     0.64507   0.61583   0.79167   0.00000  Uiso   1.00
C2049  C     0.64301   0.61249   0.87774   0.00000  Uiso   1.00
C2050  C     0.85493   0.88417   0.79167   0.00000  Uiso   1.00
C2051  C     0.59271   0.84286   0.83433   0.00000  Uiso   1.00
C2052  C     0.90729   0.65714   0.83433   0.00000  Uiso   1.00
C2053  C     0.91316   0.85008   0.83391   0.00000  Uiso   1.00
C2054  C     0.58684   0.64992   0.83391   0.00000  Uiso   1.00
C2055  C     0.84276   0.59325   0.83289   0.00000  Uiso   1.00
C2056  C     0.65724   0.90675   0.83289   0.00000  Uiso   1.00
C2057  C     0.66171   0.59925   0.83441   0.00000  Uiso   1.00
C2058  C     0.55899   0.80972   0.83352   0.00000  Uiso   1.00
C2059  C     0.83829   0.90075   0.83441   0.00000  Uiso   1.00
C2060  C     0.85585   0.71939   0.81265   0.00000  Uiso   1.00
C2061  C     0.84852   0.74304   0.85931   0.00000  Uiso   1.00
C2062  C     0.53936   0.89815   0.86873   0.00000  Uiso   1.00
C2063  C     0.53952   0.89781   0.92245   0.00000  Uiso   1.00
C2064  C     0.64415   0.78061   0.81265   0.00000  Uiso   1.00
C2065  C     0.65148   0.75696   0.85931   0.00000  Uiso   1.00
C2066  C     0.96064   0.60185   0.86873   0.00000  Uiso   1.00
C2067  C     0.96049   0.60219   0.92245   0.00000  Uiso   1.00
C2068  C     0.57458   0.63257   0.92041   0.00000  Uiso   1.00
C2069  C     0.80668   0.93736   0.83352   0.00000  Uiso   1.00
C2070  C     0.58459   0.66769   0.95768   0.00000  Uiso   1.00
C2071  C     0.92333   0.86930   0.74663   0.00000  Uiso   1.00
C2072  C     0.96588   0.89337   0.75461   0.00000  Uiso   1.00
C2073  C     0.92542   0.86743   0.92041   0.00000  Uiso   1.00
C2074  C     0.91541   0.83231   0.95768   0.00000  Uiso   1.00
C2075  C     0.57667   0.63070   0.74663   0.00000  Uiso   1.00
C2076  C     0.53412   0.60663   0.75461   0.00000  Uiso   1.00
C2077  C     0.70888   0.85209   0.79411   0.00000  Uiso   1.00
C2078  C     0.70311   0.84860   0.74086   0.00000  Uiso   1.00
C2079  C     0.89355   0.53212   0.86005   0.00000  Uiso   1.00
C2080  C     0.69332   0.56264   0.83352   0.00000  Uiso   1.00
C2081  C     0.90403   0.50582   0.81577   0.00000  Uiso   1.00
C2082  C     0.79112   0.64791   0.79411   0.00000  Uiso   1.00
C2083  C     0.79689   0.65140   0.74086   0.00000  Uiso   1.00
C2084  C     0.60645   0.96788   0.86005   0.00000  Uiso   1.00
C2085  C     0.59598   0.99418   0.81577   0.00000  Uiso   1.00
C2086  C     0.83168   0.88929   0.92355   0.00000  Uiso   1.00
C2087  C     0.84444   0.92823   0.95544   0.00000  Uiso   1.00
C2088  C     0.67295   0.62044   0.74792   0.00000  Uiso   1.00
C2089  C     0.67542   0.66856   0.73038   0.00000  Uiso   1.00
C2090  C     0.66832   0.61071   0.92355   0.00000  Uiso   1.00
C2091  C     0.69097   0.94017   0.83322   0.00000  Uiso   1.00
C2092  C     0.65556   0.57177   0.95544   0.00000  Uiso   1.00
C2093  C     0.82705   0.87956   0.74792   0.00000  Uiso   1.00
C2094  C     0.82458   0.83144   0.73039   0.00000  Uiso   1.00
C2095  C     0.80903   0.55983   0.83322   0.00000  Uiso   1.00
C2096  C     0.96517   0.73532   0.69145   0.00000  Uiso   1.00
Cu2097 Cu    0.50000   0.75000   0.88022   0.00000  Uiso   1.00
Cu2098 Cu    0.50000   0.75000   0.78645   0.00000  Uiso   1.00
Cu2099 Cu    0.75000   0.50000   0.88022   0.00000  Uiso   1.00
Cu2100 Cu    0.75000   0.50000   0.78645   0.00000  Uiso   1.00
H2101  H     0.93697   0.72404   0.70991   0.00000  Uiso   1.00
H2102  H     0.87721   0.74087   0.88200   0.00000  Uiso   1.00
H2103  H     0.84155   0.77869   0.85284   0.00000  Uiso   1.00
H2104  H     0.88181   0.73638   0.79312   0.00000  Uiso   1.00
H2105  H     0.82743   0.72536   0.79075   0.00000  Uiso   1.00
H2106  H     0.53920   0.86306   0.93555   0.00000  Uiso   1.00
H2107  H     0.56819   0.91477   0.93694   0.00000  Uiso   1.00
H2108  H     0.51082   0.91520   0.93591   0.00000  Uiso   1.00
H2109  H     0.52852   0.93079   0.85525   0.00000  Uiso   1.00
H2110  H     0.51437   0.87491   0.85624   0.00000  Uiso   1.00
H2111  H     0.67912   0.77212   0.87790   0.00000  Uiso   1.00
H2112  H     0.56272   0.77678   0.95680   0.00000  Uiso   1.00
H2113  H     0.62279   0.75913   0.88200   0.00000  Uiso   1.00
H2114  H     0.65845   0.72131   0.85285   0.00000  Uiso   1.00
H2115  H     0.61819   0.76362   0.79312   0.00000  Uiso   1.00
H2116  H     0.67257   0.77464   0.79075   0.00000  Uiso   1.00
H2117  H     0.96080   0.63694   0.93555   0.00000  Uiso   1.00
H2118  H     0.93182   0.58523   0.93694   0.00000  Uiso   1.00
H2119  H     0.98918   0.58480   0.93591   0.00000  Uiso   1.00
H2120  H     0.97148   0.56921   0.85525   0.00000  Uiso   1.00
H2121  H     0.98563   0.62509   0.85624   0.00000  Uiso   1.00
H2122  H     0.60789   0.65528   0.98355   0.00000  Uiso   1.00
H2123  H     0.56303   0.77596   0.70991   0.00000  Uiso   1.00
H2124  H     0.59727   0.69870   0.94173   0.00000  Uiso   1.00
H2125  H     0.55496   0.67530   0.97741   0.00000  Uiso   1.00
H2126  H     0.54087   0.63615   0.90994   0.00000  Uiso   1.00
H2127  H     0.57457   0.59883   0.93576   0.00000  Uiso   1.00
H2128  H     0.98222   0.89841   0.72044   0.00000  Uiso   1.00
H2129  H     0.98736   0.87366   0.77730   0.00000  Uiso   1.00
H2130  H     0.96042   0.92637   0.77094   0.00000  Uiso   1.00
H2131  H     0.92886   0.83614   0.73103   0.00000  Uiso   1.00
H2132  H     0.90681   0.88871   0.71922   0.00000  Uiso   1.00
H2133  H     0.89211   0.84472   0.98355   0.00000  Uiso   1.00
H2134  H     0.93728   0.72322   0.95680   0.00000  Uiso   1.00
H2135  H     0.90273   0.80130   0.94173   0.00000  Uiso   1.00
H2136  H     0.94504   0.82470   0.97741   0.00000  Uiso   1.00
H2137  H     0.95913   0.86384   0.90994   0.00000  Uiso   1.00
H2138  H     0.92543   0.90117   0.93576   0.00000  Uiso   1.00
H2139  H     0.53958   0.57363   0.77094   0.00000  Uiso   1.00
H2140  H     0.51264   0.62633   0.77731   0.00000  Uiso   1.00
H2141  H     0.51778   0.60159   0.72044   0.00000  Uiso   1.00
H2142  H     0.57114   0.66386   0.73103   0.00000  Uiso   1.00
H2143  H     0.59319   0.61129   0.71922   0.00000  Uiso   1.00
H2144  H     0.68475   0.81855   0.73073   0.00000  Uiso   1.00
H2145  H     0.73236   0.93239   0.71009   0.00000  Uiso   1.00
H2146  H     0.68542   0.87784   0.72746   0.00000  Uiso   1.00
H2147  H     0.73456   0.84704   0.72328   0.00000  Uiso   1.00
H2148  H     0.73358   0.87752   0.80143   0.00000  Uiso   1.00
H2149  H     0.72286   0.82124   0.80871   0.00000  Uiso   1.00
H2150  H     0.91100   0.97080   0.82528   0.00000  Uiso   1.00
H2151  H     0.87660   0.50609   0.79109   0.00000  Uiso   1.00
H2152  H     0.93250   0.52021   0.79805   0.00000  Uiso   1.00
H2153  H     0.92010   0.52814   0.88523   0.00000  Uiso   1.00
H2154  H     0.86650   0.51590   0.87827   0.00000  Uiso   1.00
H2155  H     0.81459   0.62216   0.72746   0.00000  Uiso   1.00
H2156  H     0.76976   0.56737   0.95665   0.00000  Uiso   1.00
H2157  H     0.76544   0.65296   0.72327   0.00000  Uiso   1.00
H2158  H     0.81525   0.68145   0.73073   0.00000  Uiso   1.00
H2159  H     0.76642   0.62248   0.80143   0.00000  Uiso   1.00
H2160  H     0.77714   0.67876   0.80870   0.00000  Uiso   1.00
H2161  H     0.62340   0.99391   0.79109   0.00000  Uiso   1.00
H2162  H     0.56750   0.97979   0.79804   0.00000  Uiso   1.00
H2163  H     0.58900   0.52920   0.82528   0.00000  Uiso   1.00
H2164  H     0.57990   0.97186   0.88523   0.00000  Uiso   1.00
H2165  H     0.63350   0.98410   0.87827   0.00000  Uiso   1.00
H2166  H     0.87153   0.91968   0.97849   0.00000  Uiso   1.00
H2167  H     0.76764   0.56761   0.71009   0.00000  Uiso   1.00
H2168  H     0.85288   0.95831   0.93494   0.00000  Uiso   1.00
H2169  H     0.81772   0.93625   0.97918   0.00000  Uiso   1.00
H2170  H     0.79682   0.89012   0.91654   0.00000  Uiso   1.00
H2171  H     0.83453   0.85746   0.94265   0.00000  Uiso   1.00
H2172  H     0.69488   0.66999   0.69788   0.00000  Uiso   1.00
H2173  H     0.69065   0.69000   0.75742   0.00000  Uiso   1.00
H2174  H     0.64359   0.68224   0.72195   0.00000  Uiso   1.00
H2175  H     0.70644   0.61144   0.75490   0.00000  Uiso   1.00
H2176  H     0.66156   0.59800   0.71985   0.00000  Uiso   1.00
H2177  H     0.62847   0.58032   0.97848   0.00000  Uiso   1.00
H2178  H     0.73024   0.93263   0.95665   0.00000  Uiso   1.00
H2179  H     0.64713   0.54169   0.93495   0.00000  Uiso   1.00
H2180  H     0.68228   0.56375   0.97918   0.00000  Uiso   1.00
H2181  H     0.70318   0.60988   0.91654   0.00000  Uiso   1.00
H2182  H     0.66547   0.64254   0.94265   0.00000  Uiso   1.00
H2183  H     0.85641   0.81776   0.72196   0.00000  Uiso   1.00
H2184  H     0.80935   0.81000   0.75742   0.00000  Uiso   1.00
H2185  H     0.80512   0.83000   0.69788   0.00000  Uiso   1.00
H2186  H     0.79356   0.88856   0.75490   0.00000  Uiso   1.00
H2187  H     0.83844   0.90200   0.71985   0.00000  Uiso   1.00
H2188  H     0.82088   0.72788   0.87789   0.00000  Uiso   1.00
N2189  N     0.50000   0.75000   0.95069   0.00000  Uiso   1.00
N2190  N     0.50000   0.75000   0.71598   0.00000  Uiso   1.00
N2191  N     0.75000   0.50000   0.95069   0.00000  Uiso   1.00
N2192  N     0.75000   0.50000   0.71598   0.00000  Uiso   1.00
O2193  O     0.54509   0.70491   0.87291   0.00000  Uiso   1.00
O2194  O     0.70492   0.54509   0.79375   0.00000  Uiso   1.00
O2195  O     0.70492   0.54509   0.87291   0.00000  Uiso   1.00
O2196  O     0.79509   0.95491   0.79375   0.00000  Uiso   1.00
O2197  O     0.70492   0.95491   0.79375   0.00000  Uiso   1.00
O2198  O     0.79509   0.54509   0.87291   0.00000  Uiso   1.00
O2199  O     0.79509   0.54509   0.79375   0.00000  Uiso   1.00
O2200  O     0.70492   0.95491   0.87291   0.00000  Uiso   1.00
O2201  O     0.95492   0.79509   0.79375   0.00000  Uiso   1.00
O2202  O     0.95492   0.79509   0.87291   0.00000  Uiso   1.00
O2203  O     0.54509   0.70491   0.79375   0.00000  Uiso   1.00
O2204  O     0.95492   0.70491   0.79375   0.00000  Uiso   1.00
O2205  O     0.54509   0.79509   0.87291   0.00000  Uiso   1.00
O2206  O     0.54509   0.79509   0.79375   0.00000  Uiso   1.00
O2207  O     0.95492   0.70491   0.87291   0.00000  Uiso   1.00
O2208  O     0.79509   0.95491   0.87291   0.00000  Uiso   1.00
loop_
_geom_bond_atom_site_label_1
_geom_bond_atom_site_label_2
_geom_bond_distance
_geom_bond_site_symmetry_2
_ccdc_geom_bond_type
C1     C30     1.478   .     S
C1     O179    1.298   .     A
C1     O169    1.295   .     A
C2     H88     1.080   .     S
C2     C739    1.413   .     S
C2     N165    1.367   .     S
C3     H99     1.081   .     S
C3     C1474   1.413   1_554 S
C3     N166    1.367   .     S
C4     N349    1.367   .     A
C4     H110    1.080   .     S
C4     C808    1.413   .     S
C5     H121    1.075   .     S
C5     N536    1.364   .     A
C5     C1480   1.414   1_554 S
C6     H132    1.081   .     S
C6     C743    1.414   .     S
C6     N167    1.366   .     S
C7     H143    1.075   .     S
C7     C1478   1.414   1_554 S
C7     N168    1.364   .     S
C8     H154    1.081   .     S
C8     N535    1.366   .     A
C8     C741    1.414   .     S
C9     C36     1.537   .     S
C9     C20     1.410   .     A
C9     C28     1.412   .     A
C10    C27     1.417   .     A
C10    C21     1.411   .     A
C10    C38     1.525   .     S
C11    C18     1.410   .     A
C11    C40     1.537   .     S
C11    C27     1.412   .     A
C12    C29     1.478   .     S
C12    O177    1.298   .     A
C12    O178    1.295   .     A
C13    C28     1.417   .     A
C13    C42     1.525   .     S
C13    C19     1.411   .     A
C14    C30     1.418   .     A
C14    C44     1.527   .     S
C14    C25     1.408   .     A
C15    C47     1.531   .     S
C15    C29     1.413   .     A
C15    C26     1.404   .     A
C16    C49     1.527   .     S
C16    C29     1.418   .     A
C16    C22     1.408   .     A
C17    C51     1.531   .     S
C17    C30     1.413   .     A
C17    C24     1.404   .     A
C18    C53     1.524   .     S
C18    C32     1.421   .     A
C19    C31     1.415   .     A
C19    C55     1.535   .     S
C20    C58     1.524   .     S
C20    C31     1.421   .     A
C21    C32     1.415   .     A
C21    C60     1.535   .     S
C22    C35     1.425   .     A
C22    C62     1.529   .     S
C23    O183    1.282   .     A
C23    C28     1.448   .     S
C23    O180    1.291   .     A
C24    C33     1.417   .     A
C24    C64     1.528   .     S
C25    C66     1.529   .     S
C25    C33     1.425   .     A
C26    C35     1.417   .     A
C26    C69     1.528   .     S
C27    C34     1.448   .     S
C31    C71     1.454   .     S
C32    C67     1.454   .     S
C33    C56     1.484   .     S
C34    O181    1.282   .     A
C34    O182    1.291   .     A
C35    C45     1.484   .     S
C36    H80     1.108   .     S
C36    H81     1.102   .     S
C36    C37     1.527   .     S
C37    H79     1.111   .     S
C37    H164    1.111   .     S
C37    H78     1.109   .     S
C38    H86     1.106   .     S
C38    C39     1.533   .     S
C38    H85     1.109   .     S
C39    H84     1.110   .     S
C39    H82     1.110   .     S
C39    H83     1.110   .     S
C40    H92     1.102   .     S
C40    C41     1.527   .     S
C40    H91     1.108   .     S
C41    H87     1.111   .     S
C41    H89     1.109   .     S
C41    H90     1.111   .     S
C42    H96     1.109   .     S
C42    H97     1.106   .     S
C42    C43     1.533   .     S
C43    H94     1.110   .     S
C43    H95     1.110   .     S
C43    H93     1.110   .     S
C44    H103    1.106   .     S
C44    C46     1.530   .     S
C44    H102    1.102   .     S
C45    O172    1.303   .     A
C45    O184    1.294   .     A
C46    H100    1.109   .     S
C46    H98     1.104   .     S
C46    H101    1.109   .     S
C47    C48     1.530   .     S
C47    H107    1.107   .     S
C47    H108    1.106   .     S
C48    H104    1.111   .     S
C48    H106    1.111   .     S
C48    H105    1.107   .     S
C49    H113    1.102   .     S
C49    C50     1.530   .     S
C49    H114    1.106   .     S
C50    H109    1.104   .     S
C50    H112    1.109   .     S
C50    H111    1.109   .     S
C51    C52     1.530   .     S
C51    H119    1.105   .     S
C51    H118    1.107   .     S
C52    H117    1.111   .     S
C52    H116    1.107   .     S
C52    H115    1.111   .     S
C53    C54     1.533   .     S
C53    H125    1.109   .     S
C53    H124    1.105   .     S
C54    H120    1.107   .     S
C54    H123    1.106   .     S
C54    H122    1.110   .     S
C55    H129    1.105   .     S
C55    H130    1.105   .     S
C55    C57     1.527   .     S
C56    O171    1.294   .     A
C56    O170    1.303   .     A
C57    H128    1.110   .     S
C57    H127    1.110   .     S
C57    H494    1.110   1_545 S
C58    H136    1.109   .     S
C58    H135    1.105   .     S
C58    C59     1.533   .     S
C59    H131    1.110   .     S
C59    H133    1.106   .     S
C59    H134    1.107   .     S
C60    C61     1.527   .     S
C60    H141    1.105   .     S
C60    H140    1.105   .     S
C61    H138    1.110   .     S
C61    H137    1.110   .     S
C61    H507    1.110   .     S
C62    C63     1.535   .     S
C62    H147    1.106   .     S
C62    H146    1.109   .     S
C63    H144    1.108   .     S
C63    H142    1.104   .     S
C63    H145    1.103   .     S
C64    H151    1.102   .     S
C64    H152    1.105   .     S
C64    C65     1.533   .     S
C65    H150    1.106   .     S
C65    H148    1.110   .     S
C65    H149    1.111   .     S
C66    C68     1.535   .     S
C66    H158    1.106   .     S
C66    H157    1.109   .     S
C67    O176    1.291   .     A
C67    O173    1.286   .     A
C68    H155    1.108   .     S
C68    H153    1.104   .     S
C68    H156    1.103   .     S
C69    H162    1.102   .     S
C69    H163    1.105   .     S
C69    C70     1.533   .     S
C70    H159    1.106   .     S
C70    H161    1.110   .     S
C70    H160    1.111   .     S
C71    O174    1.291   .     A
C71    O175    1.286   .     A
C72    H77     1.081   .     S
C72    N350    1.367   .     A
C72    C1476   1.413   1_554 S
Cu73   Cu74    2.675   .     S
Cu73   O367    1.964   1_455 S
Cu73   N165    2.010   .     S
Cu73   O362    1.973   1_455 S
Cu73   O169    1.973   .     S
Cu73   O181    1.964   .     S
Cu74   O361    1.973   1_455 S
Cu74   N166    2.010   .     S
Cu74   O364    1.964   1_455 S
Cu74   O179    1.973   .     S
Cu74   O182    1.964   .     S
Cu75   O552    1.973   1_545 S
Cu75   Cu76    2.675   .     S
Cu75   N167    2.010   .     S
Cu75   O544    1.964   1_545 S
Cu75   O171    1.973   .     S
Cu75   O174    1.964   .     S
Cu76   O541    1.964   1_545 S
Cu76   O540    1.973   1_545 S
Cu76   N168    2.010   .     S
Cu76   O170    1.973   .     S
Cu76   O175    1.964   .     S
H126   C425    1.110   .     S
H139   C429    1.110   1_545 S
N165   C188    1.367   1_455 A
N166   C256    1.367   1_455 A
N167   C376    1.366   1_545 A
N168   C373    1.364   1_545 A
O172   Cu444   1.973   .     S
O173   Cu444   1.964   .     S
O176   Cu443   1.964   .     S
O177   Cu258   1.973   .     S
O178   Cu257   1.973   .     S
O180   Cu258   1.964   .     S
O183   Cu257   1.964   .     S
O184   Cu443   1.973   .     S
C185   C214    1.478   .     S
C185   O363    1.298   .     A
C185   O353    1.295   .     A
C186   H272    1.080   .     S
C186   C923    1.413   .     S
C186   N349    1.367   .     S
C187   H283    1.081   .     S
C187   C1658   1.413   1_554 S
C187   N350    1.367   .     S
C188   N165    1.367   1_655 A
C188   H294    1.080   .     S
C188   C992    1.413   .     S
C189   H305    1.075   .     S
C189   N720    1.364   .     A
C189   C1664   1.414   1_554 S
C190   H316    1.081   .     S
C190   C927    1.414   .     S
C190   N351    1.366   .     S
C191   H327    1.075   .     S
C191   C1662   1.414   1_554 S
C191   N352    1.364   .     S
C192   H338    1.081   .     S
C192   N719    1.366   .     A
C192   C925    1.414   .     S
C193   C220    1.537   .     S
C193   C204    1.410   .     A
C193   C212    1.412   .     A
C194   C211    1.417   .     A
C194   C205    1.411   .     A
C194   C222    1.525   .     S
C195   C202    1.410   .     A
C195   C224    1.537   .     S
C195   C211    1.412   .     A
C196   C213    1.478   .     S
C196   O361    1.298   .     A
C196   O362    1.295   .     A
C197   C212    1.417   .     A
C197   C226    1.525   .     S
C197   C203    1.411   .     A
C198   C214    1.418   .     A
C198   C228    1.527   .     S
C198   C209    1.408   .     A
C199   C231    1.531   .     S
C199   C213    1.413   .     A
C199   C210    1.404   .     A
C200   C233    1.527   .     S
C200   C213    1.418   .     A
C200   C206    1.408   .     A
C201   C235    1.531   .     S
C201   C214    1.413   .     A
C201   C208    1.404   .     A
C202   C237    1.524   .     S
C202   C216    1.421   .     A
C203   C215    1.415   .     A
C203   C239    1.535   .     S
C204   C242    1.524   .     S
C204   C215    1.421   .     A
C205   C216    1.415   .     A
C205   C244    1.535   .     S
C206   C219    1.425   .     A
C206   C246    1.529   .     S
C207   O367    1.282   .     A
C207   C212    1.448   .     S
C207   O364    1.291   .     A
C208   C217    1.417   .     A
C208   C248    1.528   .     S
C209   C250    1.529   .     S
C209   C217    1.425   .     A
C210   C219    1.417   .     A
C210   C253    1.528   .     S
C211   C218    1.448   .     S
C215   C255    1.454   .     S
C216   C251    1.454   .     S
C217   C240    1.484   .     S
C218   O365    1.282   .     A
C218   O366    1.291   .     A
C219   C229    1.484   .     S
C220   H264    1.108   .     S
C220   H265    1.102   .     S
C220   C221    1.527   .     S
C221   H263    1.111   .     S
C221   H348    1.111   .     S
C221   H262    1.109   .     S
C222   H270    1.106   .     S
C222   C223    1.533   .     S
C222   H269    1.109   .     S
C223   H268    1.110   .     S
C223   H266    1.110   .     S
C223   H267    1.110   .     S
C224   H276    1.102   .     S
C224   C225    1.527   .     S
C224   H275    1.108   .     S
C225   H271    1.111   .     S
C225   H273    1.109   .     S
C225   H274    1.111   .     S
C226   H280    1.109   .     S
C226   H281    1.106   .     S
C226   C227    1.533   .     S
C227   H278    1.110   .     S
C227   H279    1.110   .     S
C227   H277    1.110   .     S
C228   H287    1.106   .     S
C228   C230    1.530   .     S
C228   H286    1.102   .     S
C229   O356    1.303   .     A
C229   O368    1.294   .     A
C230   H284    1.109   .     S
C230   H282    1.104   .     S
C230   H285    1.109   .     S
C231   C232    1.530   .     S
C231   H291    1.107   .     S
C231   H292    1.106   .     S
C232   H288    1.111   .     S
C232   H290    1.111   .     S
C232   H289    1.107   .     S
C233   H297    1.102   .     S
C233   C234    1.530   .     S
C233   H298    1.106   .     S
C234   H293    1.104   .     S
C234   H296    1.109   .     S
C234   H295    1.109   .     S
C235   C236    1.530   .     S
C235   H303    1.105   .     S
C235   H302    1.107   .     S
C236   H301    1.111   .     S
C236   H300    1.107   .     S
C236   H299    1.111   .     S
C237   C238    1.533   .     S
C237   H309    1.109   .     S
C237   H308    1.105   .     S
C238   H304    1.107   .     S
C238   H307    1.106   .     S
C238   H306    1.110   .     S
C239   H313    1.105   .     S
C239   H314    1.105   .     S
C239   C241    1.527   .     S
C240   O355    1.294   .     A
C240   O354    1.303   .     A
C241   H312    1.110   .     S
C241   H311    1.110   .     S
C241   H678    1.110   1_545 S
C242   H320    1.109   .     S
C242   H319    1.105   .     S
C242   C243    1.533   .     S
C243   H315    1.110   .     S
C243   H317    1.106   .     S
C243   H318    1.107   .     S
C244   C245    1.527   .     S
C244   H325    1.105   .     S
C244   H324    1.105   .     S
C245   H322    1.110   .     S
C245   H321    1.110   .     S
C245   H691    1.110   .     S
C246   C247    1.535   .     S
C246   H331    1.106   .     S
C246   H330    1.109   .     S
C247   H328    1.108   .     S
C247   H326    1.104   .     S
C247   H329    1.103   .     S
C248   H335    1.102   .     S
C248   H336    1.105   .     S
C248   C249    1.533   .     S
C249   H334    1.106   .     S
C249   H332    1.110   .     S
C249   H333    1.111   .     S
C250   C252    1.535   .     S
C250   H342    1.106   .     S
C250   H341    1.109   .     S
C251   O360    1.291   .     A
C251   O357    1.286   .     A
C252   H339    1.108   .     S
C252   H337    1.104   .     S
C252   H340    1.103   .     S
C253   H346    1.102   .     S
C253   H347    1.105   .     S
C253   C254    1.533   .     S
C254   H343    1.106   .     S
C254   H345    1.110   .     S
C254   H344    1.111   .     S
C255   O358    1.291   .     A
C255   O359    1.286   .     A
C256   H261    1.081   .     S
C256   N166    1.367   1_655 A
C256   C1660   1.413   1_554 S
Cu257  Cu258   2.675   .     S
Cu257  N349    2.010   .     S
Cu257  O353    1.973   .     S
Cu257  O365    1.964   .     S
Cu258  N350    2.010   .     S
Cu258  O363    1.973   .     S
Cu258  O366    1.964   .     S
Cu259  O736    1.973   1_545 S
Cu259  Cu260   2.675   .     S
Cu259  N351    2.010   .     S
Cu259  O728    1.964   1_545 S
Cu259  O355    1.973   .     S
Cu259  O358    1.964   .     S
Cu260  O725    1.964   1_545 S
Cu260  O724    1.973   1_545 S
Cu260  N352    2.010   .     S
Cu260  O354    1.973   .     S
Cu260  O359    1.964   .     S
H310   C609    1.110   .     S
H323   C613    1.110   1_545 S
N351   C560    1.366   1_545 A
N352   C557    1.364   1_545 A
O356   Cu628   1.973   .     S
O357   Cu628   1.964   .     S
O360   Cu627   1.964   .     S
O361   Cu74    1.973   1_655 S
O362   Cu73    1.973   1_655 S
O364   Cu74    1.964   1_655 S
O367   Cu73    1.964   1_655 S
O368   Cu627   1.973   .     S
C369   C398    1.478   .     S
C369   O547    1.298   .     A
C369   O537    1.295   .     A
C370   H456    1.080   .     S
C370   C1107   1.413   .     S
C370   N533    1.367   .     S
C371   H467    1.081   .     S
C371   C1842   1.413   1_554 S
C371   N534    1.367   .     S
C372   N717    1.367   .     A
C372   H478    1.080   .     S
C372   C1176   1.413   .     S
C373   H489    1.075   .     S
C373   N168    1.364   1_565 A
C373   C1848   1.414   1_554 S
C374   H500    1.081   .     S
C374   C1111   1.414   .     S
C374   N535    1.366   .     S
C375   H511    1.075   .     S
C375   C1846   1.414   1_554 S
C375   N536    1.364   .     S
C376   H522    1.081   .     S
C376   N167    1.366   1_565 A
C376   C1109   1.414   .     S
C377   C404    1.537   .     S
C377   C388    1.410   .     A
C377   C396    1.412   .     A
C378   C395    1.417   .     A
C378   C389    1.411   .     A
C378   C406    1.525   .     S
C379   C386    1.410   .     A
C379   C408    1.537   .     S
C379   C395    1.412   .     A
C380   C397    1.478   .     S
C380   O545    1.298   .     A
C380   O546    1.295   .     A
C381   C396    1.417   .     A
C381   C410    1.525   .     S
C381   C387    1.411   .     A
C382   C398    1.418   .     A
C382   C412    1.527   .     S
C382   C393    1.408   .     A
C383   C415    1.531   .     S
C383   C397    1.413   .     A
C383   C394    1.404   .     A
C384   C417    1.527   .     S
C384   C397    1.418   .     A
C384   C390    1.408   .     A
C385   C419    1.531   .     S
C385   C398    1.413   .     A
C385   C392    1.404   .     A
C386   C421    1.524   .     S
C386   C400    1.421   .     A
C387   C399    1.415   .     A
C387   C423    1.535   .     S
C388   C426    1.524   .     S
C388   C399    1.421   .     A
C389   C400    1.415   .     A
C389   C428    1.535   .     S
C390   C403    1.425   .     A
C390   C430    1.529   .     S
C391   O551    1.282   .     A
C391   C396    1.448   .     S
C391   O548    1.291   .     A
C392   C401    1.417   .     A
C392   C432    1.528   .     S
C393   C434    1.529   .     S
C393   C401    1.425   .     A
C394   C403    1.417   .     A
C394   C437    1.528   .     S
C395   C402    1.448   .     S
C399   C439    1.454   .     S
C400   C435    1.454   .     S
C401   C424    1.484   .     S
C402   O549    1.282   .     A
C402   O550    1.291   .     A
C403   C413    1.484   .     S
C404   H448    1.108   .     S
C404   H449    1.102   .     S
C404   C405    1.527   .     S
C405   H447    1.111   .     S
C405   H532    1.111   .     S
C405   H446    1.109   .     S
C406   H454    1.106   .     S
C406   C407    1.533   .     S
C406   H453    1.109   .     S
C407   H452    1.110   .     S
C407   H450    1.110   .     S
C407   H451    1.110   .     S
C408   H460    1.102   .     S
C408   C409    1.527   .     S
C408   H459    1.108   .     S
C409   H455    1.111   .     S
C409   H457    1.109   .     S
C409   H458    1.111   .     S
C410   H464    1.109   .     S
C410   H465    1.106   .     S
C410   C411    1.533   .     S
C411   H462    1.110   .     S
C411   H463    1.110   .     S
C411   H461    1.110   .     S
C412   H471    1.106   .     S
C412   C414    1.530   .     S
C412   H470    1.102   .     S
C413   O540    1.303   .     A
C413   O552    1.294   .     A
C414   H468    1.109   .     S
C414   H466    1.104   .     S
C414   H469    1.109   .     S
C415   C416    1.530   .     S
C415   H475    1.107   .     S
C415   H476    1.106   .     S
C416   H472    1.111   .     S
C416   H474    1.111   .     S
C416   H473    1.107   .     S
C417   H481    1.102   .     S
C417   C418    1.530   .     S
C417   H482    1.106   .     S
C418   H477    1.104   .     S
C418   H480    1.109   .     S
C418   H479    1.109   .     S
C419   C420    1.530   .     S
C419   H487    1.105   .     S
C419   H486    1.107   .     S
C420   H485    1.111   .     S
C420   H484    1.107   .     S
C420   H483    1.111   .     S
C421   C422    1.533   .     S
C421   H493    1.109   .     S
C421   H492    1.105   .     S
C422   H488    1.107   .     S
C422   H491    1.106   .     S
C422   H490    1.110   .     S
C423   H497    1.105   .     S
C423   H498    1.105   .     S
C423   C425    1.527   .     S
C424   O539    1.294   .     A
C424   O538    1.303   .     A
C425   H496    1.110   .     S
C425   H495    1.110   .     S
C426   H504    1.109   .     S
C426   H503    1.105   .     S
C426   C427    1.533   .     S
C427   H499    1.110   .     S
C427   H501    1.106   .     S
C427   H502    1.107   .     S
C428   C429    1.527   .     S
C428   H509    1.105   .     S
C428   H508    1.105   .     S
C429   H506    1.110   .     S
C429   H505    1.110   .     S
C429   H139    1.110   1_565 S
C430   C431    1.535   .     S
C430   H515    1.106   .     S
C430   H514    1.109   .     S
C431   H512    1.108   .     S
C431   H510    1.104   .     S
C431   H513    1.103   .     S
C432   H519    1.102   .     S
C432   H520    1.105   .     S
C432   C433    1.533   .     S
C433   H518    1.106   .     S
C433   H516    1.110   .     S
C433   H517    1.111   .     S
C434   C436    1.535   .     S
C434   H526    1.106   .     S
C434   H525    1.109   .     S
C435   O544    1.291   .     A
C435   O541    1.286   .     A
C436   H523    1.108   .     S
C436   H521    1.104   .     S
C436   H524    1.103   .     S
C437   H530    1.102   .     S
C437   H531    1.105   .     S
C437   C438    1.533   .     S
C438   H527    1.106   .     S
C438   H529    1.110   .     S
C438   H528    1.111   .     S
C439   O542    1.291   .     A
C439   O543    1.286   .     A
C440   H445    1.081   .     S
C440   N718    1.367   .     A
C440   C1844   1.413   1_554 S
Cu441  Cu442   2.675   .     S
Cu441  O735    1.964   1_455 S
Cu441  N533    2.010   .     S
Cu441  O730    1.973   1_455 S
Cu441  O537    1.973   .     S
Cu441  O549    1.964   .     S
Cu442  O729    1.973   1_455 S
Cu442  N534    2.010   .     S
Cu442  O732    1.964   1_455 S
Cu442  O547    1.973   .     S
Cu442  O550    1.964   .     S
Cu443  Cu444   2.675   .     S
Cu443  N535    2.010   .     S
Cu443  O539    1.973   .     S
Cu443  O542    1.964   .     S
Cu444  N536    2.010   .     S
Cu444  O538    1.973   .     S
Cu444  O543    1.964   .     S
H494   C57     1.110   1_565 S
N533   C556    1.367   1_455 A
N534   C624    1.367   1_455 A
O540   Cu76    1.973   1_565 S
O541   Cu76    1.964   1_565 S
O544   Cu75    1.964   1_565 S
O545   Cu626   1.973   .     S
O546   Cu625   1.973   .     S
O548   Cu626   1.964   .     S
O551   Cu625   1.964   .     S
O552   Cu75    1.973   1_565 S
C553   C582    1.478   .     S
C553   O731    1.298   .     A
C553   O721    1.295   .     A
C554   H640    1.080   .     S
C554   C1291   1.413   .     S
C554   N717    1.367   .     S
C555   H651    1.081   .     S
C555   C2026   1.413   1_554 S
C555   N718    1.367   .     S
C556   N533    1.367   1_655 A
C556   H662    1.080   .     S
C556   C1360   1.413   .     S
C557   H673    1.075   .     S
C557   N352    1.364   1_565 A
C557   C2032   1.414   1_554 S
C558   H684    1.081   .     S
C558   C1295   1.414   .     S
C558   N719    1.366   .     S
C559   H695    1.075   .     S
C559   C2030   1.414   1_554 S
C559   N720    1.364   .     S
C560   H706    1.081   .     S
C560   N351    1.366   1_565 A
C560   C1293   1.414   .     S
C561   C588    1.537   .     S
C561   C572    1.410   .     A
C561   C580    1.412   .     A
C562   C579    1.417   .     A
C562   C573    1.411   .     A
C562   C590    1.525   .     S
C563   C570    1.410   .     A
C563   C592    1.537   .     S
C563   C579    1.412   .     A
C564   C581    1.478   .     S
C564   O729    1.298   .     A
C564   O730    1.295   .     A
C565   C580    1.417   .     A
C565   C594    1.525   .     S
C565   C571    1.411   .     A
C566   C582    1.418   .     A
C566   C596    1.527   .     S
C566   C577    1.408   .     A
C567   C599    1.531   .     S
C567   C581    1.413   .     A
C567   C578    1.404   .     A
C568   C601    1.527   .     S
C568   C581    1.418   .     A
C568   C574    1.408   .     A
C569   C603    1.531   .     S
C569   C582    1.413   .     A
C569   C576    1.404   .     A
C570   C605    1.524   .     S
C570   C584    1.421   .     A
C571   C583    1.415   .     A
C571   C607    1.535   .     S
C572   C610    1.524   .     S
C572   C583    1.421   .     A
C573   C584    1.415   .     A
C573   C612    1.535   .     S
C574   C587    1.425   .     A
C574   C614    1.529   .     S
C575   O735    1.282   .     A
C575   C580    1.448   .     S
C575   O732    1.291   .     A
C576   C585    1.417   .     A
C576   C616    1.528   .     S
C577   C618    1.529   .     S
C577   C585    1.425   .     A
C578   C587    1.417   .     A
C578   C621    1.528   .     S
C579   C586    1.448   .     S
C583   C623    1.454   .     S
C584   C619    1.454   .     S
C585   C608    1.484   .     S
C586   O733    1.282   .     A
C586   O734    1.291   .     A
C587   C597    1.484   .     S
C588   H632    1.108   .     S
C588   H633    1.102   .     S
C588   C589    1.527   .     S
C589   H631    1.111   .     S
C589   H716    1.111   .     S
C589   H630    1.109   .     S
C590   H638    1.106   .     S
C590   C591    1.533   .     S
C590   H637    1.109   .     S
C591   H636    1.110   .     S
C591   H634    1.110   .     S
C591   H635    1.110   .     S
C592   H644    1.102   .     S
C592   C593    1.527   .     S
C592   H643    1.108   .     S
C593   H639    1.111   .     S
C593   H641    1.109   .     S
C593   H642    1.111   .     S
C594   H648    1.109   .     S
C594   H649    1.106   .     S
C594   C595    1.533   .     S
C595   H646    1.110   .     S
C595   H647    1.110   .     S
C595   H645    1.110   .     S
C596   H655    1.106   .     S
C596   C598    1.530   .     S
C596   H654    1.102   .     S
C597   O724    1.303   .     A
C597   O736    1.294   .     A
C598   H652    1.109   .     S
C598   H650    1.104   .     S
C598   H653    1.109   .     S
C599   C600    1.530   .     S
C599   H659    1.107   .     S
C599   H660    1.106   .     S
C600   H656    1.111   .     S
C600   H658    1.111   .     S
C600   H657    1.107   .     S
C601   H665    1.102   .     S
C601   C602    1.530   .     S
C601   H666    1.106   .     S
C602   H661    1.104   .     S
C602   H664    1.109   .     S
C602   H663    1.109   .     S
C603   C604    1.530   .     S
C603   H671    1.105   .     S
C603   H670    1.107   .     S
C604   H669    1.111   .     S
C604   H668    1.107   .     S
C604   H667    1.111   .     S
C605   C606    1.533   .     S
C605   H677    1.109   .     S
C605   H676    1.105   .     S
C606   H672    1.107   .     S
C606   H675    1.106   .     S
C606   H674    1.110   .     S
C607   H681    1.105   .     S
C607   H682    1.105   .     S
C607   C609    1.527   .     S
C608   O723    1.294   .     A
C608   O722    1.303   .     A
C609   H680    1.110   .     S
C609   H679    1.110   .     S
C610   H688    1.109   .     S
C610   H687    1.105   .     S
C610   C611    1.533   .     S
C611   H683    1.110   .     S
C611   H685    1.106   .     S
C611   H686    1.107   .     S
C612   C613    1.527   .     S
C612   H693    1.105   .     S
C612   H692    1.105   .     S
C613   H690    1.110   .     S
C613   H689    1.110   .     S
C613   H323    1.110   1_565 S
C614   C615    1.535   .     S
C614   H699    1.106   .     S
C614   H698    1.109   .     S
C615   H696    1.108   .     S
C615   H694    1.104   .     S
C615   H697    1.103   .     S
C616   H703    1.102   .     S
C616   H704    1.105   .     S
C616   C617    1.533   .     S
C617   H702    1.106   .     S
C617   H700    1.110   .     S
C617   H701    1.111   .     S
C618   C620    1.535   .     S
C618   H710    1.106   .     S
C618   H709    1.109   .     S
C619   O728    1.291   .     A
C619   O725    1.286   .     A
C620   H707    1.108   .     S
C620   H705    1.104   .     S
C620   H708    1.103   .     S
C621   H714    1.102   .     S
C621   H715    1.105   .     S
C621   C622    1.533   .     S
C622   H711    1.106   .     S
C622   H713    1.110   .     S
C622   H712    1.111   .     S
C623   O726    1.291   .     A
C623   O727    1.286   .     A
C624   H629    1.081   .     S
C624   N534    1.367   1_655 A
C624   C2028   1.413   1_554 S
Cu625  Cu626   2.675   .     S
Cu625  N717    2.010   .     S
Cu625  O721    1.973   .     S
Cu625  O733    1.964   .     S
Cu626  N718    2.010   .     S
Cu626  O731    1.973   .     S
Cu626  O734    1.964   .     S
Cu627  Cu628   2.675   .     S
Cu627  N719    2.010   .     S
Cu627  O723    1.973   .     S
Cu627  O726    1.964   .     S
Cu628  N720    2.010   .     S
Cu628  O722    1.973   .     S
Cu628  O727    1.964   .     S
H678   C241    1.110   1_565 S
O724   Cu260   1.973   1_565 S
O725   Cu260   1.964   1_565 S
O728   Cu259   1.964   1_565 S
O729   Cu442   1.973   1_655 S
O730   Cu441   1.973   1_655 S
O732   Cu442   1.964   1_655 S
O735   Cu441   1.964   1_655 S
O736   Cu259   1.973   1_565 S
C737   C766    1.478   .     S
C737   O915    1.298   .     A
C737   O905    1.295   .     A
C738   H824    1.080   .     S
C738   C1475   1.413   .     S
C738   N901    1.367   .     S
C739   H835    1.081   .     S
C739   N902    1.367   .     S
C740   N1085   1.367   .     A
C740   H846    1.080   .     S
C740   C1544   1.413   .     S
C741   H857    1.075   .     S
C741   N1272   1.364   .     A
C742   H868    1.081   .     S
C742   C1479   1.414   .     S
C742   N903    1.366   .     S
C743   H879    1.075   .     S
C743   N904    1.364   .     S
C744   H890    1.081   .     S
C744   N1271   1.366   .     A
C744   C1477   1.414   .     S
C745   C772    1.537   .     S
C745   C756    1.410   .     A
C745   C764    1.412   .     A
C746   C763    1.417   .     A
C746   C757    1.411   .     A
C746   C774    1.525   .     S
C747   C754    1.410   .     A
C747   C776    1.537   .     S
C747   C763    1.412   .     A
C748   C765    1.478   .     S
C748   O913    1.298   .     A
C748   O914    1.295   .     A
C749   C764    1.417   .     A
C749   C778    1.525   .     S
C749   C755    1.411   .     A
C750   C766    1.418   .     A
C750   C780    1.527   .     S
C750   C761    1.408   .     A
C751   C783    1.531   .     S
C751   C765    1.413   .     A
C751   C762    1.404   .     A
C752   C785    1.527   .     S
C752   C765    1.418   .     A
C752   C758    1.408   .     A
C753   C787    1.531   .     S
C753   C766    1.413   .     A
C753   C760    1.404   .     A
C754   C789    1.524   .     S
C754   C768    1.421   .     A
C755   C767    1.415   .     A
C755   C791    1.535   .     S
C756   C794    1.524   .     S
C756   C767    1.421   .     A
C757   C768    1.415   .     A
C757   C796    1.535   .     S
C758   C771    1.425   .     A
C758   C798    1.529   .     S
C759   O919    1.282   .     A
C759   C764    1.448   .     S
C759   O916    1.291   .     A
C760   C769    1.417   .     A
C760   C800    1.528   .     S
C761   C802    1.529   .     S
C761   C769    1.425   .     A
C762   C771    1.417   .     A
C762   C805    1.528   .     S
C763   C770    1.448   .     S
C767   C807    1.454   .     S
C768   C803    1.454   .     S
C769   C792    1.484   .     S
C770   O917    1.282   .     A
C770   O918    1.291   .     A
C771   C781    1.484   .     S
C772   H816    1.108   .     S
C772   H817    1.102   .     S
C772   C773    1.527   .     S
C773   H815    1.111   .     S
C773   H900    1.111   .     S
C773   H814    1.109   .     S
C774   H822    1.106   .     S
C774   C775    1.533   .     S
C774   H821    1.109   .     S
C775   H820    1.110   .     S
C775   H818    1.110   .     S
C775   H819    1.110   .     S
C776   H828    1.102   .     S
C776   C777    1.527   .     S
C776   H827    1.108   .     S
C777   H823    1.111   .     S
C777   H825    1.109   .     S
C777   H826    1.111   .     S
C778   H832    1.109   .     S
C778   H833    1.106   .     S
C778   C779    1.533   .     S
C779   H830    1.110   .     S
C779   H831    1.110   .     S
C779   H829    1.110   .     S
C780   H839    1.106   .     S
C780   C782    1.530   .     S
C780   H838    1.102   .     S
C781   O908    1.303   .     A
C781   O920    1.294   .     A
C782   H836    1.109   .     S
C782   H834    1.104   .     S
C782   H837    1.109   .     S
C783   C784    1.530   .     S
C783   H843    1.107   .     S
C783   H844    1.106   .     S
C784   H840    1.111   .     S
C784   H842    1.111   .     S
C784   H841    1.107   .     S
C785   H849    1.102   .     S
C785   C786    1.530   .     S
C785   H850    1.106   .     S
C786   H845    1.104   .     S
C786   H848    1.109   .     S
C786   H847    1.109   .     S
C787   C788    1.530   .     S
C787   H855    1.105   .     S
C787   H854    1.107   .     S
C788   H853    1.111   .     S
C788   H852    1.107   .     S
C788   H851    1.111   .     S
C789   C790    1.533   .     S
C789   H861    1.109   .     S
C789   H860    1.105   .     S
C790   H856    1.107   .     S
C790   H859    1.106   .     S
C790   H858    1.110   .     S
C791   H865    1.105   .     S
C791   H866    1.105   .     S
C791   C793    1.527   .     S
C792   O907    1.294   .     A
C792   O906    1.303   .     A
C793   H864    1.110   .     S
C793   H863    1.110   .     S
C793   H1230   1.110   1_545 S
C794   H872    1.109   .     S
C794   H871    1.105   .     S
C794   C795    1.533   .     S
C795   H867    1.110   .     S
C795   H869    1.106   .     S
C795   H870    1.107   .     S
C796   C797    1.527   .     S
C796   H877    1.105   .     S
C796   H876    1.105   .     S
C797   H874    1.110   .     S
C797   H873    1.110   .     S
C797   H1243   1.110   .     S
C798   C799    1.535   .     S
C798   H883    1.106   .     S
C798   H882    1.109   .     S
C799   H880    1.108   .     S
C799   H878    1.104   .     S
C799   H881    1.103   .     S
C800   H887    1.102   .     S
C800   H888    1.105   .     S
C800   C801    1.533   .     S
C801   H886    1.106   .     S
C801   H884    1.110   .     S
C801   H885    1.111   .     S
C802   C804    1.535   .     S
C802   H894    1.106   .     S
C802   H893    1.109   .     S
C803   O912    1.291   .     A
C803   O909    1.286   .     A
C804   H891    1.108   .     S
C804   H889    1.104   .     S
C804   H892    1.103   .     S
C805   H898    1.102   .     S
C805   H899    1.105   .     S
C805   C806    1.533   .     S
C806   H895    1.106   .     S
C806   H897    1.110   .     S
C806   H896    1.111   .     S
C807   O910    1.291   .     A
C807   O911    1.286   .     A
C808   H813    1.081   .     S
C808   N1086   1.367   .     A
Cu809  Cu810   2.675   .     S
Cu809  O1103   1.964   1_455 S
Cu809  N901    2.010   .     S
Cu809  O1098   1.973   1_455 S
Cu809  O905    1.973   .     S
Cu809  O917    1.964   .     S
Cu810  O1097   1.973   1_455 S
Cu810  N902    2.010   .     S
Cu810  O1100   1.964   1_455 S
Cu810  O915    1.973   .     S
Cu810  O918    1.964   .     S
Cu811  O1288   1.973   1_545 S
Cu811  Cu812   2.675   .     S
Cu811  N903    2.010   .     S
Cu811  O1280   1.964   1_545 S
Cu811  O907    1.973   .     S
Cu811  O910    1.964   .     S
Cu812  O1277   1.964   1_545 S
Cu812  O1276   1.973   1_545 S
Cu812  N904    2.010   .     S
Cu812  O906    1.973   .     S
Cu812  O911    1.964   .     S
H862   C1161   1.110   .     S
H875   C1165   1.110   1_545 S
N901   C924    1.367   1_455 A
N902   C992    1.367   1_455 A
N903   C1112   1.366   1_545 A
N904   C1109   1.364   1_545 A
O908   Cu1180  1.973   .     S
O909   Cu1180  1.964   .     S
O912   Cu1179  1.964   .     S
O913   Cu994   1.973   .     S
O914   Cu993   1.973   .     S
O916   Cu994   1.964   .     S
O919   Cu993   1.964   .     S
O920   Cu1179  1.973   .     S
C921   C950    1.478   .     S
C921   O1099   1.298   .     A
C921   O1089   1.295   .     A
C922   H1008   1.080   .     S
C922   C1659   1.413   .     S
C922   N1085   1.367   .     S
C923   H1019   1.081   .     S
C923   N1086   1.367   .     S
C924   N901    1.367   1_655 A
C924   H1030   1.080   .     S
C924   C1728   1.413   .     S
C925   H1041   1.075   .     S
C925   N1456   1.364   .     A
C926   H1052   1.081   .     S
C926   C1663   1.414   .     S
C926   N1087   1.366   .     S
C927   H1063   1.075   .     S
C927   N1088   1.364   .     S
C928   H1074   1.081   .     S
C928   N1455   1.366   .     A
C928   C1661   1.414   .     S
C929   C956    1.537   .     S
C929   C940    1.410   .     A
C929   C948    1.412   .     A
C930   C947    1.417   .     A
C930   C941    1.411   .     A
C930   C958    1.525   .     S
C931   C938    1.410   .     A
C931   C960    1.537   .     S
C931   C947    1.412   .     A
C932   C949    1.478   .     S
C932   O1097   1.298   .     A
C932   O1098   1.295   .     A
C933   C948    1.417   .     A
C933   C962    1.525   .     S
C933   C939    1.411   .     A
C934   C950    1.418   .     A
C934   C964    1.527   .     S
C934   C945    1.408   .     A
C935   C967    1.531   .     S
C935   C949    1.413   .     A
C935   C946    1.404   .     A
C936   C969    1.527   .     S
C936   C949    1.418   .     A
C936   C942    1.408   .     A
C937   C971    1.531   .     S
C937   C950    1.413   .     A
C937   C944    1.404   .     A
C938   C973    1.524   .     S
C938   C952    1.421   .     A
C939   C951    1.415   .     A
C939   C975    1.535   .     S
C940   C978    1.524   .     S
C940   C951    1.421   .     A
C941   C952    1.415   .     A
C941   C980    1.535   .     S
C942   C955    1.425   .     A
C942   C982    1.529   .     S
C943   O1103   1.282   .     A
C943   C948    1.448   .     S
C943   O1100   1.291   .     A
C944   C953    1.417   .     A
C944   C984    1.528   .     S
C945   C986    1.529   .     S
C945   C953    1.425   .     A
C946   C955    1.417   .     A
C946   C989    1.528   .     S
C947   C954    1.448   .     S
C951   C991    1.454   .     S
C952   C987    1.454   .     S
C953   C976    1.484   .     S
C954   O1101   1.282   .     A
C954   O1102   1.291   .     A
C955   C965    1.484   .     S
C956   H1000   1.108   .     S
C956   H1001   1.102   .     S
C956   C957    1.527   .     S
C957   H999    1.111   .     S
C957   H1084   1.111   .     S
C957   H998    1.109   .     S
C958   H1006   1.106   .     S
C958   C959    1.533   .     S
C958   H1005   1.109   .     S
C959   H1004   1.110   .     S
C959   H1002   1.110   .     S
C959   H1003   1.110   .     S
C960   H1012   1.102   .     S
C960   C961    1.527   .     S
C960   H1011   1.108   .     S
C961   H1007   1.111   .     S
C961   H1009   1.109   .     S
C961   H1010   1.111   .     S
C962   H1016   1.109   .     S
C962   H1017   1.106   .     S
C962   C963    1.533   .     S
C963   H1014   1.110   .     S
C963   H1015   1.110   .     S
C963   H1013   1.110   .     S
C964   H1023   1.106   .     S
C964   C966    1.530   .     S
C964   H1022   1.102   .     S
C965   O1092   1.303   .     A
C965   O1104   1.294   .     A
C966   H1020   1.109   .     S
C966   H1018   1.104   .     S
C966   H1021   1.109   .     S
C967   C968    1.530   .     S
C967   H1027   1.107   .     S
C967   H1028   1.106   .     S
C968   H1024   1.111   .     S
C968   H1026   1.111   .     S
C968   H1025   1.107   .     S
C969   H1033   1.102   .     S
C969   C970    1.530   .     S
C969   H1034   1.106   .     S
C970   H1029   1.104   .     S
C970   H1032   1.109   .     S
C970   H1031   1.109   .     S
C971   C972    1.530   .     S
C971   H1039   1.105   .     S
C971   H1038   1.107   .     S
C972   H1037   1.111   .     S
C972   H1036   1.107   .     S
C972   H1035   1.111   .     S
C973   C974    1.533   .     S
C973   H1045   1.109   .     S
C973   H1044   1.105   .     S
C974   H1040   1.107   .     S
C974   H1043   1.106   .     S
C974   H1042   1.110   .     S
C975   H1049   1.105   .     S
C975   H1050   1.105   .     S
C975   C977    1.527   .     S
C976   O1091   1.294   .     A
C976   O1090   1.303   .     A
C977   H1048   1.110   .     S
C977   H1047   1.110   .     S
C977   H1414   1.110   1_545 S
C978   H1056   1.109   .     S
C978   H1055   1.105   .     S
C978   C979    1.533   .     S
C979   H1051   1.110   .     S
C979   H1053   1.106   .     S
C979   H1054   1.107   .     S
C980   C981    1.527   .     S
C980   H1061   1.105   .     S
C980   H1060   1.105   .     S
C981   H1058   1.110   .     S
C981   H1057   1.110   .     S
C981   H1427   1.110   .     S
C982   C983    1.535   .     S
C982   H1067   1.106   .     S
C982   H1066   1.109   .     S
C983   H1064   1.108   .     S
C983   H1062   1.104   .     S
C983   H1065   1.103   .     S
C984   H1071   1.102   .     S
C984   H1072   1.105   .     S
C984   C985    1.533   .     S
C985   H1070   1.106   .     S
C985   H1068   1.110   .     S
C985   H1069   1.111   .     S
C986   C988    1.535   .     S
C986   H1078   1.106   .     S
C986   H1077   1.109   .     S
C987   O1096   1.291   .     A
C987   O1093   1.286   .     A
C988   H1075   1.108   .     S
C988   H1073   1.104   .     S
C988   H1076   1.103   .     S
C989   H1082   1.102   .     S
C989   H1083   1.105   .     S
C989   C990    1.533   .     S
C990   H1079   1.106   .     S
C990   H1081   1.110   .     S
C990   H1080   1.111   .     S
C991   O1094   1.291   .     A
C991   O1095   1.286   .     A
C992   H997    1.081   .     S
C992   N902    1.367   1_655 A
Cu993  Cu994   2.675   .     S
Cu993  N1085   2.010   .     S
Cu993  O1089   1.973   .     S
Cu993  O1101   1.964   .     S
Cu994  N1086   2.010   .     S
Cu994  O1099   1.973   .     S
Cu994  O1102   1.964   .     S
Cu995  O1472   1.973   1_545 S
Cu995  Cu996   2.675   .     S
Cu995  N1087   2.010   .     S
Cu995  O1464   1.964   1_545 S
Cu995  O1091   1.973   .     S
Cu995  O1094   1.964   .     S
Cu996  O1461   1.964   1_545 S
Cu996  O1460   1.973   1_545 S
Cu996  N1088   2.010   .     S
Cu996  O1090   1.973   .     S
Cu996  O1095   1.964   .     S
H1046  C1345   1.110   .     S
H1059  C1349   1.110   1_545 S
N1087  C1296   1.366   1_545 A
N1088  C1293   1.364   1_545 A
O1092  Cu1364  1.973   .     S
O1093  Cu1364  1.964   .     S
O1096  Cu1363  1.964   .     S
O1097  Cu810   1.973   1_655 S
O1098  Cu809   1.973   1_655 S
O1100  Cu810   1.964   1_655 S
O1103  Cu809   1.964   1_655 S
O1104  Cu1363  1.973   .     S
C1105  C1134   1.478   .     S
C1105  O1283   1.298   .     A
C1105  O1273   1.295   .     A
C1106  H1192   1.080   .     S
C1106  C1843   1.413   .     S
C1106  N1269   1.367   .     S
C1107  H1203   1.081   .     S
C1107  N1270   1.367   .     S
C1108  N1453   1.367   .     A
C1108  H1214   1.080   .     S
C1108  C1912   1.413   .     S
C1109  H1225   1.075   .     S
C1109  N904    1.364   1_565 A
C1110  H1236   1.081   .     S
C1110  C1847   1.414   .     S
C1110  N1271   1.366   .     S
C1111  H1247   1.075   .     S
C1111  N1272   1.364   .     S
C1112  H1258   1.081   .     S
C1112  N903    1.366   1_565 A
C1112  C1845   1.414   .     S
C1113  C1140   1.537   .     S
C1113  C1124   1.410   .     A
C1113  C1132   1.412   .     A
C1114  C1131   1.417   .     A
C1114  C1125   1.411   .     A
C1114  C1142   1.525   .     S
C1115  C1122   1.410   .     A
C1115  C1144   1.537   .     S
C1115  C1131   1.412   .     A
C1116  C1133   1.478   .     S
C1116  O1281   1.298   .     A
C1116  O1282   1.295   .     A
C1117  C1132   1.417   .     A
C1117  C1146   1.525   .     S
C1117  C1123   1.411   .     A
C1118  C1134   1.418   .     A
C1118  C1148   1.527   .     S
C1118  C1129   1.408   .     A
C1119  C1151   1.531   .     S
C1119  C1133   1.413   .     A
C1119  C1130   1.404   .     A
C1120  C1153   1.527   .     S
C1120  C1133   1.418   .     A
C1120  C1126   1.408   .     A
C1121  C1155   1.531   .     S
C1121  C1134   1.413   .     A
C1121  C1128   1.404   .     A
C1122  C1157   1.524   .     S
C1122  C1136   1.421   .     A
C1123  C1135   1.415   .     A
C1123  C1159   1.535   .     S
C1124  C1162   1.524   .     S
C1124  C1135   1.421   .     A
C1125  C1136   1.415   .     A
C1125  C1164   1.535   .     S
C1126  C1139   1.425   .     A
C1126  C1166   1.529   .     S
C1127  O1287   1.282   .     A
C1127  C1132   1.448   .     S
C1127  O1284   1.291   .     A
C1128  C1137   1.417   .     A
C1128  C1168   1.528   .     S
C1129  C1170   1.529   .     S
C1129  C1137   1.425   .     A
C1130  C1139   1.417   .     A
C1130  C1173   1.528   .     S
C1131  C1138   1.448   .     S
C1135  C1175   1.454   .     S
C1136  C1171   1.454   .     S
C1137  C1160   1.484   .     S
C1138  O1285   1.282   .     A
C1138  O1286   1.291   .     A
C1139  C1149   1.484   .     S
C1140  H1184   1.108   .     S
C1140  H1185   1.102   .     S
C1140  C1141   1.527   .     S
C1141  H1183   1.111   .     S
C1141  H1268   1.111   .     S
C1141  H1182   1.109   .     S
C1142  H1190   1.106   .     S
C1142  C1143   1.533   .     S
C1142  H1189   1.109   .     S
C1143  H1188   1.110   .     S
C1143  H1186   1.110   .     S
C1143  H1187   1.110   .     S
C1144  H1196   1.102   .     S
C1144  C1145   1.527   .     S
C1144  H1195   1.108   .     S
C1145  H1191   1.111   .     S
C1145  H1193   1.109   .     S
C1145  H1194   1.111   .     S
C1146  H1200   1.109   .     S
C1146  H1201   1.106   .     S
C1146  C1147   1.533   .     S
C1147  H1198   1.110   .     S
C1147  H1199   1.110   .     S
C1147  H1197   1.110   .     S
C1148  H1207   1.106   .     S
C1148  C1150   1.530   .     S
C1148  H1206   1.102   .     S
C1149  O1276   1.303   .     A
C1149  O1288   1.294   .     A
C1150  H1204   1.109   .     S
C1150  H1202   1.104   .     S
C1150  H1205   1.109   .     S
C1151  C1152   1.530   .     S
C1151  H1211   1.107   .     S
C1151  H1212   1.106   .     S
C1152  H1208   1.111   .     S
C1152  H1210   1.111   .     S
C1152  H1209   1.107   .     S
C1153  H1217   1.102   .     S
C1153  C1154   1.530   .     S
C1153  H1218   1.106   .     S
C1154  H1213   1.104   .     S
C1154  H1216   1.109   .     S
C1154  H1215   1.109   .     S
C1155  C1156   1.530   .     S
C1155  H1223   1.105   .     S
C1155  H1222   1.107   .     S
C1156  H1221   1.111   .     S
C1156  H1220   1.107   .     S
C1156  H1219   1.111   .     S
C1157  C1158   1.533   .     S
C1157  H1229   1.109   .     S
C1157  H1228   1.105   .     S
C1158  H1224   1.107   .     S
C1158  H1227   1.106   .     S
C1158  H1226   1.110   .     S
C1159  H1233   1.105   .     S
C1159  H1234   1.105   .     S
C1159  C1161   1.527   .     S
C1160  O1275   1.294   .     A
C1160  O1274   1.303   .     A
C1161  H1232   1.110   .     S
C1161  H1231   1.110   .     S
C1162  H1240   1.109   .     S
C1162  H1239   1.105   .     S
C1162  C1163   1.533   .     S
C1163  H1235   1.110   .     S
C1163  H1237   1.106   .     S
C1163  H1238   1.107   .     S
C1164  C1165   1.527   .     S
C1164  H1245   1.105   .     S
C1164  H1244   1.105   .     S
C1165  H1242   1.110   .     S
C1165  H1241   1.110   .     S
C1165  H875    1.110   1_565 S
C1166  C1167   1.535   .     S
C1166  H1251   1.106   .     S
C1166  H1250   1.109   .     S
C1167  H1248   1.108   .     S
C1167  H1246   1.104   .     S
C1167  H1249   1.103   .     S
C1168  H1255   1.102   .     S
C1168  H1256   1.105   .     S
C1168  C1169   1.533   .     S
C1169  H1254   1.106   .     S
C1169  H1252   1.110   .     S
C1169  H1253   1.111   .     S
C1170  C1172   1.535   .     S
C1170  H1262   1.106   .     S
C1170  H1261   1.109   .     S
C1171  O1280   1.291   .     A
C1171  O1277   1.286   .     A
C1172  H1259   1.108   .     S
C1172  H1257   1.104   .     S
C1172  H1260   1.103   .     S
C1173  H1266   1.102   .     S
C1173  H1267   1.105   .     S
C1173  C1174   1.533   .     S
C1174  H1263   1.106   .     S
C1174  H1265   1.110   .     S
C1174  H1264   1.111   .     S
C1175  O1278   1.291   .     A
C1175  O1279   1.286   .     A
C1176  H1181   1.081   .     S
C1176  N1454   1.367   .     A
Cu1177 Cu1178  2.675   .     S
Cu1177 O1471   1.964   1_455 S
Cu1177 N1269   2.010   .     S
Cu1177 O1466   1.973   1_455 S
Cu1177 O1273   1.973   .     S
Cu1177 O1285   1.964   .     S
Cu1178 O1465   1.973   1_455 S
Cu1178 N1270   2.010   .     S
Cu1178 O1468   1.964   1_455 S
Cu1178 O1283   1.973   .     S
Cu1178 O1286   1.964   .     S
Cu1179 Cu1180  2.675   .     S
Cu1179 N1271   2.010   .     S
Cu1179 O1275   1.973   .     S
Cu1179 O1278   1.964   .     S
Cu1180 N1272   2.010   .     S
Cu1180 O1274   1.973   .     S
Cu1180 O1279   1.964   .     S
H1230  C793    1.110   1_565 S
N1269  C1292   1.367   1_455 A
N1270  C1360   1.367   1_455 A
O1276  Cu812   1.973   1_565 S
O1277  Cu812   1.964   1_565 S
O1280  Cu811   1.964   1_565 S
O1281  Cu1362  1.973   .     S
O1282  Cu1361  1.973   .     S
O1284  Cu1362  1.964   .     S
O1287  Cu1361  1.964   .     S
O1288  Cu811   1.973   1_565 S
C1289  C1318   1.478   .     S
C1289  O1467   1.298   .     A
C1289  O1457   1.295   .     A
C1290  H1376   1.080   .     S
C1290  C2027   1.413   .     S
C1290  N1453   1.367   .     S
C1291  H1387   1.081   .     S
C1291  N1454   1.367   .     S
C1292  N1269   1.367   1_655 A
C1292  H1398   1.080   .     S
C1292  C2096   1.413   .     S
C1293  H1409   1.075   .     S
C1293  N1088   1.364   1_565 A
C1294  H1420   1.081   .     S
C1294  C2031   1.414   .     S
C1294  N1455   1.366   .     S
C1295  H1431   1.075   .     S
C1295  N1456   1.364   .     S
C1296  H1442   1.081   .     S
C1296  N1087   1.366   1_565 A
C1296  C2029   1.414   .     S
C1297  C1324   1.537   .     S
C1297  C1308   1.410   .     A
C1297  C1316   1.412   .     A
C1298  C1315   1.417   .     A
C1298  C1309   1.411   .     A
C1298  C1326   1.525   .     S
C1299  C1306   1.410   .     A
C1299  C1328   1.537   .     S
C1299  C1315   1.412   .     A
C1300  C1317   1.478   .     S
C1300  O1465   1.298   .     A
C1300  O1466   1.295   .     A
C1301  C1316   1.417   .     A
C1301  C1330   1.525   .     S
C1301  C1307   1.411   .     A
C1302  C1318   1.418   .     A
C1302  C1332   1.527   .     S
C1302  C1313   1.408   .     A
C1303  C1335   1.531   .     S
C1303  C1317   1.413   .     A
C1303  C1314   1.404   .     A
C1304  C1337   1.527   .     S
C1304  C1317   1.418   .     A
C1304  C1310   1.408   .     A
C1305  C1339   1.531   .     S
C1305  C1318   1.413   .     A
C1305  C1312   1.404   .     A
C1306  C1341   1.524   .     S
C1306  C1320   1.421   .     A
C1307  C1319   1.415   .     A
C1307  C1343   1.535   .     S
C1308  C1346   1.524   .     S
C1308  C1319   1.421   .     A
C1309  C1320   1.415   .     A
C1309  C1348   1.535   .     S
C1310  C1323   1.425   .     A
C1310  C1350   1.529   .     S
C1311  O1471   1.282   .     A
C1311  C1316   1.448   .     S
C1311  O1468   1.291   .     A
C1312  C1321   1.417   .     A
C1312  C1352   1.528   .     S
C1313  C1354   1.529   .     S
C1313  C1321   1.425   .     A
C1314  C1323   1.417   .     A
C1314  C1357   1.528   .     S
C1315  C1322   1.448   .     S
C1319  C1359   1.454   .     S
C1320  C1355   1.454   .     S
C1321  C1344   1.484   .     S
C1322  O1469   1.282   .     A
C1322  O1470   1.291   .     A
C1323  C1333   1.484   .     S
C1324  H1368   1.108   .     S
C1324  H1369   1.102   .     S
C1324  C1325   1.527   .     S
C1325  H1367   1.111   .     S
C1325  H1452   1.111   .     S
C1325  H1366   1.109   .     S
C1326  H1374   1.106   .     S
C1326  C1327   1.533   .     S
C1326  H1373   1.109   .     S
C1327  H1372   1.110   .     S
C1327  H1370   1.110   .     S
C1327  H1371   1.110   .     S
C1328  H1380   1.102   .     S
C1328  C1329   1.527   .     S
C1328  H1379   1.108   .     S
C1329  H1375   1.111   .     S
C1329  H1377   1.109   .     S
C1329  H1378   1.111   .     S
C1330  H1384   1.109   .     S
C1330  H1385   1.106   .     S
C1330  C1331   1.533   .     S
C1331  H1382   1.110   .     S
C1331  H1383   1.110   .     S
C1331  H1381   1.110   .     S
C1332  H1391   1.106   .     S
C1332  C1334   1.530   .     S
C1332  H1390   1.102   .     S
C1333  O1460   1.303   .     A
C1333  O1472   1.294   .     A
C1334  H1388   1.109   .     S
C1334  H1386   1.104   .     S
C1334  H1389   1.109   .     S
C1335  C1336   1.530   .     S
C1335  H1395   1.107   .     S
C1335  H1396   1.106   .     S
C1336  H1392   1.111   .     S
C1336  H1394   1.111   .     S
C1336  H1393   1.107   .     S
C1337  H1401   1.102   .     S
C1337  C1338   1.530   .     S
C1337  H1402   1.106   .     S
C1338  H1397   1.104   .     S
C1338  H1400   1.109   .     S
C1338  H1399   1.109   .     S
C1339  C1340   1.530   .     S
C1339  H1407   1.105   .     S
C1339  H1406   1.107   .     S
C1340  H1405   1.111   .     S
C1340  H1404   1.107   .     S
C1340  H1403   1.111   .     S
C1341  C1342   1.533   .     S
C1341  H1413   1.109   .     S
C1341  H1412   1.105   .     S
C1342  H1408   1.107   .     S
C1342  H1411   1.106   .     S
C1342  H1410   1.110   .     S
C1343  H1417   1.105   .     S
C1343  H1418   1.105   .     S
C1343  C1345   1.527   .     S
C1344  O1459   1.294   .     A
C1344  O1458   1.303   .     A
C1345  H1416   1.110   .     S
C1345  H1415   1.110   .     S
C1346  H1424   1.109   .     S
C1346  H1423   1.105   .     S
C1346  C1347   1.533   .     S
C1347  H1419   1.110   .     S
C1347  H1421   1.106   .     S
C1347  H1422   1.107   .     S
C1348  C1349   1.527   .     S
C1348  H1429   1.105   .     S
C1348  H1428   1.105   .     S
C1349  H1426   1.110   .     S
C1349  H1425   1.110   .     S
C1349  H1059   1.110   1_565 S
C1350  C1351   1.535   .     S
C1350  H1435   1.106   .     S
C1350  H1434   1.109   .     S
C1351  H1432   1.108   .     S
C1351  H1430   1.104   .     S
C1351  H1433   1.103   .     S
C1352  H1439   1.102   .     S
C1352  H1440   1.105   .     S
C1352  C1353   1.533   .     S
C1353  H1438   1.106   .     S
C1353  H1436   1.110   .     S
C1353  H1437   1.111   .     S
C1354  C1356   1.535   .     S
C1354  H1446   1.106   .     S
C1354  H1445   1.109   .     S
C1355  O1464   1.291   .     A
C1355  O1461   1.286   .     A
C1356  H1443   1.108   .     S
C1356  H1441   1.104   .     S
C1356  H1444   1.103   .     S
C1357  H1450   1.102   .     S
C1357  H1451   1.105   .     S
C1357  C1358   1.533   .     S
C1358  H1447   1.106   .     S
C1358  H1449   1.110   .     S
C1358  H1448   1.111   .     S
C1359  O1462   1.291   .     A
C1359  O1463   1.286   .     A
C1360  H1365   1.081   .     S
C1360  N1270   1.367   1_655 A
Cu1361 Cu1362  2.675   .     S
Cu1361 N1453   2.010   .     S
Cu1361 O1457   1.973   .     S
Cu1361 O1469   1.964   .     S
Cu1362 N1454   2.010   .     S
Cu1362 O1467   1.973   .     S
Cu1362 O1470   1.964   .     S
Cu1363 Cu1364  2.675   .     S
Cu1363 N1455   2.010   .     S
Cu1363 O1459   1.973   .     S
Cu1363 O1462   1.964   .     S
Cu1364 N1456   2.010   .     S
Cu1364 O1458   1.973   .     S
Cu1364 O1463   1.964   .     S
H1414  C977    1.110   1_565 S
O1460  Cu996   1.973   1_565 S
O1461  Cu996   1.964   1_565 S
O1464  Cu995   1.964   1_565 S
O1465  Cu1178  1.973   1_655 S
O1466  Cu1177  1.973   1_655 S
O1468  Cu1178  1.964   1_655 S
O1471  Cu1177  1.964   1_655 S
O1472  Cu995   1.973   1_565 S
C1473  C1502   1.478   .     S
C1473  O1651   1.298   .     A
C1473  O1641   1.295   .     A
C1474  H1560   1.080   .     S
C1474  C3      1.413   1_556 S
C1474  N1637   1.367   .     S
C1475  H1571   1.081   .     S
C1475  N1638   1.367   .     S
C1476  N1821   1.367   .     A
C1476  H1582   1.080   .     S
C1476  C72     1.413   1_556 S
C1477  H1593   1.075   .     S
C1477  N2008   1.364   .     A
C1478  H1604   1.081   .     S
C1478  C7      1.414   1_556 S
C1478  N1639   1.366   .     S
C1479  H1615   1.075   .     S
C1479  N1640   1.364   .     S
C1480  H1626   1.081   .     S
C1480  N2007   1.366   .     A
C1480  C5      1.414   1_556 S
C1481  C1508   1.537   .     S
C1481  C1492   1.410   .     A
C1481  C1500   1.412   .     A
C1482  C1499   1.417   .     A
C1482  C1493   1.411   .     A
C1482  C1510   1.525   .     S
C1483  C1490   1.410   .     A
C1483  C1512   1.537   .     S
C1483  C1499   1.412   .     A
C1484  C1501   1.478   .     S
C1484  O1649   1.298   .     A
C1484  O1650   1.295   .     A
C1485  C1500   1.417   .     A
C1485  C1514   1.525   .     S
C1485  C1491   1.411   .     A
C1486  C1502   1.418   .     A
C1486  C1516   1.527   .     S
C1486  C1497   1.408   .     A
C1487  C1519   1.531   .     S
C1487  C1501   1.413   .     A
C1487  C1498   1.404   .     A
C1488  C1521   1.527   .     S
C1488  C1501   1.418   .     A
C1488  C1494   1.408   .     A
C1489  C1523   1.531   .     S
C1489  C1502   1.413   .     A
C1489  C1496   1.404   .     A
C1490  C1525   1.524   .     S
C1490  C1504   1.421   .     A
C1491  C1503   1.415   .     A
C1491  C1527   1.535   .     S
C1492  C1530   1.524   .     S
C1492  C1503   1.421   .     A
C1493  C1504   1.415   .     A
C1493  C1532   1.535   .     S
C1494  C1507   1.425   .     A
C1494  C1534   1.529   .     S
C1495  O1655   1.282   .     A
C1495  C1500   1.448   .     S
C1495  O1652   1.291   .     A
C1496  C1505   1.417   .     A
C1496  C1536   1.528   .     S
C1497  C1538   1.529   .     S
C1497  C1505   1.425   .     A
C1498  C1507   1.417   .     A
C1498  C1541   1.528   .     S
C1499  C1506   1.448   .     S
C1503  C1543   1.454   .     S
C1504  C1539   1.454   .     S
C1505  C1528   1.484   .     S
C1506  O1653   1.282   .     A
C1506  O1654   1.291   .     A
C1507  C1517   1.484   .     S
C1508  H1552   1.108   .     S
C1508  H1553   1.102   .     S
C1508  C1509   1.527   .     S
C1509  H1551   1.111   .     S
C1509  H1636   1.111   .     S
C1509  H1550   1.109   .     S
C1510  H1558   1.106   .     S
C1510  C1511   1.533   .     S
C1510  H1557   1.109   .     S
C1511  H1556   1.110   .     S
C1511  H1554   1.110   .     S
C1511  H1555   1.110   .     S
C1512  H1564   1.102   .     S
C1512  C1513   1.527   .     S
C1512  H1563   1.108   .     S
C1513  H1559   1.111   .     S
C1513  H1561   1.109   .     S
C1513  H1562   1.111   .     S
C1514  H1568   1.109   .     S
C1514  H1569   1.106   .     S
C1514  C1515   1.533   .     S
C1515  H1566   1.110   .     S
C1515  H1567   1.110   .     S
C1515  H1565   1.110   .     S
C1516  H1575   1.106   .     S
C1516  C1518   1.530   .     S
C1516  H1574   1.102   .     S
C1517  O1644   1.303   .     A
C1517  O1656   1.294   .     A
C1518  H1572   1.109   .     S
C1518  H1570   1.104   .     S
C1518  H1573   1.109   .     S
C1519  C1520   1.530   .     S
C1519  H1579   1.107   .     S
C1519  H1580   1.106   .     S
C1520  H1576   1.111   .     S
C1520  H1578   1.111   .     S
C1520  H1577   1.107   .     S
C1521  H1585   1.102   .     S
C1521  C1522   1.530   .     S
C1521  H1586   1.106   .     S
C1522  H1581   1.104   .     S
C1522  H1584   1.109   .     S
C1522  H1583   1.109   .     S
C1523  C1524   1.530   .     S
C1523  H1591   1.105   .     S
C1523  H1590   1.107   .     S
C1524  H1589   1.111   .     S
C1524  H1588   1.107   .     S
C1524  H1587   1.111   .     S
C1525  C1526   1.533   .     S
C1525  H1597   1.109   .     S
C1525  H1596   1.105   .     S
C1526  H1592   1.107   .     S
C1526  H1595   1.106   .     S
C1526  H1594   1.110   .     S
C1527  H1601   1.105   .     S
C1527  H1602   1.105   .     S
C1527  C1529   1.527   .     S
C1528  O1643   1.294   .     A
C1528  O1642   1.303   .     A
C1529  H1600   1.110   .     S
C1529  H1599   1.110   .     S
C1529  H1966   1.110   1_545 S
C1530  H1608   1.109   .     S
C1530  H1607   1.105   .     S
C1530  C1531   1.533   .     S
C1531  H1603   1.110   .     S
C1531  H1605   1.106   .     S
C1531  H1606   1.107   .     S
C1532  C1533   1.527   .     S
C1532  H1613   1.105   .     S
C1532  H1612   1.105   .     S
C1533  H1610   1.110   .     S
C1533  H1609   1.110   .     S
C1533  H1979   1.110   .     S
C1534  C1535   1.535   .     S
C1534  H1619   1.106   .     S
C1534  H1618   1.109   .     S
C1535  H1616   1.108   .     S
C1535  H1614   1.104   .     S
C1535  H1617   1.103   .     S
C1536  H1623   1.102   .     S
C1536  H1624   1.105   .     S
C1536  C1537   1.533   .     S
C1537  H1622   1.106   .     S
C1537  H1620   1.110   .     S
C1537  H1621   1.111   .     S
C1538  C1540   1.535   .     S
C1538  H1630   1.106   .     S
C1538  H1629   1.109   .     S
C1539  O1648   1.291   .     A
C1539  O1645   1.286   .     A
C1540  H1627   1.108   .     S
C1540  H1625   1.104   .     S
C1540  H1628   1.103   .     S
C1541  H1634   1.102   .     S
C1541  H1635   1.105   .     S
C1541  C1542   1.533   .     S
C1542  H1631   1.106   .     S
C1542  H1633   1.110   .     S
C1542  H1632   1.111   .     S
C1543  O1646   1.291   .     A
C1543  O1647   1.286   .     A
C1544  H1549   1.081   .     S
C1544  N1822   1.367   .     A
Cu1545 Cu1546  2.675   .     S
Cu1545 O1839   1.964   1_455 S
Cu1545 N1637   2.010   .     S
Cu1545 O1834   1.973   1_455 S
Cu1545 O1641   1.973   .     S
Cu1545 O1653   1.964   .     S
Cu1546 O1833   1.973   1_455 S
Cu1546 N1638   2.010   .     S
Cu1546 O1836   1.964   1_455 S
Cu1546 O1651   1.973   .     S
Cu1546 O1654   1.964   .     S
Cu1547 O2024   1.973   1_545 S
Cu1547 Cu1548  2.675   .     S
Cu1547 N1639   2.010   .     S
Cu1547 O2016   1.964   1_545 S
Cu1547 O1643   1.973   .     S
Cu1547 O1646   1.964   .     S
Cu1548 O2013   1.964   1_545 S
Cu1548 O2012   1.973   1_545 S
Cu1548 N1640   2.010   .     S
Cu1548 O1642   1.973   .     S
Cu1548 O1647   1.964   .     S
H1598  C1897   1.110   .     S
H1611  C1901   1.110   1_545 S
N1637  C1660   1.367   1_455 A
N1638  C1728   1.367   1_455 A
N1639  C1848   1.366   1_545 A
N1640  C1845   1.364   1_545 A
O1644  Cu1916  1.973   .     S
O1645  Cu1916  1.964   .     S
O1648  Cu1915  1.964   .     S
O1649  Cu1730  1.973   .     S
O1650  Cu1729  1.973   .     S
O1652  Cu1730  1.964   .     S
O1655  Cu1729  1.964   .     S
O1656  Cu1915  1.973   .     S
C1657  C1686   1.478   .     S
C1657  O1835   1.298   .     A
C1657  O1825   1.295   .     A
C1658  H1744   1.080   .     S
C1658  C187    1.413   1_556 S
C1658  N1821   1.367   .     S
C1659  H1755   1.081   .     S
C1659  N1822   1.367   .     S
C1660  N1637   1.367   1_655 A
C1660  H1766   1.080   .     S
C1660  C256    1.413   1_556 S
C1661  H1777   1.075   .     S
C1661  N2192   1.364   .     A
C1662  H1788   1.081   .     S
C1662  C191    1.414   1_556 S
C1662  N1823   1.366   .     S
C1663  H1799   1.075   .     S
C1663  N1824   1.364   .     S
C1664  H1810   1.081   .     S
C1664  N2191   1.366   .     A
C1664  C189    1.414   1_556 S
C1665  C1692   1.537   .     S
C1665  C1676   1.410   .     A
C1665  C1684   1.412   .     A
C1666  C1683   1.417   .     A
C1666  C1677   1.411   .     A
C1666  C1694   1.525   .     S
C1667  C1674   1.410   .     A
C1667  C1696   1.537   .     S
C1667  C1683   1.412   .     A
C1668  C1685   1.478   .     S
C1668  O1833   1.298   .     A
C1668  O1834   1.295   .     A
C1669  C1684   1.417   .     A
C1669  C1698   1.525   .     S
C1669  C1675   1.411   .     A
C1670  C1686   1.418   .     A
C1670  C1700   1.527   .     S
C1670  C1681   1.408   .     A
C1671  C1703   1.531   .     S
C1671  C1685   1.413   .     A
C1671  C1682   1.404   .     A
C1672  C1705   1.527   .     S
C1672  C1685   1.418   .     A
C1672  C1678   1.408   .     A
C1673  C1707   1.531   .     S
C1673  C1686   1.413   .     A
C1673  C1680   1.404   .     A
C1674  C1709   1.524   .     S
C1674  C1688   1.421   .     A
C1675  C1687   1.415   .     A
C1675  C1711   1.535   .     S
C1676  C1714   1.524   .     S
C1676  C1687   1.421   .     A
C1677  C1688   1.415   .     A
C1677  C1716   1.535   .     S
C1678  C1691   1.425   .     A
C1678  C1718   1.529   .     S
C1679  O1839   1.282   .     A
C1679  C1684   1.448   .     S
C1679  O1836   1.291   .     A
C1680  C1689   1.417   .     A
C1680  C1720   1.528   .     S
C1681  C1722   1.529   .     S
C1681  C1689   1.425   .     A
C1682  C1691   1.417   .     A
C1682  C1725   1.528   .     S
C1683  C1690   1.448   .     S
C1687  C1727   1.454   .     S
C1688  C1723   1.454   .     S
C1689  C1712   1.484   .     S
C1690  O1837   1.282   .     A
C1690  O1838   1.291   .     A
C1691  C1701   1.484   .     S
C1692  H1736   1.108   .     S
C1692  H1737   1.102   .     S
C1692  C1693   1.527   .     S
C1693  H1735   1.111   .     S
C1693  H1820   1.111   .     S
C1693  H1734   1.109   .     S
C1694  H1742   1.106   .     S
C1694  C1695   1.533   .     S
C1694  H1741   1.109   .     S
C1695  H1740   1.110   .     S
C1695  H1738   1.110   .     S
C1695  H1739   1.110   .     S
C1696  H1748   1.102   .     S
C1696  C1697   1.527   .     S
C1696  H1747   1.108   .     S
C1697  H1743   1.111   .     S
C1697  H1745   1.109   .     S
C1697  H1746   1.111   .     S
C1698  H1752   1.109   .     S
C1698  H1753   1.106   .     S
C1698  C1699   1.533   .     S
C1699  H1750   1.110   .     S
C1699  H1751   1.110   .     S
C1699  H1749   1.110   .     S
C1700  H1759   1.106   .     S
C1700  C1702   1.530   .     S
C1700  H1758   1.102   .     S
C1701  O1828   1.303   .     A
C1701  O1840   1.294   .     A
C1702  H1756   1.109   .     S
C1702  H1754   1.104   .     S
C1702  H1757   1.109   .     S
C1703  C1704   1.530   .     S
C1703  H1763   1.107   .     S
C1703  H1764   1.106   .     S
C1704  H1760   1.111   .     S
C1704  H1762   1.111   .     S
C1704  H1761   1.107   .     S
C1705  H1769   1.102   .     S
C1705  C1706   1.530   .     S
C1705  H1770   1.106   .     S
C1706  H1765   1.104   .     S
C1706  H1768   1.109   .     S
C1706  H1767   1.109   .     S
C1707  C1708   1.530   .     S
C1707  H1775   1.105   .     S
C1707  H1774   1.107   .     S
C1708  H1773   1.111   .     S
C1708  H1772   1.107   .     S
C1708  H1771   1.111   .     S
C1709  C1710   1.533   .     S
C1709  H1781   1.109   .     S
C1709  H1780   1.105   .     S
C1710  H1776   1.107   .     S
C1710  H1779   1.106   .     S
C1710  H1778   1.110   .     S
C1711  H1785   1.105   .     S
C1711  H1786   1.105   .     S
C1711  C1713   1.527   .     S
C1712  O1827   1.294   .     A
C1712  O1826   1.303   .     A
C1713  H1784   1.110   .     S
C1713  H1783   1.110   .     S
C1713  H2150   1.110   1_545 S
C1714  H1792   1.109   .     S
C1714  H1791   1.105   .     S
C1714  C1715   1.533   .     S
C1715  H1787   1.110   .     S
C1715  H1789   1.106   .     S
C1715  H1790   1.107   .     S
C1716  C1717   1.527   .     S
C1716  H1797   1.105   .     S
C1716  H1796   1.105   .     S
C1717  H1794   1.110   .     S
C1717  H1793   1.110   .     S
C1717  H2163   1.110   .     S
C1718  C1719   1.535   .     S
C1718  H1803   1.106   .     S
C1718  H1802   1.109   .     S
C1719  H1800   1.108   .     S
C1719  H1798   1.104   .     S
C1719  H1801   1.103   .     S
C1720  H1807   1.102   .     S
C1720  H1808   1.105   .     S
C1720  C1721   1.533   .     S
C1721  H1806   1.106   .     S
C1721  H1804   1.110   .     S
C1721  H1805   1.111   .     S
C1722  C1724   1.535   .     S
C1722  H1814   1.106   .     S
C1722  H1813   1.109   .     S
C1723  O1832   1.291   .     A
C1723  O1829   1.286   .     A
C1724  H1811   1.108   .     S
C1724  H1809   1.104   .     S
C1724  H1812   1.103   .     S
C1725  H1818   1.102   .     S
C1725  H1819   1.105   .     S
C1725  C1726   1.533   .     S
C1726  H1815   1.106   .     S
C1726  H1817   1.110   .     S
C1726  H1816   1.111   .     S
C1727  O1830   1.291   .     A
C1727  O1831   1.286   .     A
C1728  H1733   1.081   .     S
C1728  N1638   1.367   1_655 A
Cu1729 Cu1730  2.675   .     S
Cu1729 N1821   2.010   .     S
Cu1729 O1825   1.973   .     S
Cu1729 O1837   1.964   .     S
Cu1730 N1822   2.010   .     S
Cu1730 O1835   1.973   .     S
Cu1730 O1838   1.964   .     S
Cu1731 O2208   1.973   1_545 S
Cu1731 Cu1732  2.675   .     S
Cu1731 N1823   2.010   .     S
Cu1731 O2200   1.964   1_545 S
Cu1731 O1827   1.973   .     S
Cu1731 O1830   1.964   .     S
Cu1732 O2197   1.964   1_545 S
Cu1732 O2196   1.973   1_545 S
Cu1732 N1824   2.010   .     S
Cu1732 O1826   1.973   .     S
Cu1732 O1831   1.964   .     S
H1782  C2081   1.110   .     S
H1795  C2085   1.110   1_545 S
N1823  C2032   1.366   1_545 A
N1824  C2029   1.364   1_545 A
O1828  Cu2100  1.973   .     S
O1829  Cu2100  1.964   .     S
O1832  Cu2099  1.964   .     S
O1833  Cu1546  1.973   1_655 S
O1834  Cu1545  1.973   1_655 S
O1836  Cu1546  1.964   1_655 S
O1839  Cu1545  1.964   1_655 S
O1840  Cu2099  1.973   .     S
C1841  C1870   1.478   .     S
C1841  O2019   1.298   .     A
C1841  O2009   1.295   .     A
C1842  H1928   1.080   .     S
C1842  C371    1.413   1_556 S
C1842  N2005   1.367   .     S
C1843  H1939   1.081   .     S
C1843  N2006   1.367   .     S
C1844  N2189   1.367   .     A
C1844  H1950   1.080   .     S
C1844  C440    1.413   1_556 S
C1845  H1961   1.075   .     S
C1845  N1640   1.364   1_565 A
C1846  H1972   1.081   .     S
C1846  C375    1.414   1_556 S
C1846  N2007   1.366   .     S
C1847  H1983   1.075   .     S
C1847  N2008   1.364   .     S
C1848  H1994   1.081   .     S
C1848  N1639   1.366   1_565 A
C1848  C373    1.414   1_556 S
C1849  C1876   1.537   .     S
C1849  C1860   1.410   .     A
C1849  C1868   1.412   .     A
C1850  C1867   1.417   .     A
C1850  C1861   1.411   .     A
C1850  C1878   1.525   .     S
C1851  C1858   1.410   .     A
C1851  C1880   1.537   .     S
C1851  C1867   1.412   .     A
C1852  C1869   1.478   .     S
C1852  O2017   1.298   .     A
C1852  O2018   1.295   .     A
C1853  C1868   1.417   .     A
C1853  C1882   1.525   .     S
C1853  C1859   1.411   .     A
C1854  C1870   1.418   .     A
C1854  C1884   1.527   .     S
C1854  C1865   1.408   .     A
C1855  C1887   1.531   .     S
C1855  C1869   1.413   .     A
C1855  C1866   1.404   .     A
C1856  C1889   1.527   .     S
C1856  C1869   1.418   .     A
C1856  C1862   1.408   .     A
C1857  C1891   1.531   .     S
C1857  C1870   1.413   .     A
C1857  C1864   1.404   .     A
C1858  C1893   1.524   .     S
C1858  C1872   1.421   .     A
C1859  C1871   1.415   .     A
C1859  C1895   1.535   .     S
C1860  C1898   1.524   .     S
C1860  C1871   1.421   .     A
C1861  C1872   1.415   .     A
C1861  C1900   1.535   .     S
C1862  C1875   1.425   .     A
C1862  C1902   1.529   .     S
C1863  O2023   1.282   .     A
C1863  C1868   1.448   .     S
C1863  O2020   1.291   .     A
C1864  C1873   1.417   .     A
C1864  C1904   1.528   .     S
C1865  C1906   1.529   .     S
C1865  C1873   1.425   .     A
C1866  C1875   1.417   .     A
C1866  C1909   1.528   .     S
C1867  C1874   1.448   .     S
C1871  C1911   1.454   .     S
C1872  C1907   1.454   .     S
C1873  C1896   1.484   .     S
C1874  O2021   1.282   .     A
C1874  O2022   1.291   .     A
C1875  C1885   1.484   .     S
C1876  H1920   1.108   .     S
C1876  H1921   1.102   .     S
C1876  C1877   1.527   .     S
C1877  H1919   1.111   .     S
C1877  H2004   1.111   .     S
C1877  H1918   1.109   .     S
C1878  H1926   1.106   .     S
C1878  C1879   1.533   .     S
C1878  H1925   1.109   .     S
C1879  H1924   1.110   .     S
C1879  H1922   1.110   .     S
C1879  H1923   1.110   .     S
C1880  H1932   1.102   .     S
C1880  C1881   1.527   .     S
C1880  H1931   1.108   .     S
C1881  H1927   1.111   .     S
C1881  H1929   1.109   .     S
C1881  H1930   1.111   .     S
C1882  H1936   1.109   .     S
C1882  H1937   1.106   .     S
C1882  C1883   1.533   .     S
C1883  H1934   1.110   .     S
C1883  H1935   1.110   .     S
C1883  H1933   1.110   .     S
C1884  H1943   1.106   .     S
C1884  C1886   1.530   .     S
C1884  H1942   1.102   .     S
C1885  O2012   1.303   .     A
C1885  O2024   1.294   .     A
C1886  H1940   1.109   .     S
C1886  H1938   1.104   .     S
C1886  H1941   1.109   .     S
C1887  C1888   1.530   .     S
C1887  H1947   1.107   .     S
C1887  H1948   1.106   .     S
C1888  H1944   1.111   .     S
C1888  H1946   1.111   .     S
C1888  H1945   1.107   .     S
C1889  H1953   1.102   .     S
C1889  C1890   1.530   .     S
C1889  H1954   1.106   .     S
C1890  H1949   1.104   .     S
C1890  H1952   1.109   .     S
C1890  H1951   1.109   .     S
C1891  C1892   1.530   .     S
C1891  H1959   1.105   .     S
C1891  H1958   1.107   .     S
C1892  H1957   1.111   .     S
C1892  H1956   1.107   .     S
C1892  H1955   1.111   .     S
C1893  C1894   1.533   .     S
C1893  H1965   1.109   .     S
C1893  H1964   1.105   .     S
C1894  H1960   1.107   .     S
C1894  H1963   1.106   .     S
C1894  H1962   1.110   .     S
C1895  H1969   1.105   .     S
C1895  H1970   1.105   .     S
C1895  C1897   1.527   .     S
C1896  O2011   1.294   .     A
C1896  O2010   1.303   .     A
C1897  H1968   1.110   .     S
C1897  H1967   1.110   .     S
C1898  H1976   1.109   .     S
C1898  H1975   1.105   .     S
C1898  C1899   1.533   .     S
C1899  H1971   1.110   .     S
C1899  H1973   1.106   .     S
C1899  H1974   1.107   .     S
C1900  C1901   1.527   .     S
C1900  H1981   1.105   .     S
C1900  H1980   1.105   .     S
C1901  H1978   1.110   .     S
C1901  H1977   1.110   .     S
C1901  H1611   1.110   1_565 S
C1902  C1903   1.535   .     S
C1902  H1987   1.106   .     S
C1902  H1986   1.109   .     S
C1903  H1984   1.108   .     S
C1903  H1982   1.104   .     S
C1903  H1985   1.103   .     S
C1904  H1991   1.102   .     S
C1904  H1992   1.105   .     S
C1904  C1905   1.533   .     S
C1905  H1990   1.106   .     S
C1905  H1988   1.110   .     S
C1905  H1989   1.111   .     S
C1906  C1908   1.535   .     S
C1906  H1998   1.106   .     S
C1906  H1997   1.109   .     S
C1907  O2016   1.291   .     A
C1907  O2013   1.286   .     A
C1908  H1995   1.108   .     S
C1908  H1993   1.104   .     S
C1908  H1996   1.103   .     S
C1909  H2002   1.102   .     S
C1909  H2003   1.105   .     S
C1909  C1910   1.533   .     S
C1910  H1999   1.106   .     S
C1910  H2001   1.110   .     S
C1910  H2000   1.111   .     S
C1911  O2014   1.291   .     A
C1911  O2015   1.286   .     A
C1912  H1917   1.081   .     S
C1912  N2190   1.367   .     A
Cu1913 Cu1914  2.675   .     S
Cu1913 O2207   1.964   1_455 S
Cu1913 N2005   2.010   .     S
Cu1913 O2202   1.973   1_455 S
Cu1913 O2009   1.973   .     S
Cu1913 O2021   1.964   .     S
Cu1914 O2201   1.973   1_455 S
Cu1914 N2006   2.010   .     S
Cu1914 O2204   1.964   1_455 S
Cu1914 O2019   1.973   .     S
Cu1914 O2022   1.964   .     S
Cu1915 Cu1916  2.675   .     S
Cu1915 N2007   2.010   .     S
Cu1915 O2011   1.973   .     S
Cu1915 O2014   1.964   .     S
Cu1916 N2008   2.010   .     S
Cu1916 O2010   1.973   .     S
Cu1916 O2015   1.964   .     S
H1966  C1529   1.110   1_565 S
N2005  C2028   1.367   1_455 A
N2006  C2096   1.367   1_455 A
O2012  Cu1548  1.973   1_565 S
O2013  Cu1548  1.964   1_565 S
O2016  Cu1547  1.964   1_565 S
O2017  Cu2098  1.973   .     S
O2018  Cu2097  1.973   .     S
O2020  Cu2098  1.964   .     S
O2023  Cu2097  1.964   .     S
O2024  Cu1547  1.973   1_565 S
C2025  C2054   1.478   .     S
C2025  O2203   1.298   .     A
C2025  O2193   1.295   .     A
C2026  H2112   1.080   .     S
C2026  C555    1.413   1_556 S
C2026  N2189   1.367   .     S
C2027  H2123   1.081   .     S
C2027  N2190   1.367   .     S
C2028  N2005   1.367   1_655 A
C2028  H2134   1.080   .     S
C2028  C624    1.413   1_556 S
C2029  H2145   1.075   .     S
C2029  N1824   1.364   1_565 A
C2030  H2156   1.081   .     S
C2030  C559    1.414   1_556 S
C2030  N2191   1.366   .     S
C2031  H2167   1.075   .     S
C2031  N2192   1.364   .     S
C2032  H2178   1.081   .     S
C2032  N1823   1.366   1_565 A
C2032  C557    1.414   1_556 S
C2033  C2060   1.537   .     S
C2033  C2044   1.410   .     A
C2033  C2052   1.412   .     A
C2034  C2051   1.417   .     A
C2034  C2045   1.411   .     A
C2034  C2062   1.525   .     S
C2035  C2042   1.410   .     A
C2035  C2064   1.537   .     S
C2035  C2051   1.412   .     A
C2036  C2053   1.478   .     S
C2036  O2201   1.298   .     A
C2036  O2202   1.295   .     A
C2037  C2052   1.417   .     A
C2037  C2066   1.525   .     S
C2037  C2043   1.411   .     A
C2038  C2054   1.418   .     A
C2038  C2068   1.527   .     S
C2038  C2049   1.408   .     A
C2039  C2071   1.531   .     S
C2039  C2053   1.413   .     A
C2039  C2050   1.404   .     A
C2040  C2073   1.527   .     S
C2040  C2053   1.418   .     A
C2040  C2046   1.408   .     A
C2041  C2075   1.531   .     S
C2041  C2054   1.413   .     A
C2041  C2048   1.404   .     A
C2042  C2077   1.524   .     S
C2042  C2056   1.421   .     A
C2043  C2055   1.415   .     A
C2043  C2079   1.535   .     S
C2044  C2082   1.524   .     S
C2044  C2055   1.421   .     A
C2045  C2056   1.415   .     A
C2045  C2084   1.535   .     S
C2046  C2059   1.425   .     A
C2046  C2086   1.529   .     S
C2047  O2207   1.282   .     A
C2047  C2052   1.448   .     S
C2047  O2204   1.291   .     A
C2048  C2057   1.417   .     A
C2048  C2088   1.528   .     S
C2049  C2090   1.529   .     S
C2049  C2057   1.425   .     A
C2050  C2059   1.417   .     A
C2050  C2093   1.528   .     S
C2051  C2058   1.448   .     S
C2055  C2095   1.454   .     S
C2056  C2091   1.454   .     S
C2057  C2080   1.484   .     S
C2058  O2205   1.282   .     A
C2058  O2206   1.291   .     A
C2059  C2069   1.484   .     S
C2060  H2104   1.108   .     S
C2060  H2105   1.102   .     S
C2060  C2061   1.527   .     S
C2061  H2103   1.111   .     S
C2061  H2188   1.111   .     S
C2061  H2102   1.109   .     S
C2062  H2110   1.106   .     S
C2062  C2063   1.533   .     S
C2062  H2109   1.109   .     S
C2063  H2108   1.110   .     S
C2063  H2106   1.110   .     S
C2063  H2107   1.110   .     S
C2064  H2116   1.102   .     S
C2064  C2065   1.527   .     S
C2064  H2115   1.108   .     S
C2065  H2111   1.111   .     S
C2065  H2113   1.109   .     S
C2065  H2114   1.111   .     S
C2066  H2120   1.109   .     S
C2066  H2121   1.106   .     S
C2066  C2067   1.533   .     S
C2067  H2118   1.110   .     S
C2067  H2119   1.110   .     S
C2067  H2117   1.110   .     S
C2068  H2127   1.106   .     S
C2068  C2070   1.530   .     S
C2068  H2126   1.102   .     S
C2069  O2196   1.303   .     A
C2069  O2208   1.294   .     A
C2070  H2124   1.109   .     S
C2070  H2122   1.104   .     S
C2070  H2125   1.109   .     S
C2071  C2072   1.530   .     S
C2071  H2131   1.107   .     S
C2071  H2132   1.106   .     S
C2072  H2128   1.111   .     S
C2072  H2130   1.111   .     S
C2072  H2129   1.107   .     S
C2073  H2137   1.102   .     S
C2073  C2074   1.530   .     S
C2073  H2138   1.106   .     S
C2074  H2133   1.104   .     S
C2074  H2136   1.109   .     S
C2074  H2135   1.109   .     S
C2075  C2076   1.530   .     S
C2075  H2143   1.105   .     S
C2075  H2142   1.107   .     S
C2076  H2141   1.111   .     S
C2076  H2140   1.107   .     S
C2076  H2139   1.111   .     S
C2077  C2078   1.533   .     S
C2077  H2149   1.109   .     S
C2077  H2148   1.105   .     S
C2078  H2144   1.107   .     S
C2078  H2147   1.106   .     S
C2078  H2146   1.110   .     S
C2079  H2153   1.105   .     S
C2079  H2154   1.105   .     S
C2079  C2081   1.527   .     S
C2080  O2195   1.294   .     A
C2080  O2194   1.303   .     A
C2081  H2152   1.110   .     S
C2081  H2151   1.110   .     S
C2082  H2160   1.109   .     S
C2082  H2159   1.105   .     S
C2082  C2083   1.533   .     S
C2083  H2155   1.110   .     S
C2083  H2157   1.106   .     S
C2083  H2158   1.107   .     S
C2084  C2085   1.527   .     S
C2084  H2165   1.105   .     S
C2084  H2164   1.105   .     S
C2085  H2162   1.110   .     S
C2085  H2161   1.110   .     S
C2085  H1795   1.110   1_565 S
C2086  C2087   1.535   .     S
C2086  H2171   1.106   .     S
C2086  H2170   1.109   .     S
C2087  H2168   1.108   .     S
C2087  H2166   1.104   .     S
C2087  H2169   1.103   .     S
C2088  H2175   1.102   .     S
C2088  H2176   1.105   .     S
C2088  C2089   1.533   .     S
C2089  H2174   1.106   .     S
C2089  H2172   1.110   .     S
C2089  H2173   1.111   .     S
C2090  C2092   1.535   .     S
C2090  H2182   1.106   .     S
C2090  H2181   1.109   .     S
C2091  O2200   1.291   .     A
C2091  O2197   1.286   .     A
C2092  H2179   1.108   .     S
C2092  H2177   1.104   .     S
C2092  H2180   1.103   .     S
C2093  H2186   1.102   .     S
C2093  H2187   1.105   .     S
C2093  C2094   1.533   .     S
C2094  H2183   1.106   .     S
C2094  H2185   1.110   .     S
C2094  H2184   1.111   .     S
C2095  O2198   1.291   .     A
C2095  O2199   1.286   .     A
C2096  H2101   1.081   .     S
C2096  N2006   1.367   1_655 A
Cu2097 Cu2098  2.675   .     S
Cu2097 N2189   2.010   .     S
Cu2097 O2193   1.973   .     S
Cu2097 O2205   1.964   .     S
Cu2098 N2190   2.010   .     S
Cu2098 O2203   1.973   .     S
Cu2098 O2206   1.964   .     S
Cu2099 Cu2100  2.675   .     S
Cu2099 N2191   2.010   .     S
Cu2099 O2195   1.973   .     S
Cu2099 O2198   1.964   .     S
Cu2100 N2192   2.010   .     S
Cu2100 O2194   1.973   .     S
Cu2100 O2199   1.964   .     S
H2150  C1713   1.110   1_565 S
O2196  Cu1732  1.973   1_565 S
O2197  Cu1732  1.964   1_565 S
O2200  Cu1731  1.964   1_565 S
O2201  Cu1914  1.973   1_655 S
O2202  Cu1913  1.973   1_655 S
O2204  Cu1914  1.964   1_655 S
O2207  Cu1913  1.964   1_655 S
O2208  Cu1731  1.973   1_565 S
