data_str_m2_o10_o17_pcu_sym.122
_audit_creation_date              2020-01-03
_audit_creation_method            'Materials Studio'
_symmetry_space_group_name_H-M    'P1'
_symmetry_Int_Tables_number       1
_symmetry_cell_setting            triclinic
loop_
_symmetry_equiv_pos_as_xyz
  x,y,z
_cell_length_a                    29.9914
_cell_length_b                    26.1851
_cell_length_c                    22.4021
_cell_angle_alpha                 102.1478
_cell_angle_beta                  94.0198
_cell_angle_gamma                 93.6221
loop_
_atom_site_label
_atom_site_type_symbol
_atom_site_fract_x
_atom_site_fract_y
_atom_site_fract_z
_atom_site_U_iso_or_equiv
_atom_site_adp_type
_atom_site_occupancy
C1     C     0.24855   0.06670   0.15133   0.00000  Uiso   1.00
C2     C     0.24978   0.26648   0.18205   0.00000  Uiso   1.00
C3     C     0.01148   0.09540   0.07351   0.00000  Uiso   1.00
C4     C     0.49101   0.26350   0.22195   0.00000  Uiso   1.00
C5     C     0.24812   0.01092   0.14266   0.00000  Uiso   1.00
C6     C     0.24871   0.32213   0.19069   0.00000  Uiso   1.00
C7     C     0.16449   0.16220   0.16675   0.00000  Uiso   1.00
C8     C     0.33564   0.17052   0.16628   0.00000  Uiso   1.00
C9     C     0.41228   0.21921   0.19881   0.00000  Uiso   1.00
C10    C     0.08779   0.12090   0.12594   0.00000  Uiso   1.00
C11    C     0.38436   0.17575   0.16399   0.00000  Uiso   1.00
C12    C     0.11601   0.16022   0.16697   0.00000  Uiso   1.00
C13    C     0.40211   0.13698   0.12255   0.00000  Uiso   1.00
C14    C     0.09855   0.20230   0.20386   0.00000  Uiso   1.00
C15    C     0.44808   0.13576   0.11957   0.00000  Uiso   1.00
C16    C     0.05319   0.20986   0.19746   0.00000  Uiso   1.00
C17    C     0.47722   0.17550   0.15786   0.00000  Uiso   1.00
C18    C     0.02388   0.17106   0.15847   0.00000  Uiso   1.00
C19    C     0.45983   0.21996   0.19421   0.00000  Uiso   1.00
C20    C     0.04121   0.12807   0.11968   0.00000  Uiso   1.00
C21    C     0.46516   0.09630   0.07671   0.00000  Uiso   1.00
C22    C     0.03722   0.25759   0.22557   0.00000  Uiso   1.00
Cu23   Cu    0.25500   0.17246   0.22813   0.00000  Uiso   1.00
Cu24   Cu    0.24499   0.16087   0.10521   0.00000  Uiso   1.00
H25    H     0.37934   0.10656   0.09352   0.00000  Uiso   1.00
H26    H     0.12119   0.23020   0.23643   0.00000  Uiso   1.00
H27    H     0.24762   0.32121   0.09613   0.00000  Uiso   1.00
H28    H     0.24929   0.01185   0.23724   0.00000  Uiso   1.00
H29    H     0.21498   0.12570   0.31650   0.00000  Uiso   1.00
H30    H     0.28503   0.20762   0.01682   0.00000  Uiso   1.00
N31    N     0.23744   0.15214   0.01284   0.00000  Uiso   1.00
N32    N     0.26255   0.18119   0.32049   0.00000  Uiso   1.00
O33    O     0.25325   0.09538   0.20659   0.00000  Uiso   1.00
O34    O     0.24674   0.23796   0.12674   0.00000  Uiso   1.00
O35    O     0.24480   0.08559   0.10279   0.00000  Uiso   1.00
O36    O     0.25520   0.24774   0.23055   0.00000  Uiso   1.00
O37    O     0.18935   0.17155   0.21857   0.00000  Uiso   1.00
O38    O     0.31064   0.16179   0.11476   0.00000  Uiso   1.00
O39    O     0.18090   0.16176   0.11477   0.00000  Uiso   1.00
O40    O     0.31910   0.17157   0.21857   0.00000  Uiso   1.00
C41    C     0.39041   0.26357   0.23852   0.00000  Uiso   1.00
C42    C     0.36897   0.29850   0.19918   0.00000  Uiso   1.00
C43    C     0.35845   0.01768   0.23759   0.00000  Uiso   1.00
H44    H     0.33580   0.01157   0.27304   0.00000  Uiso   1.00
H45    H     0.38983   0.04040   0.25994   0.00000  Uiso   1.00
H46    H     0.34188   0.04086   0.20753   0.00000  Uiso   1.00
H47    H     0.39129   0.30579   0.16420   0.00000  Uiso   1.00
H48    H     0.33775   0.27793   0.17378   0.00000  Uiso   1.00
H49    H     0.36470   0.24839   0.26484   0.00000  Uiso   1.00
H50    H     0.41420   0.28620   0.27535   0.00000  Uiso   1.00
C51    C     0.10444   0.06623   0.10694   0.00000  Uiso   1.00
C52    C     0.12817   0.05512   0.04741   0.00000  Uiso   1.00
C53    C     0.14153   0.33207   0.03391   0.00000  Uiso   1.00
H54    H     0.16359   0.32500   0.07272   0.00000  Uiso   1.00
H55    H     0.11135   0.30397   0.02681   0.00000  Uiso   1.00
H56    H     0.16007   0.32484   0.32549   0.00000  Uiso   1.00
H57    H     0.10659   0.06131   0.00802   0.00000  Uiso   1.00
H58    H     0.15906   0.08096   0.05090   0.00000  Uiso   1.00
H59    H     0.12807   0.05970   0.14460   0.00000  Uiso   1.00
H60    H     0.07591   0.03621   0.10314   0.00000  Uiso   1.00
O61    O     0.43668   0.06319   0.03181   0.00000  Uiso   1.00
C62    C     0.42239   0.01902   0.05422   0.00000  Uiso   1.00
H63    H     0.41452   0.02899   0.10285   0.00000  Uiso   1.00
H64    H     0.44790   0.32316   0.04770   0.00000  Uiso   1.00
H65    H     0.39052   0.00103   0.02817   0.00000  Uiso   1.00
O66    O     0.06618   0.30016   0.25562   0.00000  Uiso   1.00
C67    C     0.09213   0.31975   0.21353   0.00000  Uiso   1.00
H68    H     0.12748   0.31049   0.21953   0.00000  Uiso   1.00
H69    H     0.09278   0.02964   0.22411   0.00000  Uiso   1.00
H70    H     0.07946   0.30533   0.16445   0.00000  Uiso   1.00
O71    O     0.02703   0.06828   0.02040   0.00000  Uiso   1.00
C72    C     0.02913   0.10276   0.31289   0.00000  Uiso   1.00
H73    H     0.05084   0.13932   0.33305   0.00000  Uiso   1.00
H74    H     0.49507   0.11252   0.29813   0.00000  Uiso   1.00
H75    H     0.04432   0.08357   0.27143   0.00000  Uiso   1.00
O76    O     0.47768   0.31347   0.24098   0.00000  Uiso   1.00
C77    C     0.47900   0.00596   0.19171   0.00000  Uiso   1.00
H78    H     0.46597   0.31333   0.14723   0.00000  Uiso   1.00
H79    H     0.01342   0.02155   0.18733   0.00000  Uiso   1.00
H80    H     0.45827   0.03989   0.20089   0.00000  Uiso   1.00
C81    C     0.74855   0.06670   0.15133   0.00000  Uiso   1.00
C82    C     0.74978   0.26648   0.18205   0.00000  Uiso   1.00
C83    C     0.51148   0.09540   0.07351   0.00000  Uiso   1.00
C84    C     0.99101   0.26350   0.22195   0.00000  Uiso   1.00
C85    C     0.74812   0.01092   0.14266   0.00000  Uiso   1.00
C86    C     0.74871   0.32213   0.19069   0.00000  Uiso   1.00
C87    C     0.66449   0.16220   0.16675   0.00000  Uiso   1.00
C88    C     0.83564   0.17052   0.16628   0.00000  Uiso   1.00
C89    C     0.91228   0.21921   0.19881   0.00000  Uiso   1.00
C90    C     0.58779   0.12090   0.12594   0.00000  Uiso   1.00
C91    C     0.88436   0.17575   0.16399   0.00000  Uiso   1.00
C92    C     0.61601   0.16022   0.16697   0.00000  Uiso   1.00
C93    C     0.90211   0.13698   0.12255   0.00000  Uiso   1.00
C94    C     0.59855   0.20230   0.20386   0.00000  Uiso   1.00
C95    C     0.94808   0.13576   0.11957   0.00000  Uiso   1.00
C96    C     0.55319   0.20986   0.19746   0.00000  Uiso   1.00
C97    C     0.97722   0.17550   0.15786   0.00000  Uiso   1.00
C98    C     0.52388   0.17106   0.15847   0.00000  Uiso   1.00
C99    C     0.95983   0.21996   0.19421   0.00000  Uiso   1.00
C100   C     0.54121   0.12807   0.11968   0.00000  Uiso   1.00
C101   C     0.96516   0.09630   0.07671   0.00000  Uiso   1.00
C102   C     0.53722   0.25759   0.22557   0.00000  Uiso   1.00
Cu103  Cu    0.75500   0.17246   0.22813   0.00000  Uiso   1.00
Cu104  Cu    0.74499   0.16087   0.10521   0.00000  Uiso   1.00
H105   H     0.87934   0.10656   0.09352   0.00000  Uiso   1.00
H106   H     0.62119   0.23020   0.23643   0.00000  Uiso   1.00
H107   H     0.74762   0.32121   0.09613   0.00000  Uiso   1.00
H108   H     0.74929   0.01185   0.23724   0.00000  Uiso   1.00
H109   H     0.71498   0.12570   0.31650   0.00000  Uiso   1.00
H110   H     0.78503   0.20762   0.01682   0.00000  Uiso   1.00
N111   N     0.73744   0.15214   0.01284   0.00000  Uiso   1.00
N112   N     0.76255   0.18119   0.32049   0.00000  Uiso   1.00
O113   O     0.75325   0.09538   0.20659   0.00000  Uiso   1.00
O114   O     0.74674   0.23796   0.12674   0.00000  Uiso   1.00
O115   O     0.74480   0.08559   0.10279   0.00000  Uiso   1.00
O116   O     0.75520   0.24774   0.23055   0.00000  Uiso   1.00
O117   O     0.68935   0.17155   0.21857   0.00000  Uiso   1.00
O118   O     0.81064   0.16179   0.11476   0.00000  Uiso   1.00
O119   O     0.68090   0.16176   0.11477   0.00000  Uiso   1.00
O120   O     0.81910   0.17157   0.21857   0.00000  Uiso   1.00
C121   C     0.89041   0.26357   0.23852   0.00000  Uiso   1.00
C122   C     0.86897   0.29850   0.19918   0.00000  Uiso   1.00
C123   C     0.85845   0.01768   0.23759   0.00000  Uiso   1.00
H124   H     0.83580   0.01157   0.27304   0.00000  Uiso   1.00
H125   H     0.88983   0.04040   0.25994   0.00000  Uiso   1.00
H126   H     0.84188   0.04086   0.20753   0.00000  Uiso   1.00
H127   H     0.89129   0.30579   0.16420   0.00000  Uiso   1.00
H128   H     0.83775   0.27793   0.17378   0.00000  Uiso   1.00
H129   H     0.86470   0.24839   0.26484   0.00000  Uiso   1.00
H130   H     0.91420   0.28620   0.27535   0.00000  Uiso   1.00
C131   C     0.60444   0.06623   0.10694   0.00000  Uiso   1.00
C132   C     0.62817   0.05512   0.04741   0.00000  Uiso   1.00
C133   C     0.64153   0.33207   0.03391   0.00000  Uiso   1.00
H134   H     0.66359   0.32500   0.07272   0.00000  Uiso   1.00
H135   H     0.61135   0.30397   0.02681   0.00000  Uiso   1.00
H136   H     0.66007   0.32484   0.32549   0.00000  Uiso   1.00
H137   H     0.60659   0.06131   0.00802   0.00000  Uiso   1.00
H138   H     0.65906   0.08096   0.05090   0.00000  Uiso   1.00
H139   H     0.62807   0.05970   0.14460   0.00000  Uiso   1.00
H140   H     0.57591   0.03621   0.10314   0.00000  Uiso   1.00
O141   O     0.93668   0.06319   0.03181   0.00000  Uiso   1.00
C142   C     0.92239   0.01902   0.05422   0.00000  Uiso   1.00
H143   H     0.91452   0.02899   0.10285   0.00000  Uiso   1.00
H144   H     0.94790   0.32316   0.04770   0.00000  Uiso   1.00
H145   H     0.89052   0.00103   0.02817   0.00000  Uiso   1.00
O146   O     0.56618   0.30016   0.25562   0.00000  Uiso   1.00
C147   C     0.59213   0.31975   0.21353   0.00000  Uiso   1.00
H148   H     0.62748   0.31049   0.21953   0.00000  Uiso   1.00
H149   H     0.59278   0.02964   0.22411   0.00000  Uiso   1.00
H150   H     0.57946   0.30533   0.16445   0.00000  Uiso   1.00
O151   O     0.52703   0.06828   0.02040   0.00000  Uiso   1.00
C152   C     0.52913   0.10276   0.31289   0.00000  Uiso   1.00
H153   H     0.55084   0.13932   0.33305   0.00000  Uiso   1.00
H154   H     0.99507   0.11252   0.29813   0.00000  Uiso   1.00
H155   H     0.54432   0.08357   0.27143   0.00000  Uiso   1.00
O156   O     0.97768   0.31347   0.24098   0.00000  Uiso   1.00
C157   C     0.97900   0.00596   0.19171   0.00000  Uiso   1.00
H158   H     0.96597   0.31333   0.14723   0.00000  Uiso   1.00
H159   H     0.51342   0.02155   0.18733   0.00000  Uiso   1.00
H160   H     0.95827   0.03989   0.20089   0.00000  Uiso   1.00
C161   C     0.24855   0.40003   0.15133   0.00000  Uiso   1.00
C162   C     0.24978   0.59981   0.18205   0.00000  Uiso   1.00
C163   C     0.01148   0.42873   0.07351   0.00000  Uiso   1.00
C164   C     0.49101   0.59683   0.22195   0.00000  Uiso   1.00
C165   C     0.24812   0.34426   0.14266   0.00000  Uiso   1.00
C166   C     0.24871   0.65546   0.19069   0.00000  Uiso   1.00
C167   C     0.16449   0.49553   0.16675   0.00000  Uiso   1.00
C168   C     0.33564   0.50386   0.16628   0.00000  Uiso   1.00
C169   C     0.41228   0.55254   0.19881   0.00000  Uiso   1.00
C170   C     0.08779   0.45424   0.12594   0.00000  Uiso   1.00
C171   C     0.38436   0.50908   0.16399   0.00000  Uiso   1.00
C172   C     0.11601   0.49355   0.16697   0.00000  Uiso   1.00
C173   C     0.40211   0.47031   0.12255   0.00000  Uiso   1.00
C174   C     0.09855   0.53564   0.20386   0.00000  Uiso   1.00
C175   C     0.44808   0.46910   0.11957   0.00000  Uiso   1.00
C176   C     0.05319   0.54320   0.19746   0.00000  Uiso   1.00
C177   C     0.47722   0.50883   0.15786   0.00000  Uiso   1.00
C178   C     0.02388   0.50439   0.15847   0.00000  Uiso   1.00
C179   C     0.45983   0.55330   0.19421   0.00000  Uiso   1.00
C180   C     0.04121   0.46141   0.11968   0.00000  Uiso   1.00
C181   C     0.46516   0.42963   0.07671   0.00000  Uiso   1.00
C182   C     0.03722   0.59093   0.22557   0.00000  Uiso   1.00
Cu183  Cu    0.25500   0.50579   0.22813   0.00000  Uiso   1.00
Cu184  Cu    0.24499   0.49421   0.10521   0.00000  Uiso   1.00
H185   H     0.37934   0.43989   0.09352   0.00000  Uiso   1.00
H186   H     0.12119   0.56354   0.23643   0.00000  Uiso   1.00
H187   H     0.24762   0.65454   0.09613   0.00000  Uiso   1.00
H188   H     0.24929   0.34519   0.23724   0.00000  Uiso   1.00
H189   H     0.21498   0.45904   0.31650   0.00000  Uiso   1.00
H190   H     0.28503   0.54095   0.01682   0.00000  Uiso   1.00
N191   N     0.23744   0.48547   0.01284   0.00000  Uiso   1.00
N192   N     0.26255   0.51453   0.32049   0.00000  Uiso   1.00
O193   O     0.25325   0.42871   0.20659   0.00000  Uiso   1.00
O194   O     0.24674   0.57129   0.12674   0.00000  Uiso   1.00
O195   O     0.24480   0.41892   0.10279   0.00000  Uiso   1.00
O196   O     0.25520   0.58108   0.23055   0.00000  Uiso   1.00
O197   O     0.18935   0.50488   0.21857   0.00000  Uiso   1.00
O198   O     0.31064   0.49512   0.11476   0.00000  Uiso   1.00
O199   O     0.18090   0.49510   0.11477   0.00000  Uiso   1.00
O200   O     0.31910   0.50490   0.21857   0.00000  Uiso   1.00
C201   C     0.39041   0.59690   0.23852   0.00000  Uiso   1.00
C202   C     0.36897   0.63183   0.19918   0.00000  Uiso   1.00
C203   C     0.35845   0.35101   0.23759   0.00000  Uiso   1.00
H204   H     0.33580   0.34491   0.27304   0.00000  Uiso   1.00
H205   H     0.38983   0.37373   0.25994   0.00000  Uiso   1.00
H206   H     0.34188   0.37419   0.20753   0.00000  Uiso   1.00
H207   H     0.39129   0.63912   0.16420   0.00000  Uiso   1.00
H208   H     0.33775   0.61126   0.17378   0.00000  Uiso   1.00
H209   H     0.36470   0.58172   0.26484   0.00000  Uiso   1.00
H210   H     0.41420   0.61954   0.27535   0.00000  Uiso   1.00
C211   C     0.10444   0.39957   0.10694   0.00000  Uiso   1.00
C212   C     0.12817   0.38846   0.04741   0.00000  Uiso   1.00
C213   C     0.14153   0.66541   0.03391   0.00000  Uiso   1.00
H214   H     0.16359   0.65833   0.07272   0.00000  Uiso   1.00
H215   H     0.11135   0.63731   0.02681   0.00000  Uiso   1.00
H216   H     0.16007   0.65818   0.32549   0.00000  Uiso   1.00
H217   H     0.10659   0.39464   0.00802   0.00000  Uiso   1.00
H218   H     0.15906   0.41430   0.05090   0.00000  Uiso   1.00
H219   H     0.12807   0.39303   0.14460   0.00000  Uiso   1.00
H220   H     0.07591   0.36955   0.10314   0.00000  Uiso   1.00
O221   O     0.43668   0.39653   0.03181   0.00000  Uiso   1.00
C222   C     0.42239   0.35235   0.05422   0.00000  Uiso   1.00
H223   H     0.41452   0.36233   0.10285   0.00000  Uiso   1.00
H224   H     0.44790   0.65649   0.04770   0.00000  Uiso   1.00
H225   H     0.39052   0.33436   0.02817   0.00000  Uiso   1.00
O226   O     0.06618   0.63349   0.25562   0.00000  Uiso   1.00
C227   C     0.09213   0.65308   0.21353   0.00000  Uiso   1.00
H228   H     0.12748   0.64383   0.21953   0.00000  Uiso   1.00
H229   H     0.09278   0.36297   0.22411   0.00000  Uiso   1.00
H230   H     0.07946   0.63867   0.16445   0.00000  Uiso   1.00
O231   O     0.02703   0.40162   0.02040   0.00000  Uiso   1.00
C232   C     0.02913   0.43610   0.31289   0.00000  Uiso   1.00
H233   H     0.05084   0.47265   0.33305   0.00000  Uiso   1.00
H234   H     0.49507   0.44585   0.29813   0.00000  Uiso   1.00
H235   H     0.04432   0.41690   0.27143   0.00000  Uiso   1.00
O236   O     0.47768   0.64680   0.24098   0.00000  Uiso   1.00
C237   C     0.47900   0.33930   0.19171   0.00000  Uiso   1.00
H238   H     0.46597   0.64667   0.14723   0.00000  Uiso   1.00
H239   H     0.01342   0.35488   0.18733   0.00000  Uiso   1.00
H240   H     0.45827   0.37322   0.20089   0.00000  Uiso   1.00
C241   C     0.74855   0.40003   0.15133   0.00000  Uiso   1.00
C242   C     0.74978   0.59981   0.18205   0.00000  Uiso   1.00
C243   C     0.51148   0.42873   0.07351   0.00000  Uiso   1.00
C244   C     0.99101   0.59683   0.22195   0.00000  Uiso   1.00
C245   C     0.74812   0.34426   0.14266   0.00000  Uiso   1.00
C246   C     0.74871   0.65546   0.19069   0.00000  Uiso   1.00
C247   C     0.66449   0.49553   0.16675   0.00000  Uiso   1.00
C248   C     0.83564   0.50386   0.16628   0.00000  Uiso   1.00
C249   C     0.91228   0.55254   0.19881   0.00000  Uiso   1.00
C250   C     0.58779   0.45424   0.12594   0.00000  Uiso   1.00
C251   C     0.88436   0.50908   0.16399   0.00000  Uiso   1.00
C252   C     0.61601   0.49355   0.16697   0.00000  Uiso   1.00
C253   C     0.90211   0.47031   0.12255   0.00000  Uiso   1.00
C254   C     0.59855   0.53564   0.20386   0.00000  Uiso   1.00
C255   C     0.94808   0.46910   0.11957   0.00000  Uiso   1.00
C256   C     0.55319   0.54320   0.19746   0.00000  Uiso   1.00
C257   C     0.97722   0.50883   0.15786   0.00000  Uiso   1.00
C258   C     0.52388   0.50439   0.15847   0.00000  Uiso   1.00
C259   C     0.95983   0.55330   0.19421   0.00000  Uiso   1.00
C260   C     0.54121   0.46141   0.11968   0.00000  Uiso   1.00
C261   C     0.96516   0.42963   0.07671   0.00000  Uiso   1.00
C262   C     0.53722   0.59093   0.22557   0.00000  Uiso   1.00
Cu263  Cu    0.75500   0.50579   0.22813   0.00000  Uiso   1.00
Cu264  Cu    0.74499   0.49421   0.10521   0.00000  Uiso   1.00
H265   H     0.87934   0.43989   0.09352   0.00000  Uiso   1.00
H266   H     0.62119   0.56354   0.23643   0.00000  Uiso   1.00
H267   H     0.74762   0.65454   0.09613   0.00000  Uiso   1.00
H268   H     0.74929   0.34519   0.23724   0.00000  Uiso   1.00
H269   H     0.71498   0.45904   0.31650   0.00000  Uiso   1.00
H270   H     0.78503   0.54095   0.01682   0.00000  Uiso   1.00
N271   N     0.73744   0.48547   0.01284   0.00000  Uiso   1.00
N272   N     0.76255   0.51453   0.32049   0.00000  Uiso   1.00
O273   O     0.75325   0.42871   0.20659   0.00000  Uiso   1.00
O274   O     0.74674   0.57129   0.12674   0.00000  Uiso   1.00
O275   O     0.74480   0.41892   0.10279   0.00000  Uiso   1.00
O276   O     0.75520   0.58108   0.23055   0.00000  Uiso   1.00
O277   O     0.68935   0.50488   0.21857   0.00000  Uiso   1.00
O278   O     0.81064   0.49512   0.11476   0.00000  Uiso   1.00
O279   O     0.68090   0.49510   0.11477   0.00000  Uiso   1.00
O280   O     0.81910   0.50490   0.21857   0.00000  Uiso   1.00
C281   C     0.89041   0.59690   0.23852   0.00000  Uiso   1.00
C282   C     0.86897   0.63183   0.19918   0.00000  Uiso   1.00
C283   C     0.85845   0.35101   0.23759   0.00000  Uiso   1.00
H284   H     0.83580   0.34491   0.27304   0.00000  Uiso   1.00
H285   H     0.88983   0.37373   0.25994   0.00000  Uiso   1.00
H286   H     0.84188   0.37419   0.20753   0.00000  Uiso   1.00
H287   H     0.89129   0.63912   0.16420   0.00000  Uiso   1.00
H288   H     0.83775   0.61126   0.17378   0.00000  Uiso   1.00
H289   H     0.86470   0.58172   0.26484   0.00000  Uiso   1.00
H290   H     0.91420   0.61954   0.27535   0.00000  Uiso   1.00
C291   C     0.60444   0.39957   0.10694   0.00000  Uiso   1.00
C292   C     0.62817   0.38846   0.04741   0.00000  Uiso   1.00
C293   C     0.64153   0.66541   0.03391   0.00000  Uiso   1.00
H294   H     0.66359   0.65833   0.07272   0.00000  Uiso   1.00
H295   H     0.61135   0.63731   0.02681   0.00000  Uiso   1.00
H296   H     0.66007   0.65818   0.32549   0.00000  Uiso   1.00
H297   H     0.60659   0.39464   0.00802   0.00000  Uiso   1.00
H298   H     0.65906   0.41430   0.05090   0.00000  Uiso   1.00
H299   H     0.62807   0.39303   0.14460   0.00000  Uiso   1.00
H300   H     0.57591   0.36955   0.10314   0.00000  Uiso   1.00
O301   O     0.93668   0.39653   0.03181   0.00000  Uiso   1.00
C302   C     0.92239   0.35235   0.05422   0.00000  Uiso   1.00
H303   H     0.91452   0.36233   0.10285   0.00000  Uiso   1.00
H304   H     0.94790   0.65649   0.04770   0.00000  Uiso   1.00
H305   H     0.89052   0.33436   0.02817   0.00000  Uiso   1.00
O306   O     0.56618   0.63349   0.25562   0.00000  Uiso   1.00
C307   C     0.59213   0.65308   0.21353   0.00000  Uiso   1.00
H308   H     0.62748   0.64383   0.21953   0.00000  Uiso   1.00
H309   H     0.59278   0.36297   0.22411   0.00000  Uiso   1.00
H310   H     0.57946   0.63867   0.16445   0.00000  Uiso   1.00
O311   O     0.52703   0.40162   0.02040   0.00000  Uiso   1.00
C312   C     0.52913   0.43610   0.31289   0.00000  Uiso   1.00
H313   H     0.55084   0.47265   0.33305   0.00000  Uiso   1.00
H314   H     0.99507   0.44585   0.29813   0.00000  Uiso   1.00
H315   H     0.54432   0.41690   0.27143   0.00000  Uiso   1.00
O316   O     0.97768   0.64680   0.24098   0.00000  Uiso   1.00
C317   C     0.97900   0.33930   0.19171   0.00000  Uiso   1.00
H318   H     0.96597   0.64667   0.14723   0.00000  Uiso   1.00
H319   H     0.51342   0.35488   0.18733   0.00000  Uiso   1.00
H320   H     0.95827   0.37322   0.20089   0.00000  Uiso   1.00
C321   C     0.24855   0.73337   0.15133   0.00000  Uiso   1.00
C322   C     0.24978   0.93315   0.18205   0.00000  Uiso   1.00
C323   C     0.01148   0.76207   0.07351   0.00000  Uiso   1.00
C324   C     0.49101   0.93016   0.22195   0.00000  Uiso   1.00
C325   C     0.24812   0.67759   0.14266   0.00000  Uiso   1.00
C326   C     0.24871   0.98880   0.19069   0.00000  Uiso   1.00
C327   C     0.16449   0.82887   0.16675   0.00000  Uiso   1.00
C328   C     0.33564   0.83719   0.16628   0.00000  Uiso   1.00
C329   C     0.41228   0.88587   0.19881   0.00000  Uiso   1.00
C330   C     0.08779   0.78757   0.12594   0.00000  Uiso   1.00
C331   C     0.38436   0.84242   0.16399   0.00000  Uiso   1.00
C332   C     0.11601   0.82689   0.16697   0.00000  Uiso   1.00
C333   C     0.40211   0.80364   0.12255   0.00000  Uiso   1.00
C334   C     0.09855   0.86897   0.20386   0.00000  Uiso   1.00
C335   C     0.44808   0.80243   0.11957   0.00000  Uiso   1.00
C336   C     0.05319   0.87653   0.19746   0.00000  Uiso   1.00
C337   C     0.47722   0.84216   0.15786   0.00000  Uiso   1.00
C338   C     0.02388   0.83772   0.15847   0.00000  Uiso   1.00
C339   C     0.45983   0.88663   0.19421   0.00000  Uiso   1.00
C340   C     0.04121   0.79474   0.11968   0.00000  Uiso   1.00
C341   C     0.46516   0.76296   0.07671   0.00000  Uiso   1.00
C342   C     0.03722   0.92426   0.22557   0.00000  Uiso   1.00
Cu343  Cu    0.25500   0.83913   0.22813   0.00000  Uiso   1.00
Cu344  Cu    0.24499   0.82754   0.10521   0.00000  Uiso   1.00
H345   H     0.37934   0.77323   0.09352   0.00000  Uiso   1.00
H346   H     0.12119   0.89687   0.23643   0.00000  Uiso   1.00
H347   H     0.24762   0.98788   0.09613   0.00000  Uiso   1.00
H348   H     0.24929   0.67852   0.23724   0.00000  Uiso   1.00
H349   H     0.21498   0.79237   0.31650   0.00000  Uiso   1.00
H350   H     0.28503   0.87429   0.01682   0.00000  Uiso   1.00
N351   N     0.23744   0.81881   0.01284   0.00000  Uiso   1.00
N352   N     0.26255   0.84786   0.32049   0.00000  Uiso   1.00
O353   O     0.25325   0.76204   0.20659   0.00000  Uiso   1.00
O354   O     0.24674   0.90462   0.12674   0.00000  Uiso   1.00
O355   O     0.24480   0.75226   0.10279   0.00000  Uiso   1.00
O356   O     0.25520   0.91441   0.23055   0.00000  Uiso   1.00
O357   O     0.18935   0.83821   0.21857   0.00000  Uiso   1.00
O358   O     0.31064   0.82845   0.11476   0.00000  Uiso   1.00
O359   O     0.18090   0.82843   0.11477   0.00000  Uiso   1.00
O360   O     0.31910   0.83824   0.21857   0.00000  Uiso   1.00
C361   C     0.39041   0.93024   0.23852   0.00000  Uiso   1.00
C362   C     0.36897   0.96517   0.19918   0.00000  Uiso   1.00
C363   C     0.35845   0.68434   0.23759   0.00000  Uiso   1.00
H364   H     0.33580   0.67824   0.27304   0.00000  Uiso   1.00
H365   H     0.38983   0.70707   0.25994   0.00000  Uiso   1.00
H366   H     0.34188   0.70753   0.20753   0.00000  Uiso   1.00
H367   H     0.39129   0.97246   0.16420   0.00000  Uiso   1.00
H368   H     0.33775   0.94459   0.17378   0.00000  Uiso   1.00
H369   H     0.36470   0.91505   0.26484   0.00000  Uiso   1.00
H370   H     0.41420   0.95287   0.27535   0.00000  Uiso   1.00
C371   C     0.10444   0.73290   0.10694   0.00000  Uiso   1.00
C372   C     0.12817   0.72179   0.04741   0.00000  Uiso   1.00
C373   C     0.14153   0.99874   0.03391   0.00000  Uiso   1.00
H374   H     0.16359   0.99166   0.07272   0.00000  Uiso   1.00
H375   H     0.11135   0.97064   0.02681   0.00000  Uiso   1.00
H376   H     0.16007   0.99151   0.32549   0.00000  Uiso   1.00
H377   H     0.10659   0.72798   0.00802   0.00000  Uiso   1.00
H378   H     0.15906   0.74763   0.05090   0.00000  Uiso   1.00
H379   H     0.12807   0.72637   0.14460   0.00000  Uiso   1.00
H380   H     0.07591   0.70288   0.10314   0.00000  Uiso   1.00
O381   O     0.43668   0.72986   0.03181   0.00000  Uiso   1.00
C382   C     0.42239   0.68568   0.05422   0.00000  Uiso   1.00
H383   H     0.41452   0.69566   0.10285   0.00000  Uiso   1.00
H384   H     0.44790   0.98983   0.04770   0.00000  Uiso   1.00
H385   H     0.39052   0.66770   0.02817   0.00000  Uiso   1.00
O386   O     0.06618   0.96682   0.25562   0.00000  Uiso   1.00
C387   C     0.09213   0.98641   0.21353   0.00000  Uiso   1.00
H388   H     0.12748   0.97716   0.21953   0.00000  Uiso   1.00
H389   H     0.09278   0.69630   0.22411   0.00000  Uiso   1.00
H390   H     0.07946   0.97200   0.16445   0.00000  Uiso   1.00
O391   O     0.02703   0.73495   0.02040   0.00000  Uiso   1.00
C392   C     0.02913   0.76943   0.31289   0.00000  Uiso   1.00
H393   H     0.05084   0.80598   0.33305   0.00000  Uiso   1.00
H394   H     0.49507   0.77918   0.29813   0.00000  Uiso   1.00
H395   H     0.04432   0.75024   0.27143   0.00000  Uiso   1.00
O396   O     0.47768   0.98013   0.24098   0.00000  Uiso   1.00
C397   C     0.47900   0.67263   0.19171   0.00000  Uiso   1.00
H398   H     0.46597   0.98000   0.14723   0.00000  Uiso   1.00
H399   H     0.01342   0.68822   0.18733   0.00000  Uiso   1.00
H400   H     0.45827   0.70655   0.20089   0.00000  Uiso   1.00
C401   C     0.74855   0.73337   0.15133   0.00000  Uiso   1.00
C402   C     0.74978   0.93315   0.18205   0.00000  Uiso   1.00
C403   C     0.51148   0.76207   0.07351   0.00000  Uiso   1.00
C404   C     0.99101   0.93016   0.22195   0.00000  Uiso   1.00
C405   C     0.74812   0.67759   0.14266   0.00000  Uiso   1.00
C406   C     0.74871   0.98880   0.19069   0.00000  Uiso   1.00
C407   C     0.66449   0.82887   0.16675   0.00000  Uiso   1.00
C408   C     0.83564   0.83719   0.16628   0.00000  Uiso   1.00
C409   C     0.91228   0.88587   0.19881   0.00000  Uiso   1.00
C410   C     0.58779   0.78757   0.12594   0.00000  Uiso   1.00
C411   C     0.88436   0.84242   0.16399   0.00000  Uiso   1.00
C412   C     0.61601   0.82689   0.16697   0.00000  Uiso   1.00
C413   C     0.90211   0.80364   0.12255   0.00000  Uiso   1.00
C414   C     0.59855   0.86897   0.20386   0.00000  Uiso   1.00
C415   C     0.94808   0.80243   0.11957   0.00000  Uiso   1.00
C416   C     0.55319   0.87653   0.19746   0.00000  Uiso   1.00
C417   C     0.97722   0.84216   0.15786   0.00000  Uiso   1.00
C418   C     0.52388   0.83772   0.15847   0.00000  Uiso   1.00
C419   C     0.95983   0.88663   0.19421   0.00000  Uiso   1.00
C420   C     0.54121   0.79474   0.11968   0.00000  Uiso   1.00
C421   C     0.96516   0.76296   0.07671   0.00000  Uiso   1.00
C422   C     0.53722   0.92426   0.22557   0.00000  Uiso   1.00
Cu423  Cu    0.75500   0.83913   0.22813   0.00000  Uiso   1.00
Cu424  Cu    0.74499   0.82754   0.10521   0.00000  Uiso   1.00
H425   H     0.87934   0.77323   0.09352   0.00000  Uiso   1.00
H426   H     0.62119   0.89687   0.23643   0.00000  Uiso   1.00
H427   H     0.74762   0.98788   0.09613   0.00000  Uiso   1.00
H428   H     0.74929   0.67852   0.23724   0.00000  Uiso   1.00
H429   H     0.71498   0.79237   0.31650   0.00000  Uiso   1.00
H430   H     0.78503   0.87429   0.01682   0.00000  Uiso   1.00
N431   N     0.73744   0.81881   0.01284   0.00000  Uiso   1.00
N432   N     0.76255   0.84786   0.32049   0.00000  Uiso   1.00
O433   O     0.75325   0.76204   0.20659   0.00000  Uiso   1.00
O434   O     0.74674   0.90462   0.12674   0.00000  Uiso   1.00
O435   O     0.74480   0.75226   0.10279   0.00000  Uiso   1.00
O436   O     0.75520   0.91441   0.23055   0.00000  Uiso   1.00
O437   O     0.68935   0.83821   0.21857   0.00000  Uiso   1.00
O438   O     0.81064   0.82845   0.11476   0.00000  Uiso   1.00
O439   O     0.68090   0.82843   0.11477   0.00000  Uiso   1.00
O440   O     0.81910   0.83824   0.21857   0.00000  Uiso   1.00
C441   C     0.89041   0.93024   0.23852   0.00000  Uiso   1.00
C442   C     0.86897   0.96517   0.19918   0.00000  Uiso   1.00
C443   C     0.85845   0.68434   0.23759   0.00000  Uiso   1.00
H444   H     0.83580   0.67824   0.27304   0.00000  Uiso   1.00
H445   H     0.88983   0.70707   0.25994   0.00000  Uiso   1.00
H446   H     0.84188   0.70753   0.20753   0.00000  Uiso   1.00
H447   H     0.89129   0.97246   0.16420   0.00000  Uiso   1.00
H448   H     0.83775   0.94459   0.17378   0.00000  Uiso   1.00
H449   H     0.86470   0.91505   0.26484   0.00000  Uiso   1.00
H450   H     0.91420   0.95287   0.27535   0.00000  Uiso   1.00
C451   C     0.60444   0.73290   0.10694   0.00000  Uiso   1.00
C452   C     0.62817   0.72179   0.04741   0.00000  Uiso   1.00
C453   C     0.64153   0.99874   0.03391   0.00000  Uiso   1.00
H454   H     0.66359   0.99166   0.07272   0.00000  Uiso   1.00
H455   H     0.61135   0.97064   0.02681   0.00000  Uiso   1.00
H456   H     0.66007   0.99151   0.32549   0.00000  Uiso   1.00
H457   H     0.60659   0.72798   0.00802   0.00000  Uiso   1.00
H458   H     0.65906   0.74763   0.05090   0.00000  Uiso   1.00
H459   H     0.62807   0.72637   0.14460   0.00000  Uiso   1.00
H460   H     0.57591   0.70288   0.10314   0.00000  Uiso   1.00
O461   O     0.93668   0.72986   0.03181   0.00000  Uiso   1.00
C462   C     0.92239   0.68568   0.05422   0.00000  Uiso   1.00
H463   H     0.91452   0.69566   0.10285   0.00000  Uiso   1.00
H464   H     0.94790   0.98983   0.04770   0.00000  Uiso   1.00
H465   H     0.89052   0.66770   0.02817   0.00000  Uiso   1.00
O466   O     0.56618   0.96682   0.25562   0.00000  Uiso   1.00
C467   C     0.59213   0.98641   0.21353   0.00000  Uiso   1.00
H468   H     0.62748   0.97716   0.21953   0.00000  Uiso   1.00
H469   H     0.59278   0.69630   0.22411   0.00000  Uiso   1.00
H470   H     0.57946   0.97200   0.16445   0.00000  Uiso   1.00
O471   O     0.52703   0.73495   0.02040   0.00000  Uiso   1.00
C472   C     0.52913   0.76943   0.31289   0.00000  Uiso   1.00
H473   H     0.55084   0.80598   0.33305   0.00000  Uiso   1.00
H474   H     0.99507   0.77918   0.29813   0.00000  Uiso   1.00
H475   H     0.54432   0.75024   0.27143   0.00000  Uiso   1.00
O476   O     0.97768   0.98013   0.24098   0.00000  Uiso   1.00
C477   C     0.97900   0.67263   0.19171   0.00000  Uiso   1.00
H478   H     0.96597   0.98000   0.14723   0.00000  Uiso   1.00
H479   H     0.51342   0.68822   0.18733   0.00000  Uiso   1.00
H480   H     0.95827   0.70655   0.20089   0.00000  Uiso   1.00
C481   C     0.24855   0.06670   0.48466   0.00000  Uiso   1.00
C482   C     0.24978   0.26648   0.51538   0.00000  Uiso   1.00
C483   C     0.01148   0.09540   0.40684   0.00000  Uiso   1.00
C484   C     0.49101   0.26350   0.55528   0.00000  Uiso   1.00
C485   C     0.24812   0.01092   0.47600   0.00000  Uiso   1.00
C486   C     0.24871   0.32213   0.52403   0.00000  Uiso   1.00
C487   C     0.16449   0.16220   0.50008   0.00000  Uiso   1.00
C488   C     0.33564   0.17052   0.49962   0.00000  Uiso   1.00
C489   C     0.41228   0.21921   0.53214   0.00000  Uiso   1.00
C490   C     0.08779   0.12090   0.45927   0.00000  Uiso   1.00
C491   C     0.38436   0.17575   0.49733   0.00000  Uiso   1.00
C492   C     0.11601   0.16022   0.50030   0.00000  Uiso   1.00
C493   C     0.40211   0.13698   0.45589   0.00000  Uiso   1.00
C494   C     0.09855   0.20230   0.53719   0.00000  Uiso   1.00
C495   C     0.44808   0.13576   0.45290   0.00000  Uiso   1.00
C496   C     0.05319   0.20986   0.53080   0.00000  Uiso   1.00
C497   C     0.47722   0.17550   0.49119   0.00000  Uiso   1.00
C498   C     0.02388   0.17106   0.49181   0.00000  Uiso   1.00
C499   C     0.45983   0.21996   0.52755   0.00000  Uiso   1.00
C500   C     0.04121   0.12807   0.45302   0.00000  Uiso   1.00
C501   C     0.46516   0.09630   0.41005   0.00000  Uiso   1.00
C502   C     0.03722   0.25759   0.55890   0.00000  Uiso   1.00
Cu503  Cu    0.25500   0.17246   0.56146   0.00000  Uiso   1.00
Cu504  Cu    0.24499   0.16087   0.43854   0.00000  Uiso   1.00
H505   H     0.37934   0.10656   0.42686   0.00000  Uiso   1.00
H506   H     0.12119   0.23020   0.56976   0.00000  Uiso   1.00
H507   H     0.24762   0.32121   0.42946   0.00000  Uiso   1.00
H508   H     0.24929   0.01185   0.57057   0.00000  Uiso   1.00
H509   H     0.21498   0.12570   0.64984   0.00000  Uiso   1.00
H510   H     0.28503   0.20762   0.35015   0.00000  Uiso   1.00
N511   N     0.23744   0.15214   0.34617   0.00000  Uiso   1.00
N512   N     0.26255   0.18119   0.65383   0.00000  Uiso   1.00
O513   O     0.25325   0.09538   0.53992   0.00000  Uiso   1.00
O514   O     0.24674   0.23796   0.46008   0.00000  Uiso   1.00
O515   O     0.24480   0.08559   0.43612   0.00000  Uiso   1.00
O516   O     0.25520   0.24774   0.56388   0.00000  Uiso   1.00
O517   O     0.18935   0.17155   0.55191   0.00000  Uiso   1.00
O518   O     0.31064   0.16179   0.44809   0.00000  Uiso   1.00
O519   O     0.18090   0.16176   0.44810   0.00000  Uiso   1.00
O520   O     0.31910   0.17157   0.55190   0.00000  Uiso   1.00
C521   C     0.39041   0.26357   0.57186   0.00000  Uiso   1.00
C522   C     0.36897   0.29850   0.53251   0.00000  Uiso   1.00
C523   C     0.35845   0.01768   0.57092   0.00000  Uiso   1.00
H524   H     0.33580   0.01157   0.60638   0.00000  Uiso   1.00
H525   H     0.38983   0.04040   0.59328   0.00000  Uiso   1.00
H526   H     0.34188   0.04086   0.54086   0.00000  Uiso   1.00
H527   H     0.39129   0.30579   0.49753   0.00000  Uiso   1.00
H528   H     0.33775   0.27793   0.50712   0.00000  Uiso   1.00
H529   H     0.36470   0.24839   0.59817   0.00000  Uiso   1.00
H530   H     0.41420   0.28620   0.60868   0.00000  Uiso   1.00
C531   C     0.10444   0.06623   0.44028   0.00000  Uiso   1.00
C532   C     0.12817   0.05512   0.38074   0.00000  Uiso   1.00
C533   C     0.14153   0.33207   0.36725   0.00000  Uiso   1.00
H534   H     0.16359   0.32500   0.40605   0.00000  Uiso   1.00
H535   H     0.11135   0.30397   0.36014   0.00000  Uiso   1.00
H536   H     0.16007   0.32484   0.65883   0.00000  Uiso   1.00
H537   H     0.10659   0.06131   0.34136   0.00000  Uiso   1.00
H538   H     0.15906   0.08096   0.38423   0.00000  Uiso   1.00
H539   H     0.12807   0.05970   0.47793   0.00000  Uiso   1.00
H540   H     0.07591   0.03621   0.43647   0.00000  Uiso   1.00
O541   O     0.43668   0.06319   0.36514   0.00000  Uiso   1.00
C542   C     0.42239   0.01902   0.38756   0.00000  Uiso   1.00
H543   H     0.41452   0.02899   0.43618   0.00000  Uiso   1.00
H544   H     0.44790   0.32316   0.38103   0.00000  Uiso   1.00
H545   H     0.39052   0.00103   0.36150   0.00000  Uiso   1.00
O546   O     0.06618   0.30016   0.58895   0.00000  Uiso   1.00
C547   C     0.09213   0.31975   0.54686   0.00000  Uiso   1.00
H548   H     0.12748   0.31049   0.55286   0.00000  Uiso   1.00
H549   H     0.09278   0.02964   0.55744   0.00000  Uiso   1.00
H550   H     0.07946   0.30533   0.49778   0.00000  Uiso   1.00
O551   O     0.02703   0.06828   0.35373   0.00000  Uiso   1.00
C552   C     0.02913   0.10276   0.64623   0.00000  Uiso   1.00
H553   H     0.05084   0.13932   0.66639   0.00000  Uiso   1.00
H554   H     0.49507   0.11252   0.63146   0.00000  Uiso   1.00
H555   H     0.04432   0.08357   0.60477   0.00000  Uiso   1.00
O556   O     0.47768   0.31347   0.57431   0.00000  Uiso   1.00
C557   C     0.47900   0.00596   0.52504   0.00000  Uiso   1.00
H558   H     0.46597   0.31333   0.48056   0.00000  Uiso   1.00
H559   H     0.01342   0.02155   0.52066   0.00000  Uiso   1.00
H560   H     0.45827   0.03989   0.53422   0.00000  Uiso   1.00
C561   C     0.74855   0.06670   0.48466   0.00000  Uiso   1.00
C562   C     0.74978   0.26648   0.51538   0.00000  Uiso   1.00
C563   C     0.51148   0.09540   0.40684   0.00000  Uiso   1.00
C564   C     0.99101   0.26350   0.55528   0.00000  Uiso   1.00
C565   C     0.74812   0.01092   0.47600   0.00000  Uiso   1.00
C566   C     0.74871   0.32213   0.52403   0.00000  Uiso   1.00
C567   C     0.66449   0.16220   0.50008   0.00000  Uiso   1.00
C568   C     0.83564   0.17052   0.49962   0.00000  Uiso   1.00
C569   C     0.91228   0.21921   0.53214   0.00000  Uiso   1.00
C570   C     0.58779   0.12090   0.45927   0.00000  Uiso   1.00
C571   C     0.88436   0.17575   0.49733   0.00000  Uiso   1.00
C572   C     0.61601   0.16022   0.50030   0.00000  Uiso   1.00
C573   C     0.90211   0.13698   0.45589   0.00000  Uiso   1.00
C574   C     0.59855   0.20230   0.53719   0.00000  Uiso   1.00
C575   C     0.94808   0.13576   0.45290   0.00000  Uiso   1.00
C576   C     0.55319   0.20986   0.53080   0.00000  Uiso   1.00
C577   C     0.97722   0.17550   0.49119   0.00000  Uiso   1.00
C578   C     0.52388   0.17106   0.49181   0.00000  Uiso   1.00
C579   C     0.95983   0.21996   0.52755   0.00000  Uiso   1.00
C580   C     0.54121   0.12807   0.45302   0.00000  Uiso   1.00
C581   C     0.96516   0.09630   0.41005   0.00000  Uiso   1.00
C582   C     0.53722   0.25759   0.55890   0.00000  Uiso   1.00
Cu583  Cu    0.75500   0.17246   0.56146   0.00000  Uiso   1.00
Cu584  Cu    0.74499   0.16087   0.43854   0.00000  Uiso   1.00
H585   H     0.87934   0.10656   0.42686   0.00000  Uiso   1.00
H586   H     0.62119   0.23020   0.56976   0.00000  Uiso   1.00
H587   H     0.74762   0.32121   0.42946   0.00000  Uiso   1.00
H588   H     0.74929   0.01185   0.57057   0.00000  Uiso   1.00
H589   H     0.71498   0.12570   0.64984   0.00000  Uiso   1.00
H590   H     0.78503   0.20762   0.35015   0.00000  Uiso   1.00
N591   N     0.73744   0.15214   0.34617   0.00000  Uiso   1.00
N592   N     0.76255   0.18119   0.65383   0.00000  Uiso   1.00
O593   O     0.75325   0.09538   0.53992   0.00000  Uiso   1.00
O594   O     0.74674   0.23796   0.46008   0.00000  Uiso   1.00
O595   O     0.74480   0.08559   0.43612   0.00000  Uiso   1.00
O596   O     0.75520   0.24774   0.56388   0.00000  Uiso   1.00
O597   O     0.68935   0.17155   0.55191   0.00000  Uiso   1.00
O598   O     0.81064   0.16179   0.44809   0.00000  Uiso   1.00
O599   O     0.68090   0.16176   0.44810   0.00000  Uiso   1.00
O600   O     0.81910   0.17157   0.55190   0.00000  Uiso   1.00
C601   C     0.89041   0.26357   0.57186   0.00000  Uiso   1.00
C602   C     0.86897   0.29850   0.53251   0.00000  Uiso   1.00
C603   C     0.85845   0.01768   0.57092   0.00000  Uiso   1.00
H604   H     0.83580   0.01157   0.60638   0.00000  Uiso   1.00
H605   H     0.88983   0.04040   0.59328   0.00000  Uiso   1.00
H606   H     0.84188   0.04086   0.54086   0.00000  Uiso   1.00
H607   H     0.89129   0.30579   0.49753   0.00000  Uiso   1.00
H608   H     0.83775   0.27793   0.50712   0.00000  Uiso   1.00
H609   H     0.86470   0.24839   0.59817   0.00000  Uiso   1.00
H610   H     0.91420   0.28620   0.60868   0.00000  Uiso   1.00
C611   C     0.60444   0.06623   0.44028   0.00000  Uiso   1.00
C612   C     0.62817   0.05512   0.38074   0.00000  Uiso   1.00
C613   C     0.64153   0.33207   0.36725   0.00000  Uiso   1.00
H614   H     0.66359   0.32500   0.40605   0.00000  Uiso   1.00
H615   H     0.61135   0.30397   0.36014   0.00000  Uiso   1.00
H616   H     0.66007   0.32484   0.65883   0.00000  Uiso   1.00
H617   H     0.60659   0.06131   0.34136   0.00000  Uiso   1.00
H618   H     0.65906   0.08096   0.38423   0.00000  Uiso   1.00
H619   H     0.62807   0.05970   0.47793   0.00000  Uiso   1.00
H620   H     0.57591   0.03621   0.43647   0.00000  Uiso   1.00
O621   O     0.93668   0.06319   0.36514   0.00000  Uiso   1.00
C622   C     0.92239   0.01902   0.38756   0.00000  Uiso   1.00
H623   H     0.91452   0.02899   0.43618   0.00000  Uiso   1.00
H624   H     0.94790   0.32316   0.38103   0.00000  Uiso   1.00
H625   H     0.89052   0.00103   0.36150   0.00000  Uiso   1.00
O626   O     0.56618   0.30016   0.58895   0.00000  Uiso   1.00
C627   C     0.59213   0.31975   0.54686   0.00000  Uiso   1.00
H628   H     0.62748   0.31049   0.55286   0.00000  Uiso   1.00
H629   H     0.59278   0.02964   0.55744   0.00000  Uiso   1.00
H630   H     0.57946   0.30533   0.49778   0.00000  Uiso   1.00
O631   O     0.52703   0.06828   0.35373   0.00000  Uiso   1.00
C632   C     0.52913   0.10276   0.64623   0.00000  Uiso   1.00
H633   H     0.55084   0.13932   0.66639   0.00000  Uiso   1.00
H634   H     0.99507   0.11252   0.63146   0.00000  Uiso   1.00
H635   H     0.54432   0.08357   0.60477   0.00000  Uiso   1.00
O636   O     0.97768   0.31347   0.57431   0.00000  Uiso   1.00
C637   C     0.97900   0.00596   0.52504   0.00000  Uiso   1.00
H638   H     0.96597   0.31333   0.48056   0.00000  Uiso   1.00
H639   H     0.51342   0.02155   0.52066   0.00000  Uiso   1.00
H640   H     0.95827   0.03989   0.53422   0.00000  Uiso   1.00
C641   C     0.24855   0.40003   0.48466   0.00000  Uiso   1.00
C642   C     0.24978   0.59981   0.51538   0.00000  Uiso   1.00
C643   C     0.01148   0.42873   0.40684   0.00000  Uiso   1.00
C644   C     0.49101   0.59683   0.55528   0.00000  Uiso   1.00
C645   C     0.24812   0.34426   0.47600   0.00000  Uiso   1.00
C646   C     0.24871   0.65546   0.52403   0.00000  Uiso   1.00
C647   C     0.16449   0.49553   0.50008   0.00000  Uiso   1.00
C648   C     0.33564   0.50386   0.49962   0.00000  Uiso   1.00
C649   C     0.41228   0.55254   0.53214   0.00000  Uiso   1.00
C650   C     0.08779   0.45424   0.45927   0.00000  Uiso   1.00
C651   C     0.38436   0.50908   0.49733   0.00000  Uiso   1.00
C652   C     0.11601   0.49355   0.50030   0.00000  Uiso   1.00
C653   C     0.40211   0.47031   0.45589   0.00000  Uiso   1.00
C654   C     0.09855   0.53564   0.53719   0.00000  Uiso   1.00
C655   C     0.44808   0.46910   0.45290   0.00000  Uiso   1.00
C656   C     0.05319   0.54320   0.53080   0.00000  Uiso   1.00
C657   C     0.47722   0.50883   0.49119   0.00000  Uiso   1.00
C658   C     0.02388   0.50439   0.49181   0.00000  Uiso   1.00
C659   C     0.45983   0.55330   0.52755   0.00000  Uiso   1.00
C660   C     0.04121   0.46141   0.45302   0.00000  Uiso   1.00
C661   C     0.46516   0.42963   0.41005   0.00000  Uiso   1.00
C662   C     0.03722   0.59093   0.55890   0.00000  Uiso   1.00
Cu663  Cu    0.25500   0.50579   0.56146   0.00000  Uiso   1.00
Cu664  Cu    0.24499   0.49421   0.43854   0.00000  Uiso   1.00
H665   H     0.37934   0.43989   0.42686   0.00000  Uiso   1.00
H666   H     0.12119   0.56354   0.56976   0.00000  Uiso   1.00
H667   H     0.24762   0.65454   0.42946   0.00000  Uiso   1.00
H668   H     0.24929   0.34519   0.57057   0.00000  Uiso   1.00
H669   H     0.21498   0.45904   0.64984   0.00000  Uiso   1.00
H670   H     0.28503   0.54095   0.35015   0.00000  Uiso   1.00
N671   N     0.23744   0.48547   0.34617   0.00000  Uiso   1.00
N672   N     0.26255   0.51453   0.65383   0.00000  Uiso   1.00
O673   O     0.25325   0.42871   0.53992   0.00000  Uiso   1.00
O674   O     0.24674   0.57129   0.46008   0.00000  Uiso   1.00
O675   O     0.24480   0.41892   0.43612   0.00000  Uiso   1.00
O676   O     0.25520   0.58108   0.56388   0.00000  Uiso   1.00
O677   O     0.18935   0.50488   0.55191   0.00000  Uiso   1.00
O678   O     0.31064   0.49512   0.44809   0.00000  Uiso   1.00
O679   O     0.18090   0.49510   0.44810   0.00000  Uiso   1.00
O680   O     0.31910   0.50490   0.55190   0.00000  Uiso   1.00
C681   C     0.39041   0.59690   0.57186   0.00000  Uiso   1.00
C682   C     0.36897   0.63183   0.53251   0.00000  Uiso   1.00
C683   C     0.35845   0.35101   0.57092   0.00000  Uiso   1.00
H684   H     0.33580   0.34491   0.60638   0.00000  Uiso   1.00
H685   H     0.38983   0.37373   0.59328   0.00000  Uiso   1.00
H686   H     0.34188   0.37419   0.54086   0.00000  Uiso   1.00
H687   H     0.39129   0.63912   0.49753   0.00000  Uiso   1.00
H688   H     0.33775   0.61126   0.50712   0.00000  Uiso   1.00
H689   H     0.36470   0.58172   0.59817   0.00000  Uiso   1.00
H690   H     0.41420   0.61954   0.60868   0.00000  Uiso   1.00
C691   C     0.10444   0.39957   0.44028   0.00000  Uiso   1.00
C692   C     0.12817   0.38846   0.38074   0.00000  Uiso   1.00
C693   C     0.14153   0.66541   0.36725   0.00000  Uiso   1.00
H694   H     0.16359   0.65833   0.40605   0.00000  Uiso   1.00
H695   H     0.11135   0.63731   0.36014   0.00000  Uiso   1.00
H696   H     0.16007   0.65818   0.65883   0.00000  Uiso   1.00
H697   H     0.10659   0.39464   0.34136   0.00000  Uiso   1.00
H698   H     0.15906   0.41430   0.38423   0.00000  Uiso   1.00
H699   H     0.12807   0.39303   0.47793   0.00000  Uiso   1.00
H700   H     0.07591   0.36955   0.43647   0.00000  Uiso   1.00
O701   O     0.43668   0.39653   0.36514   0.00000  Uiso   1.00
C702   C     0.42239   0.35235   0.38756   0.00000  Uiso   1.00
H703   H     0.41452   0.36233   0.43618   0.00000  Uiso   1.00
H704   H     0.44790   0.65649   0.38103   0.00000  Uiso   1.00
H705   H     0.39052   0.33436   0.36150   0.00000  Uiso   1.00
O706   O     0.06618   0.63349   0.58895   0.00000  Uiso   1.00
C707   C     0.09213   0.65308   0.54686   0.00000  Uiso   1.00
H708   H     0.12748   0.64383   0.55286   0.00000  Uiso   1.00
H709   H     0.09278   0.36297   0.55744   0.00000  Uiso   1.00
H710   H     0.07946   0.63867   0.49778   0.00000  Uiso   1.00
O711   O     0.02703   0.40162   0.35373   0.00000  Uiso   1.00
C712   C     0.02913   0.43610   0.64623   0.00000  Uiso   1.00
H713   H     0.05084   0.47265   0.66639   0.00000  Uiso   1.00
H714   H     0.49507   0.44585   0.63146   0.00000  Uiso   1.00
H715   H     0.04432   0.41690   0.60477   0.00000  Uiso   1.00
O716   O     0.47768   0.64680   0.57431   0.00000  Uiso   1.00
C717   C     0.47900   0.33930   0.52504   0.00000  Uiso   1.00
H718   H     0.46597   0.64667   0.48056   0.00000  Uiso   1.00
H719   H     0.01342   0.35488   0.52066   0.00000  Uiso   1.00
H720   H     0.45827   0.37322   0.53422   0.00000  Uiso   1.00
C721   C     0.74855   0.40003   0.48466   0.00000  Uiso   1.00
C722   C     0.74978   0.59981   0.51538   0.00000  Uiso   1.00
C723   C     0.51148   0.42873   0.40684   0.00000  Uiso   1.00
C724   C     0.99101   0.59683   0.55528   0.00000  Uiso   1.00
C725   C     0.74812   0.34426   0.47600   0.00000  Uiso   1.00
C726   C     0.74871   0.65546   0.52403   0.00000  Uiso   1.00
C727   C     0.66449   0.49553   0.50008   0.00000  Uiso   1.00
C728   C     0.83564   0.50386   0.49962   0.00000  Uiso   1.00
C729   C     0.91228   0.55254   0.53214   0.00000  Uiso   1.00
C730   C     0.58779   0.45424   0.45927   0.00000  Uiso   1.00
C731   C     0.88436   0.50908   0.49733   0.00000  Uiso   1.00
C732   C     0.61601   0.49355   0.50030   0.00000  Uiso   1.00
C733   C     0.90211   0.47031   0.45589   0.00000  Uiso   1.00
C734   C     0.59855   0.53564   0.53719   0.00000  Uiso   1.00
C735   C     0.94808   0.46910   0.45290   0.00000  Uiso   1.00
C736   C     0.55319   0.54320   0.53080   0.00000  Uiso   1.00
C737   C     0.97722   0.50883   0.49119   0.00000  Uiso   1.00
C738   C     0.52388   0.50439   0.49181   0.00000  Uiso   1.00
C739   C     0.95983   0.55330   0.52755   0.00000  Uiso   1.00
C740   C     0.54121   0.46141   0.45302   0.00000  Uiso   1.00
C741   C     0.96516   0.42963   0.41005   0.00000  Uiso   1.00
C742   C     0.53722   0.59093   0.55890   0.00000  Uiso   1.00
Cu743  Cu    0.75500   0.50579   0.56146   0.00000  Uiso   1.00
Cu744  Cu    0.74499   0.49421   0.43854   0.00000  Uiso   1.00
H745   H     0.87934   0.43989   0.42686   0.00000  Uiso   1.00
H746   H     0.62119   0.56354   0.56976   0.00000  Uiso   1.00
H747   H     0.74762   0.65454   0.42946   0.00000  Uiso   1.00
H748   H     0.74929   0.34519   0.57057   0.00000  Uiso   1.00
H749   H     0.71498   0.45904   0.64984   0.00000  Uiso   1.00
H750   H     0.78503   0.54095   0.35015   0.00000  Uiso   1.00
N751   N     0.73744   0.48547   0.34617   0.00000  Uiso   1.00
N752   N     0.76255   0.51453   0.65383   0.00000  Uiso   1.00
O753   O     0.75325   0.42871   0.53992   0.00000  Uiso   1.00
O754   O     0.74674   0.57129   0.46008   0.00000  Uiso   1.00
O755   O     0.74480   0.41892   0.43612   0.00000  Uiso   1.00
O756   O     0.75520   0.58108   0.56388   0.00000  Uiso   1.00
O757   O     0.68935   0.50488   0.55191   0.00000  Uiso   1.00
O758   O     0.81064   0.49512   0.44809   0.00000  Uiso   1.00
O759   O     0.68090   0.49510   0.44810   0.00000  Uiso   1.00
O760   O     0.81910   0.50490   0.55190   0.00000  Uiso   1.00
C761   C     0.89041   0.59690   0.57186   0.00000  Uiso   1.00
C762   C     0.86897   0.63183   0.53251   0.00000  Uiso   1.00
C763   C     0.85845   0.35101   0.57092   0.00000  Uiso   1.00
H764   H     0.83580   0.34491   0.60638   0.00000  Uiso   1.00
H765   H     0.88983   0.37373   0.59328   0.00000  Uiso   1.00
H766   H     0.84188   0.37419   0.54086   0.00000  Uiso   1.00
H767   H     0.89129   0.63912   0.49753   0.00000  Uiso   1.00
H768   H     0.83775   0.61126   0.50712   0.00000  Uiso   1.00
H769   H     0.86470   0.58172   0.59817   0.00000  Uiso   1.00
H770   H     0.91420   0.61954   0.60868   0.00000  Uiso   1.00
C771   C     0.60444   0.39957   0.44028   0.00000  Uiso   1.00
C772   C     0.62817   0.38846   0.38074   0.00000  Uiso   1.00
C773   C     0.64153   0.66541   0.36725   0.00000  Uiso   1.00
H774   H     0.66359   0.65833   0.40605   0.00000  Uiso   1.00
H775   H     0.61135   0.63731   0.36014   0.00000  Uiso   1.00
H776   H     0.66007   0.65818   0.65883   0.00000  Uiso   1.00
H777   H     0.60659   0.39464   0.34136   0.00000  Uiso   1.00
H778   H     0.65906   0.41430   0.38423   0.00000  Uiso   1.00
H779   H     0.62807   0.39303   0.47793   0.00000  Uiso   1.00
H780   H     0.57591   0.36955   0.43647   0.00000  Uiso   1.00
O781   O     0.93668   0.39653   0.36514   0.00000  Uiso   1.00
C782   C     0.92239   0.35235   0.38756   0.00000  Uiso   1.00
H783   H     0.91452   0.36233   0.43618   0.00000  Uiso   1.00
H784   H     0.94790   0.65649   0.38103   0.00000  Uiso   1.00
H785   H     0.89052   0.33436   0.36150   0.00000  Uiso   1.00
O786   O     0.56618   0.63349   0.58895   0.00000  Uiso   1.00
C787   C     0.59213   0.65308   0.54686   0.00000  Uiso   1.00
H788   H     0.62748   0.64383   0.55286   0.00000  Uiso   1.00
H789   H     0.59278   0.36297   0.55744   0.00000  Uiso   1.00
H790   H     0.57946   0.63867   0.49778   0.00000  Uiso   1.00
O791   O     0.52703   0.40162   0.35373   0.00000  Uiso   1.00
C792   C     0.52913   0.43610   0.64623   0.00000  Uiso   1.00
H793   H     0.55084   0.47265   0.66639   0.00000  Uiso   1.00
H794   H     0.99507   0.44585   0.63146   0.00000  Uiso   1.00
H795   H     0.54432   0.41690   0.60477   0.00000  Uiso   1.00
O796   O     0.97768   0.64680   0.57431   0.00000  Uiso   1.00
C797   C     0.97900   0.33930   0.52504   0.00000  Uiso   1.00
H798   H     0.96597   0.64667   0.48056   0.00000  Uiso   1.00
H799   H     0.51342   0.35488   0.52066   0.00000  Uiso   1.00
H800   H     0.95827   0.37322   0.53422   0.00000  Uiso   1.00
C801   C     0.24855   0.73337   0.48466   0.00000  Uiso   1.00
C802   C     0.24978   0.93315   0.51538   0.00000  Uiso   1.00
C803   C     0.01148   0.76207   0.40684   0.00000  Uiso   1.00
C804   C     0.49101   0.93016   0.55528   0.00000  Uiso   1.00
C805   C     0.24812   0.67759   0.47600   0.00000  Uiso   1.00
C806   C     0.24871   0.98880   0.52403   0.00000  Uiso   1.00
C807   C     0.16449   0.82887   0.50008   0.00000  Uiso   1.00
C808   C     0.33564   0.83719   0.49962   0.00000  Uiso   1.00
C809   C     0.41228   0.88587   0.53214   0.00000  Uiso   1.00
C810   C     0.08779   0.78757   0.45927   0.00000  Uiso   1.00
C811   C     0.38436   0.84242   0.49733   0.00000  Uiso   1.00
C812   C     0.11601   0.82689   0.50030   0.00000  Uiso   1.00
C813   C     0.40211   0.80364   0.45589   0.00000  Uiso   1.00
C814   C     0.09855   0.86897   0.53719   0.00000  Uiso   1.00
C815   C     0.44808   0.80243   0.45290   0.00000  Uiso   1.00
C816   C     0.05319   0.87653   0.53080   0.00000  Uiso   1.00
C817   C     0.47722   0.84216   0.49119   0.00000  Uiso   1.00
C818   C     0.02388   0.83772   0.49181   0.00000  Uiso   1.00
C819   C     0.45983   0.88663   0.52755   0.00000  Uiso   1.00
C820   C     0.04121   0.79474   0.45302   0.00000  Uiso   1.00
C821   C     0.46516   0.76296   0.41005   0.00000  Uiso   1.00
C822   C     0.03722   0.92426   0.55890   0.00000  Uiso   1.00
Cu823  Cu    0.25500   0.83913   0.56146   0.00000  Uiso   1.00
Cu824  Cu    0.24499   0.82754   0.43854   0.00000  Uiso   1.00
H825   H     0.37934   0.77323   0.42686   0.00000  Uiso   1.00
H826   H     0.12119   0.89687   0.56976   0.00000  Uiso   1.00
H827   H     0.24762   0.98788   0.42946   0.00000  Uiso   1.00
H828   H     0.24929   0.67852   0.57057   0.00000  Uiso   1.00
H829   H     0.21498   0.79237   0.64984   0.00000  Uiso   1.00
H830   H     0.28503   0.87429   0.35015   0.00000  Uiso   1.00
N831   N     0.23744   0.81881   0.34617   0.00000  Uiso   1.00
N832   N     0.26255   0.84786   0.65383   0.00000  Uiso   1.00
O833   O     0.25325   0.76204   0.53992   0.00000  Uiso   1.00
O834   O     0.24674   0.90462   0.46008   0.00000  Uiso   1.00
O835   O     0.24480   0.75226   0.43612   0.00000  Uiso   1.00
O836   O     0.25520   0.91441   0.56388   0.00000  Uiso   1.00
O837   O     0.18935   0.83821   0.55191   0.00000  Uiso   1.00
O838   O     0.31064   0.82845   0.44809   0.00000  Uiso   1.00
O839   O     0.18090   0.82843   0.44810   0.00000  Uiso   1.00
O840   O     0.31910   0.83824   0.55190   0.00000  Uiso   1.00
C841   C     0.39041   0.93024   0.57186   0.00000  Uiso   1.00
C842   C     0.36897   0.96517   0.53251   0.00000  Uiso   1.00
C843   C     0.35845   0.68434   0.57092   0.00000  Uiso   1.00
H844   H     0.33580   0.67824   0.60638   0.00000  Uiso   1.00
H845   H     0.38983   0.70707   0.59328   0.00000  Uiso   1.00
H846   H     0.34188   0.70753   0.54086   0.00000  Uiso   1.00
H847   H     0.39129   0.97246   0.49753   0.00000  Uiso   1.00
H848   H     0.33775   0.94459   0.50712   0.00000  Uiso   1.00
H849   H     0.36470   0.91505   0.59817   0.00000  Uiso   1.00
H850   H     0.41420   0.95287   0.60868   0.00000  Uiso   1.00
C851   C     0.10444   0.73290   0.44028   0.00000  Uiso   1.00
C852   C     0.12817   0.72179   0.38074   0.00000  Uiso   1.00
C853   C     0.14153   0.99874   0.36725   0.00000  Uiso   1.00
H854   H     0.16359   0.99166   0.40605   0.00000  Uiso   1.00
H855   H     0.11135   0.97064   0.36014   0.00000  Uiso   1.00
H856   H     0.16007   0.99151   0.65883   0.00000  Uiso   1.00
H857   H     0.10659   0.72798   0.34136   0.00000  Uiso   1.00
H858   H     0.15906   0.74763   0.38423   0.00000  Uiso   1.00
H859   H     0.12807   0.72637   0.47793   0.00000  Uiso   1.00
H860   H     0.07591   0.70288   0.43647   0.00000  Uiso   1.00
O861   O     0.43668   0.72986   0.36514   0.00000  Uiso   1.00
C862   C     0.42239   0.68568   0.38756   0.00000  Uiso   1.00
H863   H     0.41452   0.69566   0.43618   0.00000  Uiso   1.00
H864   H     0.44790   0.98983   0.38103   0.00000  Uiso   1.00
H865   H     0.39052   0.66770   0.36150   0.00000  Uiso   1.00
O866   O     0.06618   0.96682   0.58895   0.00000  Uiso   1.00
C867   C     0.09213   0.98641   0.54686   0.00000  Uiso   1.00
H868   H     0.12748   0.97716   0.55286   0.00000  Uiso   1.00
H869   H     0.09278   0.69630   0.55744   0.00000  Uiso   1.00
H870   H     0.07946   0.97200   0.49778   0.00000  Uiso   1.00
O871   O     0.02703   0.73495   0.35373   0.00000  Uiso   1.00
C872   C     0.02913   0.76943   0.64623   0.00000  Uiso   1.00
H873   H     0.05084   0.80598   0.66639   0.00000  Uiso   1.00
H874   H     0.49507   0.77918   0.63146   0.00000  Uiso   1.00
H875   H     0.04432   0.75024   0.60477   0.00000  Uiso   1.00
O876   O     0.47768   0.98013   0.57431   0.00000  Uiso   1.00
C877   C     0.47900   0.67263   0.52504   0.00000  Uiso   1.00
H878   H     0.46597   0.98000   0.48056   0.00000  Uiso   1.00
H879   H     0.01342   0.68822   0.52066   0.00000  Uiso   1.00
H880   H     0.45827   0.70655   0.53422   0.00000  Uiso   1.00
C881   C     0.74855   0.73337   0.48466   0.00000  Uiso   1.00
C882   C     0.74978   0.93315   0.51538   0.00000  Uiso   1.00
C883   C     0.51148   0.76207   0.40684   0.00000  Uiso   1.00
C884   C     0.99101   0.93016   0.55528   0.00000  Uiso   1.00
C885   C     0.74812   0.67759   0.47600   0.00000  Uiso   1.00
C886   C     0.74871   0.98880   0.52403   0.00000  Uiso   1.00
C887   C     0.66449   0.82887   0.50008   0.00000  Uiso   1.00
C888   C     0.83564   0.83719   0.49962   0.00000  Uiso   1.00
C889   C     0.91228   0.88587   0.53214   0.00000  Uiso   1.00
C890   C     0.58779   0.78757   0.45927   0.00000  Uiso   1.00
C891   C     0.88436   0.84242   0.49733   0.00000  Uiso   1.00
C892   C     0.61601   0.82689   0.50030   0.00000  Uiso   1.00
C893   C     0.90211   0.80364   0.45589   0.00000  Uiso   1.00
C894   C     0.59855   0.86897   0.53719   0.00000  Uiso   1.00
C895   C     0.94808   0.80243   0.45290   0.00000  Uiso   1.00
C896   C     0.55319   0.87653   0.53080   0.00000  Uiso   1.00
C897   C     0.97722   0.84216   0.49119   0.00000  Uiso   1.00
C898   C     0.52388   0.83772   0.49181   0.00000  Uiso   1.00
C899   C     0.95983   0.88663   0.52755   0.00000  Uiso   1.00
C900   C     0.54121   0.79474   0.45302   0.00000  Uiso   1.00
C901   C     0.96516   0.76296   0.41005   0.00000  Uiso   1.00
C902   C     0.53722   0.92426   0.55890   0.00000  Uiso   1.00
Cu903  Cu    0.75500   0.83913   0.56146   0.00000  Uiso   1.00
Cu904  Cu    0.74499   0.82754   0.43854   0.00000  Uiso   1.00
H905   H     0.87934   0.77323   0.42686   0.00000  Uiso   1.00
H906   H     0.62119   0.89687   0.56976   0.00000  Uiso   1.00
H907   H     0.74762   0.98788   0.42946   0.00000  Uiso   1.00
H908   H     0.74929   0.67852   0.57057   0.00000  Uiso   1.00
H909   H     0.71498   0.79237   0.64984   0.00000  Uiso   1.00
H910   H     0.78503   0.87429   0.35015   0.00000  Uiso   1.00
N911   N     0.73744   0.81881   0.34617   0.00000  Uiso   1.00
N912   N     0.76255   0.84786   0.65383   0.00000  Uiso   1.00
O913   O     0.75325   0.76204   0.53992   0.00000  Uiso   1.00
O914   O     0.74674   0.90462   0.46008   0.00000  Uiso   1.00
O915   O     0.74480   0.75226   0.43612   0.00000  Uiso   1.00
O916   O     0.75520   0.91441   0.56388   0.00000  Uiso   1.00
O917   O     0.68935   0.83821   0.55191   0.00000  Uiso   1.00
O918   O     0.81064   0.82845   0.44809   0.00000  Uiso   1.00
O919   O     0.68090   0.82843   0.44810   0.00000  Uiso   1.00
O920   O     0.81910   0.83824   0.55190   0.00000  Uiso   1.00
C921   C     0.89041   0.93024   0.57186   0.00000  Uiso   1.00
C922   C     0.86897   0.96517   0.53251   0.00000  Uiso   1.00
C923   C     0.85845   0.68434   0.57092   0.00000  Uiso   1.00
H924   H     0.83580   0.67824   0.60638   0.00000  Uiso   1.00
H925   H     0.88983   0.70707   0.59328   0.00000  Uiso   1.00
H926   H     0.84188   0.70753   0.54086   0.00000  Uiso   1.00
H927   H     0.89129   0.97246   0.49753   0.00000  Uiso   1.00
H928   H     0.83775   0.94459   0.50712   0.00000  Uiso   1.00
H929   H     0.86470   0.91505   0.59817   0.00000  Uiso   1.00
H930   H     0.91420   0.95287   0.60868   0.00000  Uiso   1.00
C931   C     0.60444   0.73290   0.44028   0.00000  Uiso   1.00
C932   C     0.62817   0.72179   0.38074   0.00000  Uiso   1.00
C933   C     0.64153   0.99874   0.36725   0.00000  Uiso   1.00
H934   H     0.66359   0.99166   0.40605   0.00000  Uiso   1.00
H935   H     0.61135   0.97064   0.36014   0.00000  Uiso   1.00
H936   H     0.66007   0.99151   0.65883   0.00000  Uiso   1.00
H937   H     0.60659   0.72798   0.34136   0.00000  Uiso   1.00
H938   H     0.65906   0.74763   0.38423   0.00000  Uiso   1.00
H939   H     0.62807   0.72637   0.47793   0.00000  Uiso   1.00
H940   H     0.57591   0.70288   0.43647   0.00000  Uiso   1.00
O941   O     0.93668   0.72986   0.36514   0.00000  Uiso   1.00
C942   C     0.92239   0.68568   0.38756   0.00000  Uiso   1.00
H943   H     0.91452   0.69566   0.43618   0.00000  Uiso   1.00
H944   H     0.94790   0.98983   0.38103   0.00000  Uiso   1.00
H945   H     0.89052   0.66770   0.36150   0.00000  Uiso   1.00
O946   O     0.56618   0.96682   0.58895   0.00000  Uiso   1.00
C947   C     0.59213   0.98641   0.54686   0.00000  Uiso   1.00
H948   H     0.62748   0.97716   0.55286   0.00000  Uiso   1.00
H949   H     0.59278   0.69630   0.55744   0.00000  Uiso   1.00
H950   H     0.57946   0.97200   0.49778   0.00000  Uiso   1.00
O951   O     0.52703   0.73495   0.35373   0.00000  Uiso   1.00
C952   C     0.52913   0.76943   0.64623   0.00000  Uiso   1.00
H953   H     0.55084   0.80598   0.66639   0.00000  Uiso   1.00
H954   H     0.99507   0.77918   0.63146   0.00000  Uiso   1.00
H955   H     0.54432   0.75024   0.60477   0.00000  Uiso   1.00
O956   O     0.97768   0.98013   0.57431   0.00000  Uiso   1.00
C957   C     0.97900   0.67263   0.52504   0.00000  Uiso   1.00
H958   H     0.96597   0.98000   0.48056   0.00000  Uiso   1.00
H959   H     0.51342   0.68822   0.52066   0.00000  Uiso   1.00
H960   H     0.95827   0.70655   0.53422   0.00000  Uiso   1.00
C961   C     0.24855   0.06670   0.81800   0.00000  Uiso   1.00
C962   C     0.24978   0.26648   0.84872   0.00000  Uiso   1.00
C963   C     0.01148   0.09540   0.74017   0.00000  Uiso   1.00
C964   C     0.49101   0.26350   0.88861   0.00000  Uiso   1.00
C965   C     0.24812   0.01092   0.80933   0.00000  Uiso   1.00
C966   C     0.24871   0.32213   0.85736   0.00000  Uiso   1.00
C967   C     0.16449   0.16220   0.83342   0.00000  Uiso   1.00
C968   C     0.33564   0.17052   0.83295   0.00000  Uiso   1.00
C969   C     0.41228   0.21921   0.86547   0.00000  Uiso   1.00
C970   C     0.08779   0.12090   0.79260   0.00000  Uiso   1.00
C971   C     0.38436   0.17575   0.83066   0.00000  Uiso   1.00
C972   C     0.11601   0.16022   0.83364   0.00000  Uiso   1.00
C973   C     0.40211   0.13698   0.78922   0.00000  Uiso   1.00
C974   C     0.09855   0.20230   0.87053   0.00000  Uiso   1.00
C975   C     0.44808   0.13576   0.78624   0.00000  Uiso   1.00
C976   C     0.05319   0.20986   0.86413   0.00000  Uiso   1.00
C977   C     0.47722   0.17550   0.82452   0.00000  Uiso   1.00
C978   C     0.02388   0.17106   0.82514   0.00000  Uiso   1.00
C979   C     0.45983   0.21996   0.86088   0.00000  Uiso   1.00
C980   C     0.04121   0.12807   0.78635   0.00000  Uiso   1.00
C981   C     0.46516   0.09630   0.74338   0.00000  Uiso   1.00
C982   C     0.03722   0.25759   0.89223   0.00000  Uiso   1.00
Cu983  Cu    0.25500   0.17246   0.89479   0.00000  Uiso   1.00
Cu984  Cu    0.24499   0.16087   0.77187   0.00000  Uiso   1.00
H985   H     0.37934   0.10656   0.76019   0.00000  Uiso   1.00
H986   H     0.12119   0.23020   0.90309   0.00000  Uiso   1.00
H987   H     0.24762   0.32121   0.76280   0.00000  Uiso   1.00
H988   H     0.24929   0.01185   0.90390   0.00000  Uiso   1.00
H989   H     0.21498   0.12570   0.98317   0.00000  Uiso   1.00
H990   H     0.28503   0.20762   0.68349   0.00000  Uiso   1.00
N991   N     0.23744   0.15214   0.67951   0.00000  Uiso   1.00
N992   N     0.26255   0.18119   0.98716   0.00000  Uiso   1.00
O993   O     0.25325   0.09538   0.87326   0.00000  Uiso   1.00
O994   O     0.24674   0.23796   0.79341   0.00000  Uiso   1.00
O995   O     0.24480   0.08559   0.76945   0.00000  Uiso   1.00
O996   O     0.25520   0.24774   0.89721   0.00000  Uiso   1.00
O997   O     0.18935   0.17155   0.88524   0.00000  Uiso   1.00
O998   O     0.31064   0.16179   0.78143   0.00000  Uiso   1.00
O999   O     0.18090   0.16176   0.78143   0.00000  Uiso   1.00
O1000  O     0.31910   0.17157   0.88523   0.00000  Uiso   1.00
C1001  C     0.39041   0.26357   0.90519   0.00000  Uiso   1.00
C1002  C     0.36897   0.29850   0.86584   0.00000  Uiso   1.00
C1003  C     0.35845   0.01768   0.90426   0.00000  Uiso   1.00
H1004  H     0.33580   0.01157   0.93971   0.00000  Uiso   1.00
H1005  H     0.38983   0.04040   0.92661   0.00000  Uiso   1.00
H1006  H     0.34188   0.04086   0.87420   0.00000  Uiso   1.00
H1007  H     0.39129   0.30579   0.83087   0.00000  Uiso   1.00
H1008  H     0.33775   0.27793   0.84045   0.00000  Uiso   1.00
H1009  H     0.36470   0.24839   0.93151   0.00000  Uiso   1.00
H1010  H     0.41420   0.28620   0.94201   0.00000  Uiso   1.00
C1011  C     0.10444   0.06623   0.77361   0.00000  Uiso   1.00
C1012  C     0.12817   0.05512   0.71408   0.00000  Uiso   1.00
C1013  C     0.14153   0.33207   0.70058   0.00000  Uiso   1.00
H1014  H     0.16359   0.32500   0.73938   0.00000  Uiso   1.00
H1015  H     0.11135   0.30397   0.69348   0.00000  Uiso   1.00
H1016  H     0.16007   0.32484   0.99216   0.00000  Uiso   1.00
H1017  H     0.10659   0.06131   0.67469   0.00000  Uiso   1.00
H1018  H     0.15906   0.08096   0.71757   0.00000  Uiso   1.00
H1019  H     0.12807   0.05970   0.81126   0.00000  Uiso   1.00
H1020  H     0.07591   0.03621   0.76981   0.00000  Uiso   1.00
O1021  O     0.43668   0.06319   0.69848   0.00000  Uiso   1.00
C1022  C     0.42239   0.01902   0.72089   0.00000  Uiso   1.00
H1023  H     0.41452   0.02899   0.76951   0.00000  Uiso   1.00
H1024  H     0.44790   0.32316   0.71436   0.00000  Uiso   1.00
H1025  H     0.39052   0.00103   0.69483   0.00000  Uiso   1.00
O1026  O     0.06618   0.30016   0.92229   0.00000  Uiso   1.00
C1027  C     0.09213   0.31975   0.88020   0.00000  Uiso   1.00
H1028  H     0.12748   0.31049   0.88620   0.00000  Uiso   1.00
H1029  H     0.09278   0.02964   0.89078   0.00000  Uiso   1.00
H1030  H     0.07946   0.30533   0.83111   0.00000  Uiso   1.00
O1031  O     0.02703   0.06828   0.68706   0.00000  Uiso   1.00
C1032  C     0.02913   0.10276   0.97956   0.00000  Uiso   1.00
H1033  H     0.05084   0.13932   0.99972   0.00000  Uiso   1.00
H1034  H     0.49507   0.11252   0.96480   0.00000  Uiso   1.00
H1035  H     0.04432   0.08357   0.93810   0.00000  Uiso   1.00
O1036  O     0.47768   0.31347   0.90765   0.00000  Uiso   1.00
C1037  C     0.47900   0.00596   0.85838   0.00000  Uiso   1.00
H1038  H     0.46597   0.31333   0.81390   0.00000  Uiso   1.00
H1039  H     0.01342   0.02155   0.85399   0.00000  Uiso   1.00
H1040  H     0.45827   0.03989   0.86756   0.00000  Uiso   1.00
C1041  C     0.74855   0.06670   0.81800   0.00000  Uiso   1.00
C1042  C     0.74978   0.26648   0.84872   0.00000  Uiso   1.00
C1043  C     0.51148   0.09540   0.74017   0.00000  Uiso   1.00
C1044  C     0.99101   0.26350   0.88861   0.00000  Uiso   1.00
C1045  C     0.74812   0.01092   0.80933   0.00000  Uiso   1.00
C1046  C     0.74871   0.32213   0.85736   0.00000  Uiso   1.00
C1047  C     0.66449   0.16220   0.83342   0.00000  Uiso   1.00
C1048  C     0.83564   0.17052   0.83295   0.00000  Uiso   1.00
C1049  C     0.91228   0.21921   0.86547   0.00000  Uiso   1.00
C1050  C     0.58779   0.12090   0.79260   0.00000  Uiso   1.00
C1051  C     0.88436   0.17575   0.83066   0.00000  Uiso   1.00
C1052  C     0.61601   0.16022   0.83364   0.00000  Uiso   1.00
C1053  C     0.90211   0.13698   0.78922   0.00000  Uiso   1.00
C1054  C     0.59855   0.20230   0.87053   0.00000  Uiso   1.00
C1055  C     0.94808   0.13576   0.78624   0.00000  Uiso   1.00
C1056  C     0.55319   0.20986   0.86413   0.00000  Uiso   1.00
C1057  C     0.97722   0.17550   0.82452   0.00000  Uiso   1.00
C1058  C     0.52388   0.17106   0.82514   0.00000  Uiso   1.00
C1059  C     0.95983   0.21996   0.86088   0.00000  Uiso   1.00
C1060  C     0.54121   0.12807   0.78635   0.00000  Uiso   1.00
C1061  C     0.96516   0.09630   0.74338   0.00000  Uiso   1.00
C1062  C     0.53722   0.25759   0.89223   0.00000  Uiso   1.00
Cu1063 Cu    0.75500   0.17246   0.89479   0.00000  Uiso   1.00
Cu1064 Cu    0.74499   0.16087   0.77187   0.00000  Uiso   1.00
H1065  H     0.87934   0.10656   0.76019   0.00000  Uiso   1.00
H1066  H     0.62119   0.23020   0.90309   0.00000  Uiso   1.00
H1067  H     0.74762   0.32121   0.76280   0.00000  Uiso   1.00
H1068  H     0.74929   0.01185   0.90390   0.00000  Uiso   1.00
H1069  H     0.71498   0.12570   0.98317   0.00000  Uiso   1.00
H1070  H     0.78503   0.20762   0.68349   0.00000  Uiso   1.00
N1071  N     0.73744   0.15214   0.67951   0.00000  Uiso   1.00
N1072  N     0.76255   0.18119   0.98716   0.00000  Uiso   1.00
O1073  O     0.75325   0.09538   0.87326   0.00000  Uiso   1.00
O1074  O     0.74674   0.23796   0.79341   0.00000  Uiso   1.00
O1075  O     0.74480   0.08559   0.76945   0.00000  Uiso   1.00
O1076  O     0.75520   0.24774   0.89721   0.00000  Uiso   1.00
O1077  O     0.68935   0.17155   0.88524   0.00000  Uiso   1.00
O1078  O     0.81064   0.16179   0.78143   0.00000  Uiso   1.00
O1079  O     0.68090   0.16176   0.78143   0.00000  Uiso   1.00
O1080  O     0.81910   0.17157   0.88523   0.00000  Uiso   1.00
C1081  C     0.89041   0.26357   0.90519   0.00000  Uiso   1.00
C1082  C     0.86897   0.29850   0.86584   0.00000  Uiso   1.00
C1083  C     0.85845   0.01768   0.90426   0.00000  Uiso   1.00
H1084  H     0.83580   0.01157   0.93971   0.00000  Uiso   1.00
H1085  H     0.88983   0.04040   0.92661   0.00000  Uiso   1.00
H1086  H     0.84188   0.04086   0.87420   0.00000  Uiso   1.00
H1087  H     0.89129   0.30579   0.83087   0.00000  Uiso   1.00
H1088  H     0.83775   0.27793   0.84045   0.00000  Uiso   1.00
H1089  H     0.86470   0.24839   0.93151   0.00000  Uiso   1.00
H1090  H     0.91420   0.28620   0.94201   0.00000  Uiso   1.00
C1091  C     0.60444   0.06623   0.77361   0.00000  Uiso   1.00
C1092  C     0.62817   0.05512   0.71408   0.00000  Uiso   1.00
C1093  C     0.64153   0.33207   0.70058   0.00000  Uiso   1.00
H1094  H     0.66359   0.32500   0.73938   0.00000  Uiso   1.00
H1095  H     0.61135   0.30397   0.69348   0.00000  Uiso   1.00
H1096  H     0.66007   0.32484   0.99216   0.00000  Uiso   1.00
H1097  H     0.60659   0.06131   0.67469   0.00000  Uiso   1.00
H1098  H     0.65906   0.08096   0.71757   0.00000  Uiso   1.00
H1099  H     0.62807   0.05970   0.81126   0.00000  Uiso   1.00
H1100  H     0.57591   0.03621   0.76981   0.00000  Uiso   1.00
O1101  O     0.93668   0.06319   0.69848   0.00000  Uiso   1.00
C1102  C     0.92239   0.01902   0.72089   0.00000  Uiso   1.00
H1103  H     0.91452   0.02899   0.76951   0.00000  Uiso   1.00
H1104  H     0.94790   0.32316   0.71436   0.00000  Uiso   1.00
H1105  H     0.89052   0.00103   0.69483   0.00000  Uiso   1.00
O1106  O     0.56618   0.30016   0.92229   0.00000  Uiso   1.00
C1107  C     0.59213   0.31975   0.88020   0.00000  Uiso   1.00
H1108  H     0.62748   0.31049   0.88620   0.00000  Uiso   1.00
H1109  H     0.59278   0.02964   0.89078   0.00000  Uiso   1.00
H1110  H     0.57946   0.30533   0.83111   0.00000  Uiso   1.00
O1111  O     0.52703   0.06828   0.68706   0.00000  Uiso   1.00
C1112  C     0.52913   0.10276   0.97956   0.00000  Uiso   1.00
H1113  H     0.55084   0.13932   0.99972   0.00000  Uiso   1.00
H1114  H     0.99507   0.11252   0.96480   0.00000  Uiso   1.00
H1115  H     0.54432   0.08357   0.93810   0.00000  Uiso   1.00
O1116  O     0.97768   0.31347   0.90765   0.00000  Uiso   1.00
C1117  C     0.97900   0.00596   0.85838   0.00000  Uiso   1.00
H1118  H     0.96597   0.31333   0.81390   0.00000  Uiso   1.00
H1119  H     0.51342   0.02155   0.85399   0.00000  Uiso   1.00
H1120  H     0.95827   0.03989   0.86756   0.00000  Uiso   1.00
C1121  C     0.24855   0.40003   0.81800   0.00000  Uiso   1.00
C1122  C     0.24978   0.59981   0.84872   0.00000  Uiso   1.00
C1123  C     0.01148   0.42873   0.74017   0.00000  Uiso   1.00
C1124  C     0.49101   0.59683   0.88861   0.00000  Uiso   1.00
C1125  C     0.24812   0.34426   0.80933   0.00000  Uiso   1.00
C1126  C     0.24871   0.65546   0.85736   0.00000  Uiso   1.00
C1127  C     0.16449   0.49553   0.83342   0.00000  Uiso   1.00
C1128  C     0.33564   0.50386   0.83295   0.00000  Uiso   1.00
C1129  C     0.41228   0.55254   0.86547   0.00000  Uiso   1.00
C1130  C     0.08779   0.45424   0.79260   0.00000  Uiso   1.00
C1131  C     0.38436   0.50908   0.83066   0.00000  Uiso   1.00
C1132  C     0.11601   0.49355   0.83364   0.00000  Uiso   1.00
C1133  C     0.40211   0.47031   0.78922   0.00000  Uiso   1.00
C1134  C     0.09855   0.53564   0.87053   0.00000  Uiso   1.00
C1135  C     0.44808   0.46910   0.78624   0.00000  Uiso   1.00
C1136  C     0.05319   0.54320   0.86413   0.00000  Uiso   1.00
C1137  C     0.47722   0.50883   0.82452   0.00000  Uiso   1.00
C1138  C     0.02388   0.50439   0.82514   0.00000  Uiso   1.00
C1139  C     0.45983   0.55330   0.86088   0.00000  Uiso   1.00
C1140  C     0.04121   0.46141   0.78635   0.00000  Uiso   1.00
C1141  C     0.46516   0.42963   0.74338   0.00000  Uiso   1.00
C1142  C     0.03722   0.59093   0.89223   0.00000  Uiso   1.00
Cu1143 Cu    0.25500   0.50579   0.89479   0.00000  Uiso   1.00
Cu1144 Cu    0.24499   0.49421   0.77187   0.00000  Uiso   1.00
H1145  H     0.37934   0.43989   0.76019   0.00000  Uiso   1.00
H1146  H     0.12119   0.56354   0.90309   0.00000  Uiso   1.00
H1147  H     0.24762   0.65454   0.76280   0.00000  Uiso   1.00
H1148  H     0.24929   0.34519   0.90390   0.00000  Uiso   1.00
H1149  H     0.21498   0.45904   0.98317   0.00000  Uiso   1.00
H1150  H     0.28503   0.54095   0.68349   0.00000  Uiso   1.00
N1151  N     0.23744   0.48547   0.67951   0.00000  Uiso   1.00
N1152  N     0.26255   0.51453   0.98716   0.00000  Uiso   1.00
O1153  O     0.25325   0.42871   0.87326   0.00000  Uiso   1.00
O1154  O     0.24674   0.57129   0.79341   0.00000  Uiso   1.00
O1155  O     0.24480   0.41892   0.76945   0.00000  Uiso   1.00
O1156  O     0.25520   0.58108   0.89721   0.00000  Uiso   1.00
O1157  O     0.18935   0.50488   0.88524   0.00000  Uiso   1.00
O1158  O     0.31064   0.49512   0.78143   0.00000  Uiso   1.00
O1159  O     0.18090   0.49510   0.78143   0.00000  Uiso   1.00
O1160  O     0.31910   0.50490   0.88523   0.00000  Uiso   1.00
C1161  C     0.39041   0.59690   0.90519   0.00000  Uiso   1.00
C1162  C     0.36897   0.63183   0.86584   0.00000  Uiso   1.00
C1163  C     0.35845   0.35101   0.90426   0.00000  Uiso   1.00
H1164  H     0.33580   0.34491   0.93971   0.00000  Uiso   1.00
H1165  H     0.38983   0.37373   0.92661   0.00000  Uiso   1.00
H1166  H     0.34188   0.37419   0.87420   0.00000  Uiso   1.00
H1167  H     0.39129   0.63912   0.83087   0.00000  Uiso   1.00
H1168  H     0.33775   0.61126   0.84045   0.00000  Uiso   1.00
H1169  H     0.36470   0.58172   0.93151   0.00000  Uiso   1.00
H1170  H     0.41420   0.61954   0.94201   0.00000  Uiso   1.00
C1171  C     0.10444   0.39957   0.77361   0.00000  Uiso   1.00
C1172  C     0.12817   0.38846   0.71408   0.00000  Uiso   1.00
C1173  C     0.14153   0.66541   0.70058   0.00000  Uiso   1.00
H1174  H     0.16359   0.65833   0.73938   0.00000  Uiso   1.00
H1175  H     0.11135   0.63731   0.69348   0.00000  Uiso   1.00
H1176  H     0.16007   0.65818   0.99216   0.00000  Uiso   1.00
H1177  H     0.10659   0.39464   0.67469   0.00000  Uiso   1.00
H1178  H     0.15906   0.41430   0.71757   0.00000  Uiso   1.00
H1179  H     0.12807   0.39303   0.81126   0.00000  Uiso   1.00
H1180  H     0.07591   0.36955   0.76981   0.00000  Uiso   1.00
O1181  O     0.43668   0.39653   0.69848   0.00000  Uiso   1.00
C1182  C     0.42239   0.35235   0.72089   0.00000  Uiso   1.00
H1183  H     0.41452   0.36233   0.76951   0.00000  Uiso   1.00
H1184  H     0.44790   0.65649   0.71436   0.00000  Uiso   1.00
H1185  H     0.39052   0.33436   0.69483   0.00000  Uiso   1.00
O1186  O     0.06618   0.63349   0.92229   0.00000  Uiso   1.00
C1187  C     0.09213   0.65308   0.88020   0.00000  Uiso   1.00
H1188  H     0.12748   0.64383   0.88620   0.00000  Uiso   1.00
H1189  H     0.09278   0.36297   0.89078   0.00000  Uiso   1.00
H1190  H     0.07946   0.63867   0.83111   0.00000  Uiso   1.00
O1191  O     0.02703   0.40162   0.68706   0.00000  Uiso   1.00
C1192  C     0.02913   0.43610   0.97956   0.00000  Uiso   1.00
H1193  H     0.05084   0.47265   0.99972   0.00000  Uiso   1.00
H1194  H     0.49507   0.44585   0.96480   0.00000  Uiso   1.00
H1195  H     0.04432   0.41690   0.93810   0.00000  Uiso   1.00
O1196  O     0.47768   0.64680   0.90765   0.00000  Uiso   1.00
C1197  C     0.47900   0.33930   0.85838   0.00000  Uiso   1.00
H1198  H     0.46597   0.64667   0.81390   0.00000  Uiso   1.00
H1199  H     0.01342   0.35488   0.85399   0.00000  Uiso   1.00
H1200  H     0.45827   0.37322   0.86756   0.00000  Uiso   1.00
C1201  C     0.74855   0.40003   0.81800   0.00000  Uiso   1.00
C1202  C     0.74978   0.59981   0.84872   0.00000  Uiso   1.00
C1203  C     0.51148   0.42873   0.74017   0.00000  Uiso   1.00
C1204  C     0.99101   0.59683   0.88861   0.00000  Uiso   1.00
C1205  C     0.74812   0.34426   0.80933   0.00000  Uiso   1.00
C1206  C     0.74871   0.65546   0.85736   0.00000  Uiso   1.00
C1207  C     0.66449   0.49553   0.83342   0.00000  Uiso   1.00
C1208  C     0.83564   0.50386   0.83295   0.00000  Uiso   1.00
C1209  C     0.91228   0.55254   0.86547   0.00000  Uiso   1.00
C1210  C     0.58779   0.45424   0.79260   0.00000  Uiso   1.00
C1211  C     0.88436   0.50908   0.83066   0.00000  Uiso   1.00
C1212  C     0.61601   0.49355   0.83364   0.00000  Uiso   1.00
C1213  C     0.90211   0.47031   0.78922   0.00000  Uiso   1.00
C1214  C     0.59855   0.53564   0.87053   0.00000  Uiso   1.00
C1215  C     0.94808   0.46910   0.78624   0.00000  Uiso   1.00
C1216  C     0.55319   0.54320   0.86413   0.00000  Uiso   1.00
C1217  C     0.97722   0.50883   0.82452   0.00000  Uiso   1.00
C1218  C     0.52388   0.50439   0.82514   0.00000  Uiso   1.00
C1219  C     0.95983   0.55330   0.86088   0.00000  Uiso   1.00
C1220  C     0.54121   0.46141   0.78635   0.00000  Uiso   1.00
C1221  C     0.96516   0.42963   0.74338   0.00000  Uiso   1.00
C1222  C     0.53722   0.59093   0.89223   0.00000  Uiso   1.00
Cu1223 Cu    0.75500   0.50579   0.89479   0.00000  Uiso   1.00
Cu1224 Cu    0.74499   0.49421   0.77187   0.00000  Uiso   1.00
H1225  H     0.87934   0.43989   0.76019   0.00000  Uiso   1.00
H1226  H     0.62119   0.56354   0.90309   0.00000  Uiso   1.00
H1227  H     0.74762   0.65454   0.76280   0.00000  Uiso   1.00
H1228  H     0.74929   0.34519   0.90390   0.00000  Uiso   1.00
H1229  H     0.71498   0.45904   0.98317   0.00000  Uiso   1.00
H1230  H     0.78503   0.54095   0.68349   0.00000  Uiso   1.00
N1231  N     0.73744   0.48547   0.67951   0.00000  Uiso   1.00
N1232  N     0.76255   0.51453   0.98716   0.00000  Uiso   1.00
O1233  O     0.75325   0.42871   0.87326   0.00000  Uiso   1.00
O1234  O     0.74674   0.57129   0.79341   0.00000  Uiso   1.00
O1235  O     0.74480   0.41892   0.76945   0.00000  Uiso   1.00
O1236  O     0.75520   0.58108   0.89721   0.00000  Uiso   1.00
O1237  O     0.68935   0.50488   0.88524   0.00000  Uiso   1.00
O1238  O     0.81064   0.49512   0.78143   0.00000  Uiso   1.00
O1239  O     0.68090   0.49510   0.78143   0.00000  Uiso   1.00
O1240  O     0.81910   0.50490   0.88523   0.00000  Uiso   1.00
C1241  C     0.89041   0.59690   0.90519   0.00000  Uiso   1.00
C1242  C     0.86897   0.63183   0.86584   0.00000  Uiso   1.00
C1243  C     0.85845   0.35101   0.90426   0.00000  Uiso   1.00
H1244  H     0.83580   0.34491   0.93971   0.00000  Uiso   1.00
H1245  H     0.88983   0.37373   0.92661   0.00000  Uiso   1.00
H1246  H     0.84188   0.37419   0.87420   0.00000  Uiso   1.00
H1247  H     0.89129   0.63912   0.83087   0.00000  Uiso   1.00
H1248  H     0.83775   0.61126   0.84045   0.00000  Uiso   1.00
H1249  H     0.86470   0.58172   0.93151   0.00000  Uiso   1.00
H1250  H     0.91420   0.61954   0.94201   0.00000  Uiso   1.00
C1251  C     0.60444   0.39957   0.77361   0.00000  Uiso   1.00
C1252  C     0.62817   0.38846   0.71408   0.00000  Uiso   1.00
C1253  C     0.64153   0.66541   0.70058   0.00000  Uiso   1.00
H1254  H     0.66359   0.65833   0.73938   0.00000  Uiso   1.00
H1255  H     0.61135   0.63731   0.69348   0.00000  Uiso   1.00
H1256  H     0.66007   0.65818   0.99216   0.00000  Uiso   1.00
H1257  H     0.60659   0.39464   0.67469   0.00000  Uiso   1.00
H1258  H     0.65906   0.41430   0.71757   0.00000  Uiso   1.00
H1259  H     0.62807   0.39303   0.81126   0.00000  Uiso   1.00
H1260  H     0.57591   0.36955   0.76981   0.00000  Uiso   1.00
O1261  O     0.93668   0.39653   0.69848   0.00000  Uiso   1.00
C1262  C     0.92239   0.35235   0.72089   0.00000  Uiso   1.00
H1263  H     0.91452   0.36233   0.76951   0.00000  Uiso   1.00
H1264  H     0.94790   0.65649   0.71436   0.00000  Uiso   1.00
H1265  H     0.89052   0.33436   0.69483   0.00000  Uiso   1.00
O1266  O     0.56618   0.63349   0.92229   0.00000  Uiso   1.00
C1267  C     0.59213   0.65308   0.88020   0.00000  Uiso   1.00
H1268  H     0.62748   0.64383   0.88620   0.00000  Uiso   1.00
H1269  H     0.59278   0.36297   0.89078   0.00000  Uiso   1.00
H1270  H     0.57946   0.63867   0.83111   0.00000  Uiso   1.00
O1271  O     0.52703   0.40162   0.68706   0.00000  Uiso   1.00
C1272  C     0.52913   0.43610   0.97956   0.00000  Uiso   1.00
H1273  H     0.55084   0.47265   0.99972   0.00000  Uiso   1.00
H1274  H     0.99507   0.44585   0.96480   0.00000  Uiso   1.00
H1275  H     0.54432   0.41690   0.93810   0.00000  Uiso   1.00
O1276  O     0.97768   0.64680   0.90765   0.00000  Uiso   1.00
C1277  C     0.97900   0.33930   0.85838   0.00000  Uiso   1.00
H1278  H     0.96597   0.64667   0.81390   0.00000  Uiso   1.00
H1279  H     0.51342   0.35488   0.85399   0.00000  Uiso   1.00
H1280  H     0.95827   0.37322   0.86756   0.00000  Uiso   1.00
C1281  C     0.24855   0.73337   0.81800   0.00000  Uiso   1.00
C1282  C     0.24978   0.93315   0.84872   0.00000  Uiso   1.00
C1283  C     0.01148   0.76207   0.74017   0.00000  Uiso   1.00
C1284  C     0.49101   0.93016   0.88861   0.00000  Uiso   1.00
C1285  C     0.24812   0.67759   0.80933   0.00000  Uiso   1.00
C1286  C     0.24871   0.98880   0.85736   0.00000  Uiso   1.00
C1287  C     0.16449   0.82887   0.83342   0.00000  Uiso   1.00
C1288  C     0.33564   0.83719   0.83295   0.00000  Uiso   1.00
C1289  C     0.41228   0.88587   0.86547   0.00000  Uiso   1.00
C1290  C     0.08779   0.78757   0.79260   0.00000  Uiso   1.00
C1291  C     0.38436   0.84242   0.83066   0.00000  Uiso   1.00
C1292  C     0.11601   0.82689   0.83364   0.00000  Uiso   1.00
C1293  C     0.40211   0.80364   0.78922   0.00000  Uiso   1.00
C1294  C     0.09855   0.86897   0.87053   0.00000  Uiso   1.00
C1295  C     0.44808   0.80243   0.78624   0.00000  Uiso   1.00
C1296  C     0.05319   0.87653   0.86413   0.00000  Uiso   1.00
C1297  C     0.47722   0.84216   0.82452   0.00000  Uiso   1.00
C1298  C     0.02388   0.83772   0.82514   0.00000  Uiso   1.00
C1299  C     0.45983   0.88663   0.86088   0.00000  Uiso   1.00
C1300  C     0.04121   0.79474   0.78635   0.00000  Uiso   1.00
C1301  C     0.46516   0.76296   0.74338   0.00000  Uiso   1.00
C1302  C     0.03722   0.92426   0.89223   0.00000  Uiso   1.00
Cu1303 Cu    0.25500   0.83913   0.89479   0.00000  Uiso   1.00
Cu1304 Cu    0.24499   0.82754   0.77187   0.00000  Uiso   1.00
H1305  H     0.37934   0.77323   0.76019   0.00000  Uiso   1.00
H1306  H     0.12119   0.89687   0.90309   0.00000  Uiso   1.00
H1307  H     0.24762   0.98788   0.76280   0.00000  Uiso   1.00
H1308  H     0.24929   0.67852   0.90390   0.00000  Uiso   1.00
H1309  H     0.21498   0.79237   0.98317   0.00000  Uiso   1.00
H1310  H     0.28503   0.87429   0.68349   0.00000  Uiso   1.00
N1311  N     0.23744   0.81881   0.67951   0.00000  Uiso   1.00
N1312  N     0.26255   0.84786   0.98716   0.00000  Uiso   1.00
O1313  O     0.25325   0.76204   0.87326   0.00000  Uiso   1.00
O1314  O     0.24674   0.90462   0.79341   0.00000  Uiso   1.00
O1315  O     0.24480   0.75226   0.76945   0.00000  Uiso   1.00
O1316  O     0.25520   0.91441   0.89721   0.00000  Uiso   1.00
O1317  O     0.18935   0.83821   0.88524   0.00000  Uiso   1.00
O1318  O     0.31064   0.82845   0.78143   0.00000  Uiso   1.00
O1319  O     0.18090   0.82843   0.78143   0.00000  Uiso   1.00
O1320  O     0.31910   0.83824   0.88523   0.00000  Uiso   1.00
C1321  C     0.39041   0.93024   0.90519   0.00000  Uiso   1.00
C1322  C     0.36897   0.96517   0.86584   0.00000  Uiso   1.00
C1323  C     0.35845   0.68434   0.90426   0.00000  Uiso   1.00
H1324  H     0.33580   0.67824   0.93971   0.00000  Uiso   1.00
H1325  H     0.38983   0.70707   0.92661   0.00000  Uiso   1.00
H1326  H     0.34188   0.70753   0.87420   0.00000  Uiso   1.00
H1327  H     0.39129   0.97246   0.83087   0.00000  Uiso   1.00
H1328  H     0.33775   0.94459   0.84045   0.00000  Uiso   1.00
H1329  H     0.36470   0.91505   0.93151   0.00000  Uiso   1.00
H1330  H     0.41420   0.95287   0.94201   0.00000  Uiso   1.00
C1331  C     0.10444   0.73290   0.77361   0.00000  Uiso   1.00
C1332  C     0.12817   0.72179   0.71408   0.00000  Uiso   1.00
C1333  C     0.14153   0.99874   0.70058   0.00000  Uiso   1.00
H1334  H     0.16359   0.99166   0.73938   0.00000  Uiso   1.00
H1335  H     0.11135   0.97064   0.69348   0.00000  Uiso   1.00
H1336  H     0.16007   0.99151   0.99216   0.00000  Uiso   1.00
H1337  H     0.10659   0.72798   0.67469   0.00000  Uiso   1.00
H1338  H     0.15906   0.74763   0.71757   0.00000  Uiso   1.00
H1339  H     0.12807   0.72637   0.81126   0.00000  Uiso   1.00
H1340  H     0.07591   0.70288   0.76981   0.00000  Uiso   1.00
O1341  O     0.43668   0.72986   0.69848   0.00000  Uiso   1.00
C1342  C     0.42239   0.68568   0.72089   0.00000  Uiso   1.00
H1343  H     0.41452   0.69566   0.76951   0.00000  Uiso   1.00
H1344  H     0.44790   0.98983   0.71436   0.00000  Uiso   1.00
H1345  H     0.39052   0.66770   0.69483   0.00000  Uiso   1.00
O1346  O     0.06618   0.96682   0.92229   0.00000  Uiso   1.00
C1347  C     0.09213   0.98641   0.88020   0.00000  Uiso   1.00
H1348  H     0.12748   0.97716   0.88620   0.00000  Uiso   1.00
H1349  H     0.09278   0.69630   0.89078   0.00000  Uiso   1.00
H1350  H     0.07946   0.97200   0.83111   0.00000  Uiso   1.00
O1351  O     0.02703   0.73495   0.68706   0.00000  Uiso   1.00
C1352  C     0.02913   0.76943   0.97956   0.00000  Uiso   1.00
H1353  H     0.05084   0.80598   0.99972   0.00000  Uiso   1.00
H1354  H     0.49507   0.77918   0.96480   0.00000  Uiso   1.00
H1355  H     0.04432   0.75024   0.93810   0.00000  Uiso   1.00
O1356  O     0.47768   0.98013   0.90765   0.00000  Uiso   1.00
C1357  C     0.47900   0.67263   0.85838   0.00000  Uiso   1.00
H1358  H     0.46597   0.98000   0.81390   0.00000  Uiso   1.00
H1359  H     0.01342   0.68822   0.85399   0.00000  Uiso   1.00
H1360  H     0.45827   0.70655   0.86756   0.00000  Uiso   1.00
C1361  C     0.74855   0.73337   0.81800   0.00000  Uiso   1.00
C1362  C     0.74978   0.93315   0.84872   0.00000  Uiso   1.00
C1363  C     0.51148   0.76207   0.74017   0.00000  Uiso   1.00
C1364  C     0.99101   0.93016   0.88861   0.00000  Uiso   1.00
C1365  C     0.74812   0.67759   0.80933   0.00000  Uiso   1.00
C1366  C     0.74871   0.98880   0.85736   0.00000  Uiso   1.00
C1367  C     0.66449   0.82887   0.83342   0.00000  Uiso   1.00
C1368  C     0.83564   0.83719   0.83295   0.00000  Uiso   1.00
C1369  C     0.91228   0.88587   0.86547   0.00000  Uiso   1.00
C1370  C     0.58779   0.78757   0.79260   0.00000  Uiso   1.00
C1371  C     0.88436   0.84242   0.83066   0.00000  Uiso   1.00
C1372  C     0.61601   0.82689   0.83364   0.00000  Uiso   1.00
C1373  C     0.90211   0.80364   0.78922   0.00000  Uiso   1.00
C1374  C     0.59855   0.86897   0.87053   0.00000  Uiso   1.00
C1375  C     0.94808   0.80243   0.78624   0.00000  Uiso   1.00
C1376  C     0.55319   0.87653   0.86413   0.00000  Uiso   1.00
C1377  C     0.97722   0.84216   0.82452   0.00000  Uiso   1.00
C1378  C     0.52388   0.83772   0.82514   0.00000  Uiso   1.00
C1379  C     0.95983   0.88663   0.86088   0.00000  Uiso   1.00
C1380  C     0.54121   0.79474   0.78635   0.00000  Uiso   1.00
C1381  C     0.96516   0.76296   0.74338   0.00000  Uiso   1.00
C1382  C     0.53722   0.92426   0.89223   0.00000  Uiso   1.00
Cu1383 Cu    0.75500   0.83913   0.89479   0.00000  Uiso   1.00
Cu1384 Cu    0.74499   0.82754   0.77187   0.00000  Uiso   1.00
H1385  H     0.87934   0.77323   0.76019   0.00000  Uiso   1.00
H1386  H     0.62119   0.89687   0.90309   0.00000  Uiso   1.00
H1387  H     0.74762   0.98788   0.76280   0.00000  Uiso   1.00
H1388  H     0.74929   0.67852   0.90390   0.00000  Uiso   1.00
H1389  H     0.71498   0.79237   0.98317   0.00000  Uiso   1.00
H1390  H     0.78503   0.87429   0.68349   0.00000  Uiso   1.00
N1391  N     0.73744   0.81881   0.67951   0.00000  Uiso   1.00
N1392  N     0.76255   0.84786   0.98716   0.00000  Uiso   1.00
O1393  O     0.75325   0.76204   0.87326   0.00000  Uiso   1.00
O1394  O     0.74674   0.90462   0.79341   0.00000  Uiso   1.00
O1395  O     0.74480   0.75226   0.76945   0.00000  Uiso   1.00
O1396  O     0.75520   0.91441   0.89721   0.00000  Uiso   1.00
O1397  O     0.68935   0.83821   0.88524   0.00000  Uiso   1.00
O1398  O     0.81064   0.82845   0.78143   0.00000  Uiso   1.00
O1399  O     0.68090   0.82843   0.78143   0.00000  Uiso   1.00
O1400  O     0.81910   0.83824   0.88523   0.00000  Uiso   1.00
C1401  C     0.89041   0.93024   0.90519   0.00000  Uiso   1.00
C1402  C     0.86897   0.96517   0.86584   0.00000  Uiso   1.00
C1403  C     0.85845   0.68434   0.90426   0.00000  Uiso   1.00
H1404  H     0.83580   0.67824   0.93971   0.00000  Uiso   1.00
H1405  H     0.88983   0.70707   0.92661   0.00000  Uiso   1.00
H1406  H     0.84188   0.70753   0.87420   0.00000  Uiso   1.00
H1407  H     0.89129   0.97246   0.83087   0.00000  Uiso   1.00
H1408  H     0.83775   0.94459   0.84045   0.00000  Uiso   1.00
H1409  H     0.86470   0.91505   0.93151   0.00000  Uiso   1.00
H1410  H     0.91420   0.95287   0.94201   0.00000  Uiso   1.00
C1411  C     0.60444   0.73290   0.77361   0.00000  Uiso   1.00
C1412  C     0.62817   0.72179   0.71408   0.00000  Uiso   1.00
C1413  C     0.64153   0.99874   0.70058   0.00000  Uiso   1.00
H1414  H     0.66359   0.99166   0.73938   0.00000  Uiso   1.00
H1415  H     0.61135   0.97064   0.69348   0.00000  Uiso   1.00
H1416  H     0.66007   0.99151   0.99216   0.00000  Uiso   1.00
H1417  H     0.60659   0.72798   0.67469   0.00000  Uiso   1.00
H1418  H     0.65906   0.74763   0.71757   0.00000  Uiso   1.00
H1419  H     0.62807   0.72637   0.81126   0.00000  Uiso   1.00
H1420  H     0.57591   0.70288   0.76981   0.00000  Uiso   1.00
O1421  O     0.93668   0.72986   0.69848   0.00000  Uiso   1.00
C1422  C     0.92239   0.68568   0.72089   0.00000  Uiso   1.00
H1423  H     0.91452   0.69566   0.76951   0.00000  Uiso   1.00
H1424  H     0.94790   0.98983   0.71436   0.00000  Uiso   1.00
H1425  H     0.89052   0.66770   0.69483   0.00000  Uiso   1.00
O1426  O     0.56618   0.96682   0.92229   0.00000  Uiso   1.00
C1427  C     0.59213   0.98641   0.88020   0.00000  Uiso   1.00
H1428  H     0.62748   0.97716   0.88620   0.00000  Uiso   1.00
H1429  H     0.59278   0.69630   0.89078   0.00000  Uiso   1.00
H1430  H     0.57946   0.97200   0.83111   0.00000  Uiso   1.00
O1431  O     0.52703   0.73495   0.68706   0.00000  Uiso   1.00
C1432  C     0.52913   0.76943   0.97956   0.00000  Uiso   1.00
H1433  H     0.55084   0.80598   0.99972   0.00000  Uiso   1.00
H1434  H     0.99507   0.77918   0.96480   0.00000  Uiso   1.00
H1435  H     0.54432   0.75024   0.93810   0.00000  Uiso   1.00
O1436  O     0.97768   0.98013   0.90765   0.00000  Uiso   1.00
C1437  C     0.97900   0.67263   0.85838   0.00000  Uiso   1.00
H1438  H     0.96597   0.98000   0.81390   0.00000  Uiso   1.00
H1439  H     0.51342   0.68822   0.85399   0.00000  Uiso   1.00
H1440  H     0.95827   0.70655   0.86756   0.00000  Uiso   1.00
loop_
_geom_bond_atom_site_label_1
_geom_bond_atom_site_label_2
_geom_bond_distance
_geom_bond_site_symmetry_2
_ccdc_geom_bond_type
C1     O33     1.299   .     A
C1     C5      1.431   .     S
C1     O35     1.287   .     A
C2     O34     1.299   .     A
C2     C6      1.432   .     S
C2     O36     1.287   .     A
C3     O71     1.379   .     S
C3     C20     1.414   .     A
C3     C101    1.398   1_455 S
C4     C19     1.430   .     A
C4     O76     1.382   .     S
C4     C102    1.403   .     S
C5     C326    1.325   1_545 S
C5     H347    1.088   1_545 S
C6     C165    1.325   .     S
C6     H188    1.088   .     S
C7     C12     1.452   .     S
C7     O37     1.304   .     A
C7     O39     1.294   .     A
C8     O38     1.301   .     A
C8     C11     1.464   .     S
C8     O40     1.299   .     A
C9     C19     1.436   .     A
C9     C11     1.421   .     A
C9     C41     1.521   .     S
C10    C20     1.423   .     A
C10    C51     1.531   .     S
C10    C12     1.415   .     A
C11    C13     1.384   .     A
C12    C14     1.386   .     A
C13    H25     1.084   .     S
C13    C15     1.387   .     A
C14    H26     1.082   .     S
C14    C16     1.389   .     A
C15    C17     1.409   .     A
C15    C21     1.404   .     A
C16    C22     1.405   .     A
C16    C18     1.405   .     A
C17    C19     1.424   .     A
C17    C98     1.411   .     S
C18    C20     1.420   .     A
C18    C97     1.411   1_455 S
C21    O61     1.383   .     S
C21    C83     1.398   .     S
C22    O66     1.389   .     S
C22    C84     1.403   1_455 S
Cu23   O40     1.950   .     S
Cu23   O33     1.970   .     S
Cu23   Cu24    2.699   .     S
Cu23   O37     1.964   .     S
Cu23   N32     2.028   .     S
Cu23   O36     1.960   .     S
Cu24   O39     1.950   .     S
Cu24   O38     1.964   .     S
Cu24   O35     1.960   .     S
Cu24   O34     1.970   .     S
Cu24   N31     2.028   .     S
H27    C165    1.088   .     S
H28    C326    1.088   1_545 S
H29    N511    1.029   .     S
H30    N992    1.029   1_554 S
N31    H989    1.029   1_554 S
N31    N992    1.284   1_554 S
N32    N511    1.284   .     S
N32    H510    1.029   .     S
C41    C42     1.537   .     S
C41    H49     1.106   .     S
C41    H50     1.095   .     S
C42    H48     1.106   .     S
C42    H47     1.104   .     S
C42    C203    1.525   .     S
C43    H44     1.111   .     S
C43    H45     1.108   .     S
C43    H46     1.110   .     S
C43    C362    1.525   1_545 S
C51    C52     1.538   .     S
C51    H59     1.112   .     S
C51    H60     1.111   .     S
C52    H58     1.100   .     S
C52    H57     1.103   .     S
C52    C373    1.528   1_545 S
C53    H55     1.110   .     S
C53    H54     1.109   .     S
C53    C212    1.528   .     S
C53    H1016   1.110   1_554 S
H56    C533    1.110   .     S
O61    C62     1.409   .     S
C62    H63     1.111   .     S
C62    H65     1.107   .     S
C62    H384    1.111   1_545 S
H64    C222    1.111   .     S
O66    C67     1.419   .     S
C67    H68     1.108   .     S
C67    H70     1.116   .     S
C67    H229    1.105   .     S
H69    C387    1.105   1_545 S
O71    C1032   1.416   1_554 S
C72    H75     1.102   .     S
C72    H73     1.115   .     S
C72    O551    1.416   .     S
C72    H154    1.113   1_455 S
H74    C152    1.113   .     S
O76    C237    1.412   .     S
C77    H80     1.108   .     S
C77    O396    1.412   1_545 S
C77    H398    1.111   1_545 S
C77    H159    1.104   .     S
H78    C237    1.111   .     S
H79    C157    1.104   1_455 S
C81    O113    1.299   .     A
C81    C85     1.431   .     S
C81    O115    1.287   .     A
C82    O114    1.299   .     A
C82    C86     1.432   .     S
C82    O116    1.287   .     A
C83    O151    1.379   .     S
C83    C100    1.414   .     A
C84    C99     1.430   .     A
C84    O156    1.382   .     S
C84    C22     1.403   1_655 S
C85    C406    1.325   1_545 S
C85    H427    1.088   1_545 S
C86    C245    1.325   .     S
C86    H268    1.088   .     S
C87    C92     1.452   .     S
C87    O117    1.304   .     A
C87    O119    1.294   .     A
C88    O118    1.301   .     A
C88    C91     1.464   .     S
C88    O120    1.299   .     A
C89    C99     1.436   .     A
C89    C91     1.421   .     A
C89    C121    1.521   .     S
C90    C100    1.423   .     A
C90    C131    1.531   .     S
C90    C92     1.415   .     A
C91    C93     1.384   .     A
C92    C94     1.386   .     A
C93    H105    1.084   .     S
C93    C95     1.387   .     A
C94    H106    1.082   .     S
C94    C96     1.389   .     A
C95    C97     1.409   .     A
C95    C101    1.404   .     A
C96    C102    1.405   .     A
C96    C98     1.405   .     A
C97    C99     1.424   .     A
C97    C18     1.411   1_655 S
C98    C100    1.420   .     A
C101   O141    1.383   .     S
C101   C3      1.398   1_655 S
C102   O146    1.389   .     S
Cu103  O120    1.950   .     S
Cu103  O113    1.970   .     S
Cu103  Cu104   2.699   .     S
Cu103  O117    1.964   .     S
Cu103  N112    2.028   .     S
Cu103  O116    1.960   .     S
Cu104  O119    1.950   .     S
Cu104  O118    1.964   .     S
Cu104  O115    1.960   .     S
Cu104  O114    1.970   .     S
Cu104  N111    2.028   .     S
H107   C245    1.088   .     S
H108   C406    1.088   1_545 S
H109   N591    1.029   .     S
H110   N1072   1.029   1_554 S
N111   H1069   1.029   1_554 S
N111   N1072   1.284   1_554 S
N112   N591    1.284   .     S
N112   H590    1.029   .     S
C121   C122    1.537   .     S
C121   H129    1.106   .     S
C121   H130    1.095   .     S
C122   H128    1.106   .     S
C122   H127    1.104   .     S
C122   C283    1.525   .     S
C123   H124    1.111   .     S
C123   H125    1.108   .     S
C123   H126    1.110   .     S
C123   C442    1.525   1_545 S
C131   C132    1.538   .     S
C131   H139    1.112   .     S
C131   H140    1.111   .     S
C132   H138    1.100   .     S
C132   H137    1.103   .     S
C132   C453    1.528   1_545 S
C133   H135    1.110   .     S
C133   H134    1.109   .     S
C133   C292    1.528   .     S
C133   H1096   1.110   1_554 S
H136   C613    1.110   .     S
O141   C142    1.409   .     S
C142   H143    1.111   .     S
C142   H145    1.107   .     S
C142   H464    1.111   1_545 S
H144   C302    1.111   .     S
O146   C147    1.419   .     S
C147   H148    1.108   .     S
C147   H150    1.116   .     S
C147   H309    1.105   .     S
H149   C467    1.105   1_545 S
O151   C1112   1.416   1_554 S
C152   H155    1.102   .     S
C152   H153    1.115   .     S
C152   O631    1.416   .     S
H154   C72     1.113   1_655 S
O156   C317    1.412   .     S
C157   H160    1.108   .     S
C157   O476    1.412   1_545 S
C157   H478    1.111   1_545 S
C157   H79     1.104   1_655 S
H158   C317    1.111   .     S
C161   O193    1.299   .     A
C161   C165    1.431   .     S
C161   O195    1.287   .     A
C162   O194    1.299   .     A
C162   C166    1.432   .     S
C162   O196    1.287   .     A
C163   O231    1.379   .     S
C163   C180    1.414   .     A
C163   C261    1.398   1_455 S
C164   C179    1.430   .     A
C164   O236    1.382   .     S
C164   C262    1.403   .     S
C166   C325    1.325   .     S
C166   H348    1.088   .     S
C167   C172    1.452   .     S
C167   O197    1.304   .     A
C167   O199    1.294   .     A
C168   O198    1.301   .     A
C168   C171    1.464   .     S
C168   O200    1.299   .     A
C169   C179    1.436   .     A
C169   C171    1.421   .     A
C169   C201    1.521   .     S
C170   C180    1.423   .     A
C170   C211    1.531   .     S
C170   C172    1.415   .     A
C171   C173    1.384   .     A
C172   C174    1.386   .     A
C173   H185    1.084   .     S
C173   C175    1.387   .     A
C174   H186    1.082   .     S
C174   C176    1.389   .     A
C175   C177    1.409   .     A
C175   C181    1.404   .     A
C176   C182    1.405   .     A
C176   C178    1.405   .     A
C177   C179    1.424   .     A
C177   C258    1.411   .     S
C178   C180    1.420   .     A
C178   C257    1.411   1_455 S
C181   O221    1.383   .     S
C181   C243    1.398   .     S
C182   O226    1.389   .     S
C182   C244    1.403   1_455 S
Cu183  O200    1.950   .     S
Cu183  O193    1.970   .     S
Cu183  Cu184   2.699   .     S
Cu183  O197    1.964   .     S
Cu183  N192    2.028   .     S
Cu183  O196    1.960   .     S
Cu184  O199    1.950   .     S
Cu184  O198    1.964   .     S
Cu184  O195    1.960   .     S
Cu184  O194    1.970   .     S
Cu184  N191    2.028   .     S
H187   C325    1.088   .     S
H189   N671    1.029   .     S
H190   N1152   1.029   1_554 S
N191   H1149   1.029   1_554 S
N191   N1152   1.284   1_554 S
N192   N671    1.284   .     S
N192   H670    1.029   .     S
C201   C202    1.537   .     S
C201   H209    1.106   .     S
C201   H210    1.095   .     S
C202   H208    1.106   .     S
C202   H207    1.104   .     S
C202   C363    1.525   .     S
C203   H204    1.111   .     S
C203   H205    1.108   .     S
C203   H206    1.110   .     S
C211   C212    1.538   .     S
C211   H219    1.112   .     S
C211   H220    1.111   .     S
C212   H218    1.100   .     S
C212   H217    1.103   .     S
C213   H215    1.110   .     S
C213   H214    1.109   .     S
C213   C372    1.528   .     S
C213   H1176   1.110   1_554 S
H216   C693    1.110   .     S
O221   C222    1.409   .     S
C222   H223    1.111   .     S
C222   H225    1.107   .     S
H224   C382    1.111   .     S
O226   C227    1.419   .     S
C227   H228    1.108   .     S
C227   H230    1.116   .     S
C227   H389    1.105   .     S
O231   C1192   1.416   1_554 S
C232   H235    1.102   .     S
C232   H233    1.115   .     S
C232   O711    1.416   .     S
C232   H314    1.113   1_455 S
H234   C312    1.113   .     S
O236   C397    1.412   .     S
C237   H240    1.108   .     S
C237   H319    1.104   .     S
H238   C397    1.111   .     S
H239   C317    1.104   1_455 S
C241   O273    1.299   .     A
C241   C245    1.431   .     S
C241   O275    1.287   .     A
C242   O274    1.299   .     A
C242   C246    1.432   .     S
C242   O276    1.287   .     A
C243   O311    1.379   .     S
C243   C260    1.414   .     A
C244   C259    1.430   .     A
C244   O316    1.382   .     S
C244   C182    1.403   1_655 S
C246   C405    1.325   .     S
C246   H428    1.088   .     S
C247   C252    1.452   .     S
C247   O277    1.304   .     A
C247   O279    1.294   .     A
C248   O278    1.301   .     A
C248   C251    1.464   .     S
C248   O280    1.299   .     A
C249   C259    1.436   .     A
C249   C251    1.421   .     A
C249   C281    1.521   .     S
C250   C260    1.423   .     A
C250   C291    1.531   .     S
C250   C252    1.415   .     A
C251   C253    1.384   .     A
C252   C254    1.386   .     A
C253   H265    1.084   .     S
C253   C255    1.387   .     A
C254   H266    1.082   .     S
C254   C256    1.389   .     A
C255   C257    1.409   .     A
C255   C261    1.404   .     A
C256   C262    1.405   .     A
C256   C258    1.405   .     A
C257   C259    1.424   .     A
C257   C178    1.411   1_655 S
C258   C260    1.420   .     A
C261   O301    1.383   .     S
C261   C163    1.398   1_655 S
C262   O306    1.389   .     S
Cu263  O280    1.950   .     S
Cu263  O273    1.970   .     S
Cu263  Cu264   2.699   .     S
Cu263  O277    1.964   .     S
Cu263  N272    2.028   .     S
Cu263  O276    1.960   .     S
Cu264  O279    1.950   .     S
Cu264  O278    1.964   .     S
Cu264  O275    1.960   .     S
Cu264  O274    1.970   .     S
Cu264  N271    2.028   .     S
H267   C405    1.088   .     S
H269   N751    1.029   .     S
H270   N1232   1.029   1_554 S
N271   H1229   1.029   1_554 S
N271   N1232   1.284   1_554 S
N272   N751    1.284   .     S
N272   H750    1.029   .     S
C281   C282    1.537   .     S
C281   H289    1.106   .     S
C281   H290    1.095   .     S
C282   H288    1.106   .     S
C282   H287    1.104   .     S
C282   C443    1.525   .     S
C283   H284    1.111   .     S
C283   H285    1.108   .     S
C283   H286    1.110   .     S
C291   C292    1.538   .     S
C291   H299    1.112   .     S
C291   H300    1.111   .     S
C292   H298    1.100   .     S
C292   H297    1.103   .     S
C293   H295    1.110   .     S
C293   H294    1.109   .     S
C293   C452    1.528   .     S
C293   H1256   1.110   1_554 S
H296   C773    1.110   .     S
O301   C302    1.409   .     S
C302   H303    1.111   .     S
C302   H305    1.107   .     S
H304   C462    1.111   .     S
O306   C307    1.419   .     S
C307   H308    1.108   .     S
C307   H310    1.116   .     S
C307   H469    1.105   .     S
O311   C1272   1.416   1_554 S
C312   H315    1.102   .     S
C312   H313    1.115   .     S
C312   O791    1.416   .     S
H314   C232    1.113   1_655 S
O316   C477    1.412   .     S
C317   H320    1.108   .     S
C317   H239    1.104   1_655 S
H318   C477    1.111   .     S
C321   O353    1.299   .     A
C321   C325    1.431   .     S
C321   O355    1.287   .     A
C322   O354    1.299   .     A
C322   C326    1.432   .     S
C322   O356    1.287   .     A
C323   O391    1.379   .     S
C323   C340    1.414   .     A
C323   C421    1.398   1_455 S
C324   C339    1.430   .     A
C324   O396    1.382   .     S
C324   C422    1.403   .     S
C326   C5      1.325   1_565 S
C326   H28     1.088   1_565 S
C327   C332    1.452   .     S
C327   O357    1.304   .     A
C327   O359    1.294   .     A
C328   O358    1.301   .     A
C328   C331    1.464   .     S
C328   O360    1.299   .     A
C329   C339    1.436   .     A
C329   C331    1.421   .     A
C329   C361    1.521   .     S
C330   C340    1.423   .     A
C330   C371    1.531   .     S
C330   C332    1.415   .     A
C331   C333    1.384   .     A
C332   C334    1.386   .     A
C333   H345    1.084   .     S
C333   C335    1.387   .     A
C334   H346    1.082   .     S
C334   C336    1.389   .     A
C335   C337    1.409   .     A
C335   C341    1.404   .     A
C336   C342    1.405   .     A
C336   C338    1.405   .     A
C337   C339    1.424   .     A
C337   C418    1.411   .     S
C338   C340    1.420   .     A
C338   C417    1.411   1_455 S
C341   O381    1.383   .     S
C341   C403    1.398   .     S
C342   O386    1.389   .     S
C342   C404    1.403   1_455 S
Cu343  O360    1.950   .     S
Cu343  O353    1.970   .     S
Cu343  Cu344   2.699   .     S
Cu343  O357    1.964   .     S
Cu343  N352    2.028   .     S
Cu343  O356    1.960   .     S
Cu344  O359    1.950   .     S
Cu344  O358    1.964   .     S
Cu344  O355    1.960   .     S
Cu344  O354    1.970   .     S
Cu344  N351    2.028   .     S
H347   C5      1.088   1_565 S
H349   N831    1.029   .     S
H350   N1312   1.029   1_554 S
N351   H1309   1.029   1_554 S
N351   N1312   1.284   1_554 S
N352   N831    1.284   .     S
N352   H830    1.029   .     S
C361   C362    1.537   .     S
C361   H369    1.106   .     S
C361   H370    1.095   .     S
C362   H368    1.106   .     S
C362   H367    1.104   .     S
C362   C43     1.525   1_565 S
C363   H364    1.111   .     S
C363   H365    1.108   .     S
C363   H366    1.110   .     S
C371   C372    1.538   .     S
C371   H379    1.112   .     S
C371   H380    1.111   .     S
C372   H378    1.100   .     S
C372   H377    1.103   .     S
C373   H375    1.110   .     S
C373   H374    1.109   .     S
C373   C52     1.528   1_565 S
C373   H1336   1.110   1_554 S
H376   C853    1.110   .     S
O381   C382    1.409   .     S
C382   H383    1.111   .     S
C382   H385    1.107   .     S
H384   C62     1.111   1_565 S
O386   C387    1.419   .     S
C387   H388    1.108   .     S
C387   H390    1.116   .     S
C387   H69     1.105   1_565 S
O391   C1352   1.416   1_554 S
C392   H395    1.102   .     S
C392   H393    1.115   .     S
C392   O871    1.416   .     S
C392   H474    1.113   1_455 S
H394   C472    1.113   .     S
O396   C77     1.412   1_565 S
C397   H400    1.108   .     S
C397   H479    1.104   .     S
H398   C77     1.111   1_565 S
H399   C477    1.104   1_455 S
C401   O433    1.299   .     A
C401   C405    1.431   .     S
C401   O435    1.287   .     A
C402   O434    1.299   .     A
C402   C406    1.432   .     S
C402   O436    1.287   .     A
C403   O471    1.379   .     S
C403   C420    1.414   .     A
C404   C419    1.430   .     A
C404   O476    1.382   .     S
C404   C342    1.403   1_655 S
C406   C85     1.325   1_565 S
C406   H108    1.088   1_565 S
C407   C412    1.452   .     S
C407   O437    1.304   .     A
C407   O439    1.294   .     A
C408   O438    1.301   .     A
C408   C411    1.464   .     S
C408   O440    1.299   .     A
C409   C419    1.436   .     A
C409   C411    1.421   .     A
C409   C441    1.521   .     S
C410   C420    1.423   .     A
C410   C451    1.531   .     S
C410   C412    1.415   .     A
C411   C413    1.384   .     A
C412   C414    1.386   .     A
C413   H425    1.084   .     S
C413   C415    1.387   .     A
C414   H426    1.082   .     S
C414   C416    1.389   .     A
C415   C417    1.409   .     A
C415   C421    1.404   .     A
C416   C422    1.405   .     A
C416   C418    1.405   .     A
C417   C419    1.424   .     A
C417   C338    1.411   1_655 S
C418   C420    1.420   .     A
C421   O461    1.383   .     S
C421   C323    1.398   1_655 S
C422   O466    1.389   .     S
Cu423  O440    1.950   .     S
Cu423  O433    1.970   .     S
Cu423  Cu424   2.699   .     S
Cu423  O437    1.964   .     S
Cu423  N432    2.028   .     S
Cu423  O436    1.960   .     S
Cu424  O439    1.950   .     S
Cu424  O438    1.964   .     S
Cu424  O435    1.960   .     S
Cu424  O434    1.970   .     S
Cu424  N431    2.028   .     S
H427   C85     1.088   1_565 S
H429   N911    1.029   .     S
H430   N1392   1.029   1_554 S
N431   H1389   1.029   1_554 S
N431   N1392   1.284   1_554 S
N432   N911    1.284   .     S
N432   H910    1.029   .     S
C441   C442    1.537   .     S
C441   H449    1.106   .     S
C441   H450    1.095   .     S
C442   H448    1.106   .     S
C442   H447    1.104   .     S
C442   C123    1.525   1_565 S
C443   H444    1.111   .     S
C443   H445    1.108   .     S
C443   H446    1.110   .     S
C451   C452    1.538   .     S
C451   H459    1.112   .     S
C451   H460    1.111   .     S
C452   H458    1.100   .     S
C452   H457    1.103   .     S
C453   H455    1.110   .     S
C453   H454    1.109   .     S
C453   C132    1.528   1_565 S
C453   H1416   1.110   1_554 S
H456   C933    1.110   .     S
O461   C462    1.409   .     S
C462   H463    1.111   .     S
C462   H465    1.107   .     S
H464   C142    1.111   1_565 S
O466   C467    1.419   .     S
C467   H468    1.108   .     S
C467   H470    1.116   .     S
C467   H149    1.105   1_565 S
O471   C1432   1.416   1_554 S
C472   H475    1.102   .     S
C472   H473    1.115   .     S
C472   O951    1.416   .     S
H474   C392    1.113   1_655 S
O476   C157    1.412   1_565 S
C477   H480    1.108   .     S
C477   H399    1.104   1_655 S
H478   C157    1.111   1_565 S
C481   O513    1.299   .     A
C481   C485    1.431   .     S
C481   O515    1.287   .     A
C482   O514    1.299   .     A
C482   C486    1.432   .     S
C482   O516    1.287   .     A
C483   O551    1.379   .     S
C483   C500    1.414   .     A
C483   C581    1.398   1_455 S
C484   C499    1.430   .     A
C484   O556    1.382   .     S
C484   C582    1.403   .     S
C485   C806    1.325   1_545 S
C485   H827    1.088   1_545 S
C486   C645    1.325   .     S
C486   H668    1.088   .     S
C487   C492    1.452   .     S
C487   O517    1.304   .     A
C487   O519    1.294   .     A
C488   O518    1.301   .     A
C488   C491    1.464   .     S
C488   O520    1.299   .     A
C489   C499    1.436   .     A
C489   C491    1.421   .     A
C489   C521    1.521   .     S
C490   C500    1.423   .     A
C490   C531    1.531   .     S
C490   C492    1.415   .     A
C491   C493    1.384   .     A
C492   C494    1.386   .     A
C493   H505    1.084   .     S
C493   C495    1.387   .     A
C494   H506    1.082   .     S
C494   C496    1.389   .     A
C495   C497    1.409   .     A
C495   C501    1.404   .     A
C496   C502    1.405   .     A
C496   C498    1.405   .     A
C497   C499    1.424   .     A
C497   C578    1.411   .     S
C498   C500    1.420   .     A
C498   C577    1.411   1_455 S
C501   O541    1.383   .     S
C501   C563    1.398   .     S
C502   O546    1.389   .     S
C502   C564    1.403   1_455 S
Cu503  O520    1.950   .     S
Cu503  O513    1.970   .     S
Cu503  Cu504   2.699   .     S
Cu503  O517    1.964   .     S
Cu503  N512    2.028   .     S
Cu503  O516    1.960   .     S
Cu504  O519    1.950   .     S
Cu504  O518    1.964   .     S
Cu504  O515    1.960   .     S
Cu504  O514    1.970   .     S
Cu504  N511    2.028   .     S
H507   C645    1.088   .     S
H508   C806    1.088   1_545 S
H509   N991    1.029   .     S
N512   N991    1.284   .     S
N512   H990    1.029   .     S
C521   C522    1.537   .     S
C521   H529    1.106   .     S
C521   H530    1.095   .     S
C522   H528    1.106   .     S
C522   H527    1.104   .     S
C522   C683    1.525   .     S
C523   H524    1.111   .     S
C523   H525    1.108   .     S
C523   H526    1.110   .     S
C523   C842    1.525   1_545 S
C531   C532    1.538   .     S
C531   H539    1.112   .     S
C531   H540    1.111   .     S
C532   H538    1.100   .     S
C532   H537    1.103   .     S
C532   C853    1.528   1_545 S
C533   H535    1.110   .     S
C533   H534    1.109   .     S
C533   C692    1.528   .     S
H536   C1013   1.110   .     S
O541   C542    1.409   .     S
C542   H543    1.111   .     S
C542   H545    1.107   .     S
C542   H864    1.111   1_545 S
H544   C702    1.111   .     S
O546   C547    1.419   .     S
C547   H548    1.108   .     S
C547   H550    1.116   .     S
C547   H709    1.105   .     S
H549   C867    1.105   1_545 S
C552   H555    1.102   .     S
C552   H553    1.115   .     S
C552   O1031   1.416   .     S
C552   H634    1.113   1_455 S
H554   C632    1.113   .     S
O556   C717    1.412   .     S
C557   H560    1.108   .     S
C557   O876    1.412   1_545 S
C557   H878    1.111   1_545 S
C557   H639    1.104   .     S
H558   C717    1.111   .     S
H559   C637    1.104   1_455 S
C561   O593    1.299   .     A
C561   C565    1.431   .     S
C561   O595    1.287   .     A
C562   O594    1.299   .     A
C562   C566    1.432   .     S
C562   O596    1.287   .     A
C563   O631    1.379   .     S
C563   C580    1.414   .     A
C564   C579    1.430   .     A
C564   O636    1.382   .     S
C564   C502    1.403   1_655 S
C565   C886    1.325   1_545 S
C565   H907    1.088   1_545 S
C566   C725    1.325   .     S
C566   H748    1.088   .     S
C567   C572    1.452   .     S
C567   O597    1.304   .     A
C567   O599    1.294   .     A
C568   O598    1.301   .     A
C568   C571    1.464   .     S
C568   O600    1.299   .     A
C569   C579    1.436   .     A
C569   C571    1.421   .     A
C569   C601    1.521   .     S
C570   C580    1.423   .     A
C570   C611    1.531   .     S
C570   C572    1.415   .     A
C571   C573    1.384   .     A
C572   C574    1.386   .     A
C573   H585    1.084   .     S
C573   C575    1.387   .     A
C574   H586    1.082   .     S
C574   C576    1.389   .     A
C575   C577    1.409   .     A
C575   C581    1.404   .     A
C576   C582    1.405   .     A
C576   C578    1.405   .     A
C577   C579    1.424   .     A
C577   C498    1.411   1_655 S
C578   C580    1.420   .     A
C581   O621    1.383   .     S
C581   C483    1.398   1_655 S
C582   O626    1.389   .     S
Cu583  O600    1.950   .     S
Cu583  O593    1.970   .     S
Cu583  Cu584   2.699   .     S
Cu583  O597    1.964   .     S
Cu583  N592    2.028   .     S
Cu583  O596    1.960   .     S
Cu584  O599    1.950   .     S
Cu584  O598    1.964   .     S
Cu584  O595    1.960   .     S
Cu584  O594    1.970   .     S
Cu584  N591    2.028   .     S
H587   C725    1.088   .     S
H588   C886    1.088   1_545 S
H589   N1071   1.029   .     S
N592   N1071   1.284   .     S
N592   H1070   1.029   .     S
C601   C602    1.537   .     S
C601   H609    1.106   .     S
C601   H610    1.095   .     S
C602   H608    1.106   .     S
C602   H607    1.104   .     S
C602   C763    1.525   .     S
C603   H604    1.111   .     S
C603   H605    1.108   .     S
C603   H606    1.110   .     S
C603   C922    1.525   1_545 S
C611   C612    1.538   .     S
C611   H619    1.112   .     S
C611   H620    1.111   .     S
C612   H618    1.100   .     S
C612   H617    1.103   .     S
C612   C933    1.528   1_545 S
C613   H615    1.110   .     S
C613   H614    1.109   .     S
C613   C772    1.528   .     S
H616   C1093   1.110   .     S
O621   C622    1.409   .     S
C622   H623    1.111   .     S
C622   H625    1.107   .     S
C622   H944    1.111   1_545 S
H624   C782    1.111   .     S
O626   C627    1.419   .     S
C627   H628    1.108   .     S
C627   H630    1.116   .     S
C627   H789    1.105   .     S
H629   C947    1.105   1_545 S
C632   H635    1.102   .     S
C632   H633    1.115   .     S
C632   O1111   1.416   .     S
H634   C552    1.113   1_655 S
O636   C797    1.412   .     S
C637   H640    1.108   .     S
C637   O956    1.412   1_545 S
C637   H958    1.111   1_545 S
C637   H559    1.104   1_655 S
H638   C797    1.111   .     S
C641   O673    1.299   .     A
C641   C645    1.431   .     S
C641   O675    1.287   .     A
C642   O674    1.299   .     A
C642   C646    1.432   .     S
C642   O676    1.287   .     A
C643   O711    1.379   .     S
C643   C660    1.414   .     A
C643   C741    1.398   1_455 S
C644   C659    1.430   .     A
C644   O716    1.382   .     S
C644   C742    1.403   .     S
C646   C805    1.325   .     S
C646   H828    1.088   .     S
C647   C652    1.452   .     S
C647   O677    1.304   .     A
C647   O679    1.294   .     A
C648   O678    1.301   .     A
C648   C651    1.464   .     S
C648   O680    1.299   .     A
C649   C659    1.436   .     A
C649   C651    1.421   .     A
C649   C681    1.521   .     S
C650   C660    1.423   .     A
C650   C691    1.531   .     S
C650   C652    1.415   .     A
C651   C653    1.384   .     A
C652   C654    1.386   .     A
C653   H665    1.084   .     S
C653   C655    1.387   .     A
C654   H666    1.082   .     S
C654   C656    1.389   .     A
C655   C657    1.409   .     A
C655   C661    1.404   .     A
C656   C662    1.405   .     A
C656   C658    1.405   .     A
C657   C659    1.424   .     A
C657   C738    1.411   .     S
C658   C660    1.420   .     A
C658   C737    1.411   1_455 S
C661   O701    1.383   .     S
C661   C723    1.398   .     S
C662   O706    1.389   .     S
C662   C724    1.403   1_455 S
Cu663  O680    1.950   .     S
Cu663  O673    1.970   .     S
Cu663  Cu664   2.699   .     S
Cu663  O677    1.964   .     S
Cu663  N672    2.028   .     S
Cu663  O676    1.960   .     S
Cu664  O679    1.950   .     S
Cu664  O678    1.964   .     S
Cu664  O675    1.960   .     S
Cu664  O674    1.970   .     S
Cu664  N671    2.028   .     S
H667   C805    1.088   .     S
H669   N1151   1.029   .     S
N672   N1151   1.284   .     S
N672   H1150   1.029   .     S
C681   C682    1.537   .     S
C681   H689    1.106   .     S
C681   H690    1.095   .     S
C682   H688    1.106   .     S
C682   H687    1.104   .     S
C682   C843    1.525   .     S
C683   H684    1.111   .     S
C683   H685    1.108   .     S
C683   H686    1.110   .     S
C691   C692    1.538   .     S
C691   H699    1.112   .     S
C691   H700    1.111   .     S
C692   H698    1.100   .     S
C692   H697    1.103   .     S
C693   H695    1.110   .     S
C693   H694    1.109   .     S
C693   C852    1.528   .     S
H696   C1173   1.110   .     S
O701   C702    1.409   .     S
C702   H703    1.111   .     S
C702   H705    1.107   .     S
H704   C862    1.111   .     S
O706   C707    1.419   .     S
C707   H708    1.108   .     S
C707   H710    1.116   .     S
C707   H869    1.105   .     S
C712   H715    1.102   .     S
C712   H713    1.115   .     S
C712   O1191   1.416   .     S
C712   H794    1.113   1_455 S
H714   C792    1.113   .     S
O716   C877    1.412   .     S
C717   H720    1.108   .     S
C717   H799    1.104   .     S
H718   C877    1.111   .     S
H719   C797    1.104   1_455 S
C721   O753    1.299   .     A
C721   C725    1.431   .     S
C721   O755    1.287   .     A
C722   O754    1.299   .     A
C722   C726    1.432   .     S
C722   O756    1.287   .     A
C723   O791    1.379   .     S
C723   C740    1.414   .     A
C724   C739    1.430   .     A
C724   O796    1.382   .     S
C724   C662    1.403   1_655 S
C726   C885    1.325   .     S
C726   H908    1.088   .     S
C727   C732    1.452   .     S
C727   O757    1.304   .     A
C727   O759    1.294   .     A
C728   O758    1.301   .     A
C728   C731    1.464   .     S
C728   O760    1.299   .     A
C729   C739    1.436   .     A
C729   C731    1.421   .     A
C729   C761    1.521   .     S
C730   C740    1.423   .     A
C730   C771    1.531   .     S
C730   C732    1.415   .     A
C731   C733    1.384   .     A
C732   C734    1.386   .     A
C733   H745    1.084   .     S
C733   C735    1.387   .     A
C734   H746    1.082   .     S
C734   C736    1.389   .     A
C735   C737    1.409   .     A
C735   C741    1.404   .     A
C736   C742    1.405   .     A
C736   C738    1.405   .     A
C737   C739    1.424   .     A
C737   C658    1.411   1_655 S
C738   C740    1.420   .     A
C741   O781    1.383   .     S
C741   C643    1.398   1_655 S
C742   O786    1.389   .     S
Cu743  O760    1.950   .     S
Cu743  O753    1.970   .     S
Cu743  Cu744   2.699   .     S
Cu743  O757    1.964   .     S
Cu743  N752    2.028   .     S
Cu743  O756    1.960   .     S
Cu744  O759    1.950   .     S
Cu744  O758    1.964   .     S
Cu744  O755    1.960   .     S
Cu744  O754    1.970   .     S
Cu744  N751    2.028   .     S
H747   C885    1.088   .     S
H749   N1231   1.029   .     S
N752   N1231   1.284   .     S
N752   H1230   1.029   .     S
C761   C762    1.537   .     S
C761   H769    1.106   .     S
C761   H770    1.095   .     S
C762   H768    1.106   .     S
C762   H767    1.104   .     S
C762   C923    1.525   .     S
C763   H764    1.111   .     S
C763   H765    1.108   .     S
C763   H766    1.110   .     S
C771   C772    1.538   .     S
C771   H779    1.112   .     S
C771   H780    1.111   .     S
C772   H778    1.100   .     S
C772   H777    1.103   .     S
C773   H775    1.110   .     S
C773   H774    1.109   .     S
C773   C932    1.528   .     S
H776   C1253   1.110   .     S
O781   C782    1.409   .     S
C782   H783    1.111   .     S
C782   H785    1.107   .     S
H784   C942    1.111   .     S
O786   C787    1.419   .     S
C787   H788    1.108   .     S
C787   H790    1.116   .     S
C787   H949    1.105   .     S
C792   H795    1.102   .     S
C792   H793    1.115   .     S
C792   O1271   1.416   .     S
H794   C712    1.113   1_655 S
O796   C957    1.412   .     S
C797   H800    1.108   .     S
C797   H719    1.104   1_655 S
H798   C957    1.111   .     S
C801   O833    1.299   .     A
C801   C805    1.431   .     S
C801   O835    1.287   .     A
C802   O834    1.299   .     A
C802   C806    1.432   .     S
C802   O836    1.287   .     A
C803   O871    1.379   .     S
C803   C820    1.414   .     A
C803   C901    1.398   1_455 S
C804   C819    1.430   .     A
C804   O876    1.382   .     S
C804   C902    1.403   .     S
C806   C485    1.325   1_565 S
C806   H508    1.088   1_565 S
C807   C812    1.452   .     S
C807   O837    1.304   .     A
C807   O839    1.294   .     A
C808   O838    1.301   .     A
C808   C811    1.464   .     S
C808   O840    1.299   .     A
C809   C819    1.436   .     A
C809   C811    1.421   .     A
C809   C841    1.521   .     S
C810   C820    1.423   .     A
C810   C851    1.531   .     S
C810   C812    1.415   .     A
C811   C813    1.384   .     A
C812   C814    1.386   .     A
C813   H825    1.084   .     S
C813   C815    1.387   .     A
C814   H826    1.082   .     S
C814   C816    1.389   .     A
C815   C817    1.409   .     A
C815   C821    1.404   .     A
C816   C822    1.405   .     A
C816   C818    1.405   .     A
C817   C819    1.424   .     A
C817   C898    1.411   .     S
C818   C820    1.420   .     A
C818   C897    1.411   1_455 S
C821   O861    1.383   .     S
C821   C883    1.398   .     S
C822   O866    1.389   .     S
C822   C884    1.403   1_455 S
Cu823  O840    1.950   .     S
Cu823  O833    1.970   .     S
Cu823  Cu824   2.699   .     S
Cu823  O837    1.964   .     S
Cu823  N832    2.028   .     S
Cu823  O836    1.960   .     S
Cu824  O839    1.950   .     S
Cu824  O838    1.964   .     S
Cu824  O835    1.960   .     S
Cu824  O834    1.970   .     S
Cu824  N831    2.028   .     S
H827   C485    1.088   1_565 S
H829   N1311   1.029   .     S
N832   N1311   1.284   .     S
N832   H1310   1.029   .     S
C841   C842    1.537   .     S
C841   H849    1.106   .     S
C841   H850    1.095   .     S
C842   H848    1.106   .     S
C842   H847    1.104   .     S
C842   C523    1.525   1_565 S
C843   H844    1.111   .     S
C843   H845    1.108   .     S
C843   H846    1.110   .     S
C851   C852    1.538   .     S
C851   H859    1.112   .     S
C851   H860    1.111   .     S
C852   H858    1.100   .     S
C852   H857    1.103   .     S
C853   H855    1.110   .     S
C853   H854    1.109   .     S
C853   C532    1.528   1_565 S
H856   C1333   1.110   .     S
O861   C862    1.409   .     S
C862   H863    1.111   .     S
C862   H865    1.107   .     S
H864   C542    1.111   1_565 S
O866   C867    1.419   .     S
C867   H868    1.108   .     S
C867   H870    1.116   .     S
C867   H549    1.105   1_565 S
C872   H875    1.102   .     S
C872   H873    1.115   .     S
C872   O1351   1.416   .     S
C872   H954    1.113   1_455 S
H874   C952    1.113   .     S
O876   C557    1.412   1_565 S
C877   H880    1.108   .     S
C877   H959    1.104   .     S
H878   C557    1.111   1_565 S
H879   C957    1.104   1_455 S
C881   O913    1.299   .     A
C881   C885    1.431   .     S
C881   O915    1.287   .     A
C882   O914    1.299   .     A
C882   C886    1.432   .     S
C882   O916    1.287   .     A
C883   O951    1.379   .     S
C883   C900    1.414   .     A
C884   C899    1.430   .     A
C884   O956    1.382   .     S
C884   C822    1.403   1_655 S
C886   C565    1.325   1_565 S
C886   H588    1.088   1_565 S
C887   C892    1.452   .     S
C887   O917    1.304   .     A
C887   O919    1.294   .     A
C888   O918    1.301   .     A
C888   C891    1.464   .     S
C888   O920    1.299   .     A
C889   C899    1.436   .     A
C889   C891    1.421   .     A
C889   C921    1.521   .     S
C890   C900    1.423   .     A
C890   C931    1.531   .     S
C890   C892    1.415   .     A
C891   C893    1.384   .     A
C892   C894    1.386   .     A
C893   H905    1.084   .     S
C893   C895    1.387   .     A
C894   H906    1.082   .     S
C894   C896    1.389   .     A
C895   C897    1.409   .     A
C895   C901    1.404   .     A
C896   C902    1.405   .     A
C896   C898    1.405   .     A
C897   C899    1.424   .     A
C897   C818    1.411   1_655 S
C898   C900    1.420   .     A
C901   O941    1.383   .     S
C901   C803    1.398   1_655 S
C902   O946    1.389   .     S
Cu903  O920    1.950   .     S
Cu903  O913    1.970   .     S
Cu903  Cu904   2.699   .     S
Cu903  O917    1.964   .     S
Cu903  N912    2.028   .     S
Cu903  O916    1.960   .     S
Cu904  O919    1.950   .     S
Cu904  O918    1.964   .     S
Cu904  O915    1.960   .     S
Cu904  O914    1.970   .     S
Cu904  N911    2.028   .     S
H907   C565    1.088   1_565 S
H909   N1391   1.029   .     S
N912   N1391   1.284   .     S
N912   H1390   1.029   .     S
C921   C922    1.537   .     S
C921   H929    1.106   .     S
C921   H930    1.095   .     S
C922   H928    1.106   .     S
C922   H927    1.104   .     S
C922   C603    1.525   1_565 S
C923   H924    1.111   .     S
C923   H925    1.108   .     S
C923   H926    1.110   .     S
C931   C932    1.538   .     S
C931   H939    1.112   .     S
C931   H940    1.111   .     S
C932   H938    1.100   .     S
C932   H937    1.103   .     S
C933   H935    1.110   .     S
C933   H934    1.109   .     S
C933   C612    1.528   1_565 S
H936   C1413   1.110   .     S
O941   C942    1.409   .     S
C942   H943    1.111   .     S
C942   H945    1.107   .     S
H944   C622    1.111   1_565 S
O946   C947    1.419   .     S
C947   H948    1.108   .     S
C947   H950    1.116   .     S
C947   H629    1.105   1_565 S
C952   H955    1.102   .     S
C952   H953    1.115   .     S
C952   O1431   1.416   .     S
H954   C872    1.113   1_655 S
O956   C637    1.412   1_565 S
C957   H960    1.108   .     S
C957   H879    1.104   1_655 S
H958   C637    1.111   1_565 S
C961   O993    1.299   .     A
C961   C965    1.431   .     S
C961   O995    1.287   .     A
C962   O994    1.299   .     A
C962   C966    1.432   .     S
C962   O996    1.287   .     A
C963   O1031   1.379   .     S
C963   C980    1.414   .     A
C963   C1061   1.398   1_455 S
C964   C979    1.430   .     A
C964   O1036   1.382   .     S
C964   C1062   1.403   .     S
C965   C1286   1.325   1_545 S
C965   H1307   1.088   1_545 S
C966   C1125   1.325   .     S
C966   H1148   1.088   .     S
C967   C972    1.452   .     S
C967   O997    1.304   .     A
C967   O999    1.294   .     A
C968   O998    1.301   .     A
C968   C971    1.464   .     S
C968   O1000   1.299   .     A
C969   C979    1.436   .     A
C969   C971    1.421   .     A
C969   C1001   1.521   .     S
C970   C980    1.423   .     A
C970   C1011   1.531   .     S
C970   C972    1.415   .     A
C971   C973    1.384   .     A
C972   C974    1.386   .     A
C973   H985    1.084   .     S
C973   C975    1.387   .     A
C974   H986    1.082   .     S
C974   C976    1.389   .     A
C975   C977    1.409   .     A
C975   C981    1.404   .     A
C976   C982    1.405   .     A
C976   C978    1.405   .     A
C977   C979    1.424   .     A
C977   C1058   1.411   .     S
C978   C980    1.420   .     A
C978   C1057   1.411   1_455 S
C981   O1021   1.383   .     S
C981   C1043   1.398   .     S
C982   O1026   1.389   .     S
C982   C1044   1.403   1_455 S
Cu983  O1000   1.950   .     S
Cu983  O993    1.970   .     S
Cu983  Cu984   2.699   .     S
Cu983  O997    1.964   .     S
Cu983  N992    2.028   .     S
Cu983  O996    1.960   .     S
Cu984  O999    1.950   .     S
Cu984  O998    1.964   .     S
Cu984  O995    1.960   .     S
Cu984  O994    1.970   .     S
Cu984  N991    2.028   .     S
H987   C1125   1.088   .     S
H988   C1286   1.088   1_545 S
H989   N31     1.029   1_556 S
N992   N31     1.284   1_556 S
N992   H30     1.029   1_556 S
C1001  C1002   1.537   .     S
C1001  H1009   1.106   .     S
C1001  H1010   1.095   .     S
C1002  H1008   1.106   .     S
C1002  H1007   1.104   .     S
C1002  C1163   1.525   .     S
C1003  H1004   1.111   .     S
C1003  H1005   1.108   .     S
C1003  H1006   1.110   .     S
C1003  C1322   1.525   1_545 S
C1011  C1012   1.538   .     S
C1011  H1019   1.112   .     S
C1011  H1020   1.111   .     S
C1012  H1018   1.100   .     S
C1012  H1017   1.103   .     S
C1012  C1333   1.528   1_545 S
C1013  H1015   1.110   .     S
C1013  H1014   1.109   .     S
C1013  C1172   1.528   .     S
H1016  C53     1.110   1_556 S
O1021  C1022   1.409   .     S
C1022  H1023   1.111   .     S
C1022  H1025   1.107   .     S
C1022  H1344   1.111   1_545 S
H1024  C1182   1.111   .     S
O1026  C1027   1.419   .     S
C1027  H1028   1.108   .     S
C1027  H1030   1.116   .     S
C1027  H1189   1.105   .     S
H1029  C1347   1.105   1_545 S
C1032  H1035   1.102   .     S
C1032  H1033   1.115   .     S
C1032  O71     1.416   1_556 S
C1032  H1114   1.113   1_455 S
H1034  C1112   1.113   .     S
O1036  C1197   1.412   .     S
C1037  H1040   1.108   .     S
C1037  O1356   1.412   1_545 S
C1037  H1358   1.111   1_545 S
C1037  H1119   1.104   .     S
H1038  C1197   1.111   .     S
H1039  C1117   1.104   1_455 S
C1041  O1073   1.299   .     A
C1041  C1045   1.431   .     S
C1041  O1075   1.287   .     A
C1042  O1074   1.299   .     A
C1042  C1046   1.432   .     S
C1042  O1076   1.287   .     A
C1043  O1111   1.379   .     S
C1043  C1060   1.414   .     A
C1044  C1059   1.430   .     A
C1044  O1116   1.382   .     S
C1044  C982    1.403   1_655 S
C1045  C1366   1.325   1_545 S
C1045  H1387   1.088   1_545 S
C1046  C1205   1.325   .     S
C1046  H1228   1.088   .     S
C1047  C1052   1.452   .     S
C1047  O1077   1.304   .     A
C1047  O1079   1.294   .     A
C1048  O1078   1.301   .     A
C1048  C1051   1.464   .     S
C1048  O1080   1.299   .     A
C1049  C1059   1.436   .     A
C1049  C1051   1.421   .     A
C1049  C1081   1.521   .     S
C1050  C1060   1.423   .     A
C1050  C1091   1.531   .     S
C1050  C1052   1.415   .     A
C1051  C1053   1.384   .     A
C1052  C1054   1.386   .     A
C1053  H1065   1.084   .     S
C1053  C1055   1.387   .     A
C1054  H1066   1.082   .     S
C1054  C1056   1.389   .     A
C1055  C1057   1.409   .     A
C1055  C1061   1.404   .     A
C1056  C1062   1.405   .     A
C1056  C1058   1.405   .     A
C1057  C1059   1.424   .     A
C1057  C978    1.411   1_655 S
C1058  C1060   1.420   .     A
C1061  O1101   1.383   .     S
C1061  C963    1.398   1_655 S
C1062  O1106   1.389   .     S
Cu1063 O1080   1.950   .     S
Cu1063 O1073   1.970   .     S
Cu1063 Cu1064  2.699   .     S
Cu1063 O1077   1.964   .     S
Cu1063 N1072   2.028   .     S
Cu1063 O1076   1.960   .     S
Cu1064 O1079   1.950   .     S
Cu1064 O1078   1.964   .     S
Cu1064 O1075   1.960   .     S
Cu1064 O1074   1.970   .     S
Cu1064 N1071   2.028   .     S
H1067  C1205   1.088   .     S
H1068  C1366   1.088   1_545 S
H1069  N111    1.029   1_556 S
N1072  N111    1.284   1_556 S
N1072  H110    1.029   1_556 S
C1081  C1082   1.537   .     S
C1081  H1089   1.106   .     S
C1081  H1090   1.095   .     S
C1082  H1088   1.106   .     S
C1082  H1087   1.104   .     S
C1082  C1243   1.525   .     S
C1083  H1084   1.111   .     S
C1083  H1085   1.108   .     S
C1083  H1086   1.110   .     S
C1083  C1402   1.525   1_545 S
C1091  C1092   1.538   .     S
C1091  H1099   1.112   .     S
C1091  H1100   1.111   .     S
C1092  H1098   1.100   .     S
C1092  H1097   1.103   .     S
C1092  C1413   1.528   1_545 S
C1093  H1095   1.110   .     S
C1093  H1094   1.109   .     S
C1093  C1252   1.528   .     S
H1096  C133    1.110   1_556 S
O1101  C1102   1.409   .     S
C1102  H1103   1.111   .     S
C1102  H1105   1.107   .     S
C1102  H1424   1.111   1_545 S
H1104  C1262   1.111   .     S
O1106  C1107   1.419   .     S
C1107  H1108   1.108   .     S
C1107  H1110   1.116   .     S
C1107  H1269   1.105   .     S
H1109  C1427   1.105   1_545 S
C1112  H1115   1.102   .     S
C1112  H1113   1.115   .     S
C1112  O151    1.416   1_556 S
H1114  C1032   1.113   1_655 S
O1116  C1277   1.412   .     S
C1117  H1120   1.108   .     S
C1117  O1436   1.412   1_545 S
C1117  H1438   1.111   1_545 S
C1117  H1039   1.104   1_655 S
H1118  C1277   1.111   .     S
C1121  O1153   1.299   .     A
C1121  C1125   1.431   .     S
C1121  O1155   1.287   .     A
C1122  O1154   1.299   .     A
C1122  C1126   1.432   .     S
C1122  O1156   1.287   .     A
C1123  O1191   1.379   .     S
C1123  C1140   1.414   .     A
C1123  C1221   1.398   1_455 S
C1124  C1139   1.430   .     A
C1124  O1196   1.382   .     S
C1124  C1222   1.403   .     S
C1126  C1285   1.325   .     S
C1126  H1308   1.088   .     S
C1127  C1132   1.452   .     S
C1127  O1157   1.304   .     A
C1127  O1159   1.294   .     A
C1128  O1158   1.301   .     A
C1128  C1131   1.464   .     S
C1128  O1160   1.299   .     A
C1129  C1139   1.436   .     A
C1129  C1131   1.421   .     A
C1129  C1161   1.521   .     S
C1130  C1140   1.423   .     A
C1130  C1171   1.531   .     S
C1130  C1132   1.415   .     A
C1131  C1133   1.384   .     A
C1132  C1134   1.386   .     A
C1133  H1145   1.084   .     S
C1133  C1135   1.387   .     A
C1134  H1146   1.082   .     S
C1134  C1136   1.389   .     A
C1135  C1137   1.409   .     A
C1135  C1141   1.404   .     A
C1136  C1142   1.405   .     A
C1136  C1138   1.405   .     A
C1137  C1139   1.424   .     A
C1137  C1218   1.411   .     S
C1138  C1140   1.420   .     A
C1138  C1217   1.411   1_455 S
C1141  O1181   1.383   .     S
C1141  C1203   1.398   .     S
C1142  O1186   1.389   .     S
C1142  C1204   1.403   1_455 S
Cu1143 O1160   1.950   .     S
Cu1143 O1153   1.970   .     S
Cu1143 Cu1144  2.699   .     S
Cu1143 O1157   1.964   .     S
Cu1143 N1152   2.028   .     S
Cu1143 O1156   1.960   .     S
Cu1144 O1159   1.950   .     S
Cu1144 O1158   1.964   .     S
Cu1144 O1155   1.960   .     S
Cu1144 O1154   1.970   .     S
Cu1144 N1151   2.028   .     S
H1147  C1285   1.088   .     S
H1149  N191    1.029   1_556 S
N1152  N191    1.284   1_556 S
N1152  H190    1.029   1_556 S
C1161  C1162   1.537   .     S
C1161  H1169   1.106   .     S
C1161  H1170   1.095   .     S
C1162  H1168   1.106   .     S
C1162  H1167   1.104   .     S
C1162  C1323   1.525   .     S
C1163  H1164   1.111   .     S
C1163  H1165   1.108   .     S
C1163  H1166   1.110   .     S
C1171  C1172   1.538   .     S
C1171  H1179   1.112   .     S
C1171  H1180   1.111   .     S
C1172  H1178   1.100   .     S
C1172  H1177   1.103   .     S
C1173  H1175   1.110   .     S
C1173  H1174   1.109   .     S
C1173  C1332   1.528   .     S
H1176  C213    1.110   1_556 S
O1181  C1182   1.409   .     S
C1182  H1183   1.111   .     S
C1182  H1185   1.107   .     S
H1184  C1342   1.111   .     S
O1186  C1187   1.419   .     S
C1187  H1188   1.108   .     S
C1187  H1190   1.116   .     S
C1187  H1349   1.105   .     S
C1192  H1195   1.102   .     S
C1192  H1193   1.115   .     S
C1192  O231    1.416   1_556 S
C1192  H1274   1.113   1_455 S
H1194  C1272   1.113   .     S
O1196  C1357   1.412   .     S
C1197  H1200   1.108   .     S
C1197  H1279   1.104   .     S
H1198  C1357   1.111   .     S
H1199  C1277   1.104   1_455 S
C1201  O1233   1.299   .     A
C1201  C1205   1.431   .     S
C1201  O1235   1.287   .     A
C1202  O1234   1.299   .     A
C1202  C1206   1.432   .     S
C1202  O1236   1.287   .     A
C1203  O1271   1.379   .     S
C1203  C1220   1.414   .     A
C1204  C1219   1.430   .     A
C1204  O1276   1.382   .     S
C1204  C1142   1.403   1_655 S
C1206  C1365   1.325   .     S
C1206  H1388   1.088   .     S
C1207  C1212   1.452   .     S
C1207  O1237   1.304   .     A
C1207  O1239   1.294   .     A
C1208  O1238   1.301   .     A
C1208  C1211   1.464   .     S
C1208  O1240   1.299   .     A
C1209  C1219   1.436   .     A
C1209  C1211   1.421   .     A
C1209  C1241   1.521   .     S
C1210  C1220   1.423   .     A
C1210  C1251   1.531   .     S
C1210  C1212   1.415   .     A
C1211  C1213   1.384   .     A
C1212  C1214   1.386   .     A
C1213  H1225   1.084   .     S
C1213  C1215   1.387   .     A
C1214  H1226   1.082   .     S
C1214  C1216   1.389   .     A
C1215  C1217   1.409   .     A
C1215  C1221   1.404   .     A
C1216  C1222   1.405   .     A
C1216  C1218   1.405   .     A
C1217  C1219   1.424   .     A
C1217  C1138   1.411   1_655 S
C1218  C1220   1.420   .     A
C1221  O1261   1.383   .     S
C1221  C1123   1.398   1_655 S
C1222  O1266   1.389   .     S
Cu1223 O1240   1.950   .     S
Cu1223 O1233   1.970   .     S
Cu1223 Cu1224  2.699   .     S
Cu1223 O1237   1.964   .     S
Cu1223 N1232   2.028   .     S
Cu1223 O1236   1.960   .     S
Cu1224 O1239   1.950   .     S
Cu1224 O1238   1.964   .     S
Cu1224 O1235   1.960   .     S
Cu1224 O1234   1.970   .     S
Cu1224 N1231   2.028   .     S
H1227  C1365   1.088   .     S
H1229  N271    1.029   1_556 S
N1232  N271    1.284   1_556 S
N1232  H270    1.029   1_556 S
C1241  C1242   1.537   .     S
C1241  H1249   1.106   .     S
C1241  H1250   1.095   .     S
C1242  H1248   1.106   .     S
C1242  H1247   1.104   .     S
C1242  C1403   1.525   .     S
C1243  H1244   1.111   .     S
C1243  H1245   1.108   .     S
C1243  H1246   1.110   .     S
C1251  C1252   1.538   .     S
C1251  H1259   1.112   .     S
C1251  H1260   1.111   .     S
C1252  H1258   1.100   .     S
C1252  H1257   1.103   .     S
C1253  H1255   1.110   .     S
C1253  H1254   1.109   .     S
C1253  C1412   1.528   .     S
H1256  C293    1.110   1_556 S
O1261  C1262   1.409   .     S
C1262  H1263   1.111   .     S
C1262  H1265   1.107   .     S
H1264  C1422   1.111   .     S
O1266  C1267   1.419   .     S
C1267  H1268   1.108   .     S
C1267  H1270   1.116   .     S
C1267  H1429   1.105   .     S
C1272  H1275   1.102   .     S
C1272  H1273   1.115   .     S
C1272  O311    1.416   1_556 S
H1274  C1192   1.113   1_655 S
O1276  C1437   1.412   .     S
C1277  H1280   1.108   .     S
C1277  H1199   1.104   1_655 S
H1278  C1437   1.111   .     S
C1281  O1313   1.299   .     A
C1281  C1285   1.431   .     S
C1281  O1315   1.287   .     A
C1282  O1314   1.299   .     A
C1282  C1286   1.432   .     S
C1282  O1316   1.287   .     A
C1283  O1351   1.379   .     S
C1283  C1300   1.414   .     A
C1283  C1381   1.398   1_455 S
C1284  C1299   1.430   .     A
C1284  O1356   1.382   .     S
C1284  C1382   1.403   .     S
C1286  C965    1.325   1_565 S
C1286  H988    1.088   1_565 S
C1287  C1292   1.452   .     S
C1287  O1317   1.304   .     A
C1287  O1319   1.294   .     A
C1288  O1318   1.301   .     A
C1288  C1291   1.464   .     S
C1288  O1320   1.299   .     A
C1289  C1299   1.436   .     A
C1289  C1291   1.421   .     A
C1289  C1321   1.521   .     S
C1290  C1300   1.423   .     A
C1290  C1331   1.531   .     S
C1290  C1292   1.415   .     A
C1291  C1293   1.384   .     A
C1292  C1294   1.386   .     A
C1293  H1305   1.084   .     S
C1293  C1295   1.387   .     A
C1294  H1306   1.082   .     S
C1294  C1296   1.389   .     A
C1295  C1297   1.409   .     A
C1295  C1301   1.404   .     A
C1296  C1302   1.405   .     A
C1296  C1298   1.405   .     A
C1297  C1299   1.424   .     A
C1297  C1378   1.411   .     S
C1298  C1300   1.420   .     A
C1298  C1377   1.411   1_455 S
C1301  O1341   1.383   .     S
C1301  C1363   1.398   .     S
C1302  O1346   1.389   .     S
C1302  C1364   1.403   1_455 S
Cu1303 O1320   1.950   .     S
Cu1303 O1313   1.970   .     S
Cu1303 Cu1304  2.699   .     S
Cu1303 O1317   1.964   .     S
Cu1303 N1312   2.028   .     S
Cu1303 O1316   1.960   .     S
Cu1304 O1319   1.950   .     S
Cu1304 O1318   1.964   .     S
Cu1304 O1315   1.960   .     S
Cu1304 O1314   1.970   .     S
Cu1304 N1311   2.028   .     S
H1307  C965    1.088   1_565 S
H1309  N351    1.029   1_556 S
N1312  N351    1.284   1_556 S
N1312  H350    1.029   1_556 S
C1321  C1322   1.537   .     S
C1321  H1329   1.106   .     S
C1321  H1330   1.095   .     S
C1322  H1328   1.106   .     S
C1322  H1327   1.104   .     S
C1322  C1003   1.525   1_565 S
C1323  H1324   1.111   .     S
C1323  H1325   1.108   .     S
C1323  H1326   1.110   .     S
C1331  C1332   1.538   .     S
C1331  H1339   1.112   .     S
C1331  H1340   1.111   .     S
C1332  H1338   1.100   .     S
C1332  H1337   1.103   .     S
C1333  H1335   1.110   .     S
C1333  H1334   1.109   .     S
C1333  C1012   1.528   1_565 S
H1336  C373    1.110   1_556 S
O1341  C1342   1.409   .     S
C1342  H1343   1.111   .     S
C1342  H1345   1.107   .     S
H1344  C1022   1.111   1_565 S
O1346  C1347   1.419   .     S
C1347  H1348   1.108   .     S
C1347  H1350   1.116   .     S
C1347  H1029   1.105   1_565 S
C1352  H1355   1.102   .     S
C1352  H1353   1.115   .     S
C1352  O391    1.416   1_556 S
C1352  H1434   1.113   1_455 S
H1354  C1432   1.113   .     S
O1356  C1037   1.412   1_565 S
C1357  H1360   1.108   .     S
C1357  H1439   1.104   .     S
H1358  C1037   1.111   1_565 S
H1359  C1437   1.104   1_455 S
C1361  O1393   1.299   .     A
C1361  C1365   1.431   .     S
C1361  O1395   1.287   .     A
C1362  O1394   1.299   .     A
C1362  C1366   1.432   .     S
C1362  O1396   1.287   .     A
C1363  O1431   1.379   .     S
C1363  C1380   1.414   .     A
C1364  C1379   1.430   .     A
C1364  O1436   1.382   .     S
C1364  C1302   1.403   1_655 S
C1366  C1045   1.325   1_565 S
C1366  H1068   1.088   1_565 S
C1367  C1372   1.452   .     S
C1367  O1397   1.304   .     A
C1367  O1399   1.294   .     A
C1368  O1398   1.301   .     A
C1368  C1371   1.464   .     S
C1368  O1400   1.299   .     A
C1369  C1379   1.436   .     A
C1369  C1371   1.421   .     A
C1369  C1401   1.521   .     S
C1370  C1380   1.423   .     A
C1370  C1411   1.531   .     S
C1370  C1372   1.415   .     A
C1371  C1373   1.384   .     A
C1372  C1374   1.386   .     A
C1373  H1385   1.084   .     S
C1373  C1375   1.387   .     A
C1374  H1386   1.082   .     S
C1374  C1376   1.389   .     A
C1375  C1377   1.409   .     A
C1375  C1381   1.404   .     A
C1376  C1382   1.405   .     A
C1376  C1378   1.405   .     A
C1377  C1379   1.424   .     A
C1377  C1298   1.411   1_655 S
C1378  C1380   1.420   .     A
C1381  O1421   1.383   .     S
C1381  C1283   1.398   1_655 S
C1382  O1426   1.389   .     S
Cu1383 O1400   1.950   .     S
Cu1383 O1393   1.970   .     S
Cu1383 Cu1384  2.699   .     S
Cu1383 O1397   1.964   .     S
Cu1383 N1392   2.028   .     S
Cu1383 O1396   1.960   .     S
Cu1384 O1399   1.950   .     S
Cu1384 O1398   1.964   .     S
Cu1384 O1395   1.960   .     S
Cu1384 O1394   1.970   .     S
Cu1384 N1391   2.028   .     S
H1387  C1045   1.088   1_565 S
H1389  N431    1.029   1_556 S
N1392  N431    1.284   1_556 S
N1392  H430    1.029   1_556 S
C1401  C1402   1.537   .     S
C1401  H1409   1.106   .     S
C1401  H1410   1.095   .     S
C1402  H1408   1.106   .     S
C1402  H1407   1.104   .     S
C1402  C1083   1.525   1_565 S
C1403  H1404   1.111   .     S
C1403  H1405   1.108   .     S
C1403  H1406   1.110   .     S
C1411  C1412   1.538   .     S
C1411  H1419   1.112   .     S
C1411  H1420   1.111   .     S
C1412  H1418   1.100   .     S
C1412  H1417   1.103   .     S
C1413  H1415   1.110   .     S
C1413  H1414   1.109   .     S
C1413  C1092   1.528   1_565 S
H1416  C453    1.110   1_556 S
O1421  C1422   1.409   .     S
C1422  H1423   1.111   .     S
C1422  H1425   1.107   .     S
H1424  C1102   1.111   1_565 S
O1426  C1427   1.419   .     S
C1427  H1428   1.108   .     S
C1427  H1430   1.116   .     S
C1427  H1109   1.105   1_565 S
C1432  H1435   1.102   .     S
C1432  H1433   1.115   .     S
C1432  O471    1.416   1_556 S
H1434  C1352   1.113   1_655 S
O1436  C1117   1.412   1_565 S
C1437  H1440   1.108   .     S
C1437  H1359   1.104   1_655 S
H1438  C1117   1.111   1_565 S
