data_str_m3_o2_o5_pcu_sym.87
_audit_creation_date              2020-01-03
_audit_creation_method            'Materials Studio'
_symmetry_space_group_name_H-M    'P1'
_symmetry_Int_Tables_number       1
_symmetry_cell_setting            triclinic
loop_
_symmetry_equiv_pos_as_xyz
  x,y,z
_cell_length_a                    29.7251
_cell_length_b                    28.7484
_cell_length_c                    26.8686
_cell_angle_alpha                 89.9992
_cell_angle_beta                  95.3592
_cell_angle_gamma                 90.0004
loop_
_atom_site_label
_atom_site_type_symbol
_atom_site_fract_x
_atom_site_fract_y
_atom_site_fract_z
_atom_site_U_iso_or_equiv
_atom_site_adp_type
_atom_site_occupancy
C1     C     0.16505   0.25001   0.17417   0.00000  Uiso   1.00
C2     C     0.22095   0.44773   0.13332   0.00000  Uiso   1.00
C3     C     0.24961   0.25001   0.07292   0.00000  Uiso   1.00
C4     C     0.25039   0.25001   0.26042   0.00000  Uiso   1.00
C5     C     0.25000   0.02637   0.16667   0.00000  Uiso   1.00
C6     C     0.25000   0.47342   0.16667   0.00000  Uiso   1.00
C7     C     0.24987   0.25004   0.02177   0.00000  Uiso   1.00
C8     C     0.25013   0.25004   0.31157   0.00000  Uiso   1.00
C9     C     0.04789   0.29135   0.18546   0.00000  Uiso   1.00
C10    C     0.45175   0.20777   0.14807   0.00000  Uiso   1.00
C11    C     0.45210   0.29135   0.14785   0.00000  Uiso   1.00
C12    C     0.33495   0.25001   0.15916   0.00000  Uiso   1.00
C13    C     0.04824   0.20777   0.18523   0.00000  Uiso   1.00
C14    C     0.09465   0.29204   0.19345   0.00000  Uiso   1.00
C15    C     0.40497   0.20772   0.13941   0.00000  Uiso   1.00
C16    C     0.40535   0.29204   0.13987   0.00000  Uiso   1.00
C17    C     0.09503   0.20771   0.19391   0.00000  Uiso   1.00
C18    C     0.11847   0.24996   0.18836   0.00000  Uiso   1.00
C19    C     0.38152   0.24997   0.14496   0.00000  Uiso   1.00
C20    C     0.02452   0.24948   0.17504   0.00000  Uiso   1.00
C21    C     0.47548   0.24948   0.15826   0.00000  Uiso   1.00
C22    C     0.22754   0.10103   0.12762   0.00000  Uiso   1.00
C23    C     0.27721   0.39878   0.20220   0.00000  Uiso   1.00
C24    C     0.27246   0.10103   0.20571   0.00000  Uiso   1.00
C25    C     0.22279   0.39878   0.13113   0.00000  Uiso   1.00
C26    C     0.23047   0.05211   0.12624   0.00000  Uiso   1.00
C27    C     0.27905   0.44773   0.20002   0.00000  Uiso   1.00
C28    C     0.26953   0.05211   0.20709   0.00000  Uiso   1.00
H29    H     0.15316   0.18425   0.05257   0.00000  Uiso   1.00
H30    H     0.35239   0.09343   0.14591   0.00000  Uiso   1.00
H31    H     0.32037   0.36504   0.07016   0.00000  Uiso   1.00
H32    H     0.14761   0.09343   0.18742   0.00000  Uiso   1.00
H33    H     0.21715   0.03437   0.09275   0.00000  Uiso   1.00
H34    H     0.30289   0.46570   0.22580   0.00000  Uiso   1.00
H35    H     0.28285   0.03437   0.24058   0.00000  Uiso   1.00
H36    H     0.19711   0.46570   0.10753   0.00000  Uiso   1.00
H37    H     0.34505   0.31414   0.28284   0.00000  Uiso   1.00
H38    H     0.34677   0.18430   0.28076   0.00000  Uiso   1.00
H39    H     0.15495   0.31415   0.05050   0.00000  Uiso   1.00
H40    H     0.03051   0.32394   0.18852   0.00000  Uiso   1.00
H41    H     0.46888   0.17497   0.14543   0.00000  Uiso   1.00
H42    H     0.46949   0.32394   0.14479   0.00000  Uiso   1.00
H43    H     0.03111   0.17497   0.18787   0.00000  Uiso   1.00
H44    H     0.17962   0.36503   0.26318   0.00000  Uiso   1.00
N45    N     0.25000   0.12624   0.16667   0.00000  Uiso   1.00
N46    N     0.25000   0.37377   0.16667   0.00000  Uiso   1.00
O47    O     0.18453   0.28974   0.16667   0.00000  Uiso   1.00
O48    O     0.16410   0.08910   0.05057   0.00000  Uiso   1.00
O49    O     0.16368   0.17158   0.08593   0.00000  Uiso   1.00
O50    O     0.33861   0.40968   0.28201   0.00000  Uiso   1.00
O51    O     0.27178   0.36385   0.29291   0.00000  Uiso   1.00
O52    O     0.33639   0.32636   0.24881   0.00000  Uiso   1.00
O53    O     0.27219   0.13887   0.29560   0.00000  Uiso   1.00
O54    O     0.33590   0.08910   0.28277   0.00000  Uiso   1.00
O55    O     0.33632   0.17157   0.24740   0.00000  Uiso   1.00
O56    O     0.16139   0.40968   0.05132   0.00000  Uiso   1.00
O57    O     0.22822   0.36386   0.04043   0.00000  Uiso   1.00
O58    O     0.31547   0.21026   0.16666   0.00000  Uiso   1.00
O59    O     0.16361   0.32636   0.08453   0.00000  Uiso   1.00
O60    O     0.13200   0.37357   0.17201   0.00000  Uiso   1.00
O61    O     0.08779   0.37184   0.24416   0.00000  Uiso   1.00
O62    O     0.16708   0.33397   0.25390   0.00000  Uiso   1.00
O63    O     0.33681   0.16707   0.08162   0.00000  Uiso   1.00
O64    O     0.41107   0.13009   0.08499   0.00000  Uiso   1.00
O65    O     0.36589   0.12171   0.16223   0.00000  Uiso   1.00
O66    O     0.36801   0.37356   0.16132   0.00000  Uiso   1.00
O67    O     0.41220   0.37185   0.08917   0.00000  Uiso   1.00
O68    O     0.33291   0.33398   0.07944   0.00000  Uiso   1.00
O69    O     0.31547   0.28974   0.16666   0.00000  Uiso   1.00
O70    O     0.16318   0.16707   0.25171   0.00000  Uiso   1.00
O71    O     0.08892   0.13009   0.24833   0.00000  Uiso   1.00
O72    O     0.13411   0.12171   0.17109   0.00000  Uiso   1.00
O73    O     0.18453   0.21026   0.16667   0.00000  Uiso   1.00
O74    O     0.25000   0.28973   0.09511   0.00000  Uiso   1.00
O75    O     0.25000   0.21027   0.23822   0.00000  Uiso   1.00
O76    O     0.25000   0.28973   0.23822   0.00000  Uiso   1.00
O77    O     0.25000   0.21027   0.09511   0.00000  Uiso   1.00
O78    O     0.22781   0.13888   0.03774   0.00000  Uiso   1.00
S79    S     0.19547   0.12541   0.07455   0.00000  Uiso   1.00
S80    S     0.30634   0.37451   0.25739   0.00000  Uiso   1.00
S81    S     0.30453   0.12541   0.25878   0.00000  Uiso   1.00
S82    S     0.19366   0.37451   0.07594   0.00000  Uiso   1.00
S83    S     0.12027   0.34483   0.21562   0.00000  Uiso   1.00
S84    S     0.37885   0.15591   0.11498   0.00000  Uiso   1.00
S85    S     0.37972   0.34484   0.11771   0.00000  Uiso   1.00
S86    S     0.12114   0.15590   0.21835   0.00000  Uiso   1.00
Zn87   Zn    0.25000   0.30307   0.16667   0.00000  Uiso   1.00
Zn88   Zn    0.25000   0.19693   0.16667   0.00000  Uiso   1.00
C89    C     0.66505   0.25001   0.17417   0.00000  Uiso   1.00
C90    C     0.72095   0.44773   0.13332   0.00000  Uiso   1.00
C91    C     0.74961   0.25001   0.07292   0.00000  Uiso   1.00
C92    C     0.75039   0.25001   0.26042   0.00000  Uiso   1.00
C93    C     0.75000   0.02637   0.16667   0.00000  Uiso   1.00
C94    C     0.75000   0.47342   0.16667   0.00000  Uiso   1.00
C95    C     0.74987   0.25004   0.02177   0.00000  Uiso   1.00
C96    C     0.75013   0.25004   0.31157   0.00000  Uiso   1.00
C97    C     0.54789   0.29135   0.18546   0.00000  Uiso   1.00
C98    C     0.95175   0.20777   0.14807   0.00000  Uiso   1.00
C99    C     0.95210   0.29135   0.14785   0.00000  Uiso   1.00
C100   C     0.83495   0.25001   0.15916   0.00000  Uiso   1.00
C101   C     0.54824   0.20777   0.18523   0.00000  Uiso   1.00
C102   C     0.59465   0.29204   0.19345   0.00000  Uiso   1.00
C103   C     0.90497   0.20772   0.13941   0.00000  Uiso   1.00
C104   C     0.90535   0.29204   0.13987   0.00000  Uiso   1.00
C105   C     0.59503   0.20771   0.19391   0.00000  Uiso   1.00
C106   C     0.61847   0.24996   0.18836   0.00000  Uiso   1.00
C107   C     0.88152   0.24997   0.14496   0.00000  Uiso   1.00
C108   C     0.52452   0.24948   0.17504   0.00000  Uiso   1.00
C109   C     0.97548   0.24948   0.15826   0.00000  Uiso   1.00
C110   C     0.72754   0.10103   0.12762   0.00000  Uiso   1.00
C111   C     0.77721   0.39878   0.20220   0.00000  Uiso   1.00
C112   C     0.77246   0.10103   0.20571   0.00000  Uiso   1.00
C113   C     0.72279   0.39878   0.13113   0.00000  Uiso   1.00
C114   C     0.73047   0.05211   0.12624   0.00000  Uiso   1.00
C115   C     0.77905   0.44773   0.20002   0.00000  Uiso   1.00
C116   C     0.76953   0.05211   0.20709   0.00000  Uiso   1.00
H117   H     0.65316   0.18425   0.05257   0.00000  Uiso   1.00
H118   H     0.85239   0.09343   0.14591   0.00000  Uiso   1.00
H119   H     0.82037   0.36504   0.07016   0.00000  Uiso   1.00
H120   H     0.64761   0.09343   0.18742   0.00000  Uiso   1.00
H121   H     0.71715   0.03437   0.09275   0.00000  Uiso   1.00
H122   H     0.80289   0.46570   0.22580   0.00000  Uiso   1.00
H123   H     0.78285   0.03437   0.24058   0.00000  Uiso   1.00
H124   H     0.69711   0.46570   0.10753   0.00000  Uiso   1.00
H125   H     0.84505   0.31414   0.28284   0.00000  Uiso   1.00
H126   H     0.84677   0.18430   0.28076   0.00000  Uiso   1.00
H127   H     0.65495   0.31415   0.05050   0.00000  Uiso   1.00
H128   H     0.53051   0.32394   0.18852   0.00000  Uiso   1.00
H129   H     0.96888   0.17497   0.14543   0.00000  Uiso   1.00
H130   H     0.96949   0.32394   0.14479   0.00000  Uiso   1.00
H131   H     0.53111   0.17497   0.18787   0.00000  Uiso   1.00
H132   H     0.67962   0.36503   0.26318   0.00000  Uiso   1.00
N133   N     0.75000   0.12624   0.16667   0.00000  Uiso   1.00
N134   N     0.75000   0.37377   0.16667   0.00000  Uiso   1.00
O135   O     0.68453   0.28974   0.16667   0.00000  Uiso   1.00
O136   O     0.66410   0.08910   0.05057   0.00000  Uiso   1.00
O137   O     0.66368   0.17158   0.08593   0.00000  Uiso   1.00
O138   O     0.83861   0.40968   0.28201   0.00000  Uiso   1.00
O139   O     0.77178   0.36385   0.29291   0.00000  Uiso   1.00
O140   O     0.83639   0.32636   0.24881   0.00000  Uiso   1.00
O141   O     0.77219   0.13887   0.29560   0.00000  Uiso   1.00
O142   O     0.83590   0.08910   0.28277   0.00000  Uiso   1.00
O143   O     0.83632   0.17157   0.24740   0.00000  Uiso   1.00
O144   O     0.66139   0.40968   0.05132   0.00000  Uiso   1.00
O145   O     0.72822   0.36386   0.04043   0.00000  Uiso   1.00
O146   O     0.81547   0.21026   0.16666   0.00000  Uiso   1.00
O147   O     0.66361   0.32636   0.08453   0.00000  Uiso   1.00
O148   O     0.63200   0.37357   0.17201   0.00000  Uiso   1.00
O149   O     0.58779   0.37184   0.24416   0.00000  Uiso   1.00
O150   O     0.66708   0.33397   0.25390   0.00000  Uiso   1.00
O151   O     0.83681   0.16707   0.08162   0.00000  Uiso   1.00
O152   O     0.91107   0.13009   0.08499   0.00000  Uiso   1.00
O153   O     0.86589   0.12171   0.16223   0.00000  Uiso   1.00
O154   O     0.86801   0.37356   0.16132   0.00000  Uiso   1.00
O155   O     0.91220   0.37185   0.08917   0.00000  Uiso   1.00
O156   O     0.83291   0.33398   0.07944   0.00000  Uiso   1.00
O157   O     0.81547   0.28974   0.16666   0.00000  Uiso   1.00
O158   O     0.66318   0.16707   0.25171   0.00000  Uiso   1.00
O159   O     0.58892   0.13009   0.24833   0.00000  Uiso   1.00
O160   O     0.63411   0.12171   0.17109   0.00000  Uiso   1.00
O161   O     0.68453   0.21026   0.16667   0.00000  Uiso   1.00
O162   O     0.75000   0.28973   0.09511   0.00000  Uiso   1.00
O163   O     0.75000   0.21027   0.23822   0.00000  Uiso   1.00
O164   O     0.75000   0.28973   0.23822   0.00000  Uiso   1.00
O165   O     0.75000   0.21027   0.09511   0.00000  Uiso   1.00
O166   O     0.72781   0.13888   0.03774   0.00000  Uiso   1.00
S167   S     0.69547   0.12541   0.07455   0.00000  Uiso   1.00
S168   S     0.80634   0.37451   0.25739   0.00000  Uiso   1.00
S169   S     0.80453   0.12541   0.25878   0.00000  Uiso   1.00
S170   S     0.69366   0.37451   0.07594   0.00000  Uiso   1.00
S171   S     0.62027   0.34483   0.21562   0.00000  Uiso   1.00
S172   S     0.87885   0.15591   0.11498   0.00000  Uiso   1.00
S173   S     0.87972   0.34484   0.11771   0.00000  Uiso   1.00
S174   S     0.62114   0.15590   0.21835   0.00000  Uiso   1.00
Zn175  Zn    0.75000   0.30307   0.16667   0.00000  Uiso   1.00
Zn176  Zn    0.75000   0.19693   0.16667   0.00000  Uiso   1.00
C177   C     0.16505   0.75001   0.17417   0.00000  Uiso   1.00
C178   C     0.22095   0.94773   0.13332   0.00000  Uiso   1.00
C179   C     0.24961   0.75001   0.07292   0.00000  Uiso   1.00
C180   C     0.25039   0.75001   0.26042   0.00000  Uiso   1.00
C181   C     0.25000   0.52637   0.16667   0.00000  Uiso   1.00
C182   C     0.25000   0.97342   0.16667   0.00000  Uiso   1.00
C183   C     0.24987   0.75004   0.02177   0.00000  Uiso   1.00
C184   C     0.25013   0.75004   0.31157   0.00000  Uiso   1.00
C185   C     0.04789   0.79135   0.18546   0.00000  Uiso   1.00
C186   C     0.45175   0.70777   0.14807   0.00000  Uiso   1.00
C187   C     0.45210   0.79135   0.14785   0.00000  Uiso   1.00
C188   C     0.33495   0.75001   0.15916   0.00000  Uiso   1.00
C189   C     0.04824   0.70777   0.18523   0.00000  Uiso   1.00
C190   C     0.09465   0.79204   0.19345   0.00000  Uiso   1.00
C191   C     0.40497   0.70772   0.13941   0.00000  Uiso   1.00
C192   C     0.40535   0.79204   0.13987   0.00000  Uiso   1.00
C193   C     0.09503   0.70771   0.19391   0.00000  Uiso   1.00
C194   C     0.11847   0.74996   0.18836   0.00000  Uiso   1.00
C195   C     0.38152   0.74997   0.14496   0.00000  Uiso   1.00
C196   C     0.02452   0.74948   0.17504   0.00000  Uiso   1.00
C197   C     0.47548   0.74948   0.15826   0.00000  Uiso   1.00
C198   C     0.22754   0.60103   0.12762   0.00000  Uiso   1.00
C199   C     0.27721   0.89878   0.20220   0.00000  Uiso   1.00
C200   C     0.27246   0.60103   0.20571   0.00000  Uiso   1.00
C201   C     0.22279   0.89878   0.13113   0.00000  Uiso   1.00
C202   C     0.23047   0.55211   0.12624   0.00000  Uiso   1.00
C203   C     0.27905   0.94773   0.20002   0.00000  Uiso   1.00
C204   C     0.26953   0.55211   0.20709   0.00000  Uiso   1.00
H205   H     0.15316   0.68425   0.05257   0.00000  Uiso   1.00
H206   H     0.35239   0.59343   0.14591   0.00000  Uiso   1.00
H207   H     0.32037   0.86504   0.07016   0.00000  Uiso   1.00
H208   H     0.14761   0.59343   0.18742   0.00000  Uiso   1.00
H209   H     0.21715   0.53437   0.09275   0.00000  Uiso   1.00
H210   H     0.30289   0.96570   0.22580   0.00000  Uiso   1.00
H211   H     0.28285   0.53437   0.24058   0.00000  Uiso   1.00
H212   H     0.19711   0.96570   0.10753   0.00000  Uiso   1.00
H213   H     0.34505   0.81414   0.28284   0.00000  Uiso   1.00
H214   H     0.34677   0.68430   0.28076   0.00000  Uiso   1.00
H215   H     0.15495   0.81415   0.05050   0.00000  Uiso   1.00
H216   H     0.03051   0.82394   0.18852   0.00000  Uiso   1.00
H217   H     0.46888   0.67497   0.14543   0.00000  Uiso   1.00
H218   H     0.46949   0.82394   0.14479   0.00000  Uiso   1.00
H219   H     0.03111   0.67497   0.18787   0.00000  Uiso   1.00
H220   H     0.17962   0.86503   0.26318   0.00000  Uiso   1.00
N221   N     0.25000   0.62624   0.16667   0.00000  Uiso   1.00
N222   N     0.25000   0.87377   0.16667   0.00000  Uiso   1.00
O223   O     0.18453   0.78974   0.16667   0.00000  Uiso   1.00
O224   O     0.16410   0.58910   0.05057   0.00000  Uiso   1.00
O225   O     0.16368   0.67158   0.08593   0.00000  Uiso   1.00
O226   O     0.33861   0.90968   0.28201   0.00000  Uiso   1.00
O227   O     0.27178   0.86385   0.29291   0.00000  Uiso   1.00
O228   O     0.33639   0.82636   0.24881   0.00000  Uiso   1.00
O229   O     0.27219   0.63887   0.29560   0.00000  Uiso   1.00
O230   O     0.33590   0.58910   0.28277   0.00000  Uiso   1.00
O231   O     0.33632   0.67157   0.24740   0.00000  Uiso   1.00
O232   O     0.16139   0.90968   0.05132   0.00000  Uiso   1.00
O233   O     0.22822   0.86386   0.04043   0.00000  Uiso   1.00
O234   O     0.31547   0.71026   0.16666   0.00000  Uiso   1.00
O235   O     0.16361   0.82636   0.08453   0.00000  Uiso   1.00
O236   O     0.13200   0.87357   0.17201   0.00000  Uiso   1.00
O237   O     0.08779   0.87184   0.24416   0.00000  Uiso   1.00
O238   O     0.16708   0.83397   0.25390   0.00000  Uiso   1.00
O239   O     0.33681   0.66707   0.08162   0.00000  Uiso   1.00
O240   O     0.41107   0.63009   0.08499   0.00000  Uiso   1.00
O241   O     0.36589   0.62171   0.16223   0.00000  Uiso   1.00
O242   O     0.36801   0.87356   0.16132   0.00000  Uiso   1.00
O243   O     0.41220   0.87185   0.08917   0.00000  Uiso   1.00
O244   O     0.33291   0.83398   0.07944   0.00000  Uiso   1.00
O245   O     0.31547   0.78974   0.16666   0.00000  Uiso   1.00
O246   O     0.16318   0.66707   0.25171   0.00000  Uiso   1.00
O247   O     0.08892   0.63009   0.24833   0.00000  Uiso   1.00
O248   O     0.13411   0.62171   0.17109   0.00000  Uiso   1.00
O249   O     0.18453   0.71026   0.16667   0.00000  Uiso   1.00
O250   O     0.25000   0.78973   0.09511   0.00000  Uiso   1.00
O251   O     0.25000   0.71027   0.23822   0.00000  Uiso   1.00
O252   O     0.25000   0.78973   0.23822   0.00000  Uiso   1.00
O253   O     0.25000   0.71027   0.09511   0.00000  Uiso   1.00
O254   O     0.22781   0.63888   0.03774   0.00000  Uiso   1.00
S255   S     0.19547   0.62541   0.07455   0.00000  Uiso   1.00
S256   S     0.30634   0.87451   0.25739   0.00000  Uiso   1.00
S257   S     0.30453   0.62541   0.25878   0.00000  Uiso   1.00
S258   S     0.19366   0.87451   0.07594   0.00000  Uiso   1.00
S259   S     0.12027   0.84483   0.21562   0.00000  Uiso   1.00
S260   S     0.37885   0.65591   0.11498   0.00000  Uiso   1.00
S261   S     0.37972   0.84484   0.11771   0.00000  Uiso   1.00
S262   S     0.12114   0.65590   0.21835   0.00000  Uiso   1.00
Zn263  Zn    0.25000   0.80307   0.16667   0.00000  Uiso   1.00
Zn264  Zn    0.25000   0.69693   0.16667   0.00000  Uiso   1.00
C265   C     0.66505   0.75001   0.17417   0.00000  Uiso   1.00
C266   C     0.72095   0.94773   0.13332   0.00000  Uiso   1.00
C267   C     0.74961   0.75001   0.07292   0.00000  Uiso   1.00
C268   C     0.75039   0.75001   0.26042   0.00000  Uiso   1.00
C269   C     0.75000   0.52637   0.16667   0.00000  Uiso   1.00
C270   C     0.75000   0.97342   0.16667   0.00000  Uiso   1.00
C271   C     0.74987   0.75004   0.02177   0.00000  Uiso   1.00
C272   C     0.75013   0.75004   0.31157   0.00000  Uiso   1.00
C273   C     0.54789   0.79135   0.18546   0.00000  Uiso   1.00
C274   C     0.95175   0.70777   0.14807   0.00000  Uiso   1.00
C275   C     0.95210   0.79135   0.14785   0.00000  Uiso   1.00
C276   C     0.83495   0.75001   0.15916   0.00000  Uiso   1.00
C277   C     0.54824   0.70777   0.18523   0.00000  Uiso   1.00
C278   C     0.59465   0.79204   0.19345   0.00000  Uiso   1.00
C279   C     0.90497   0.70772   0.13941   0.00000  Uiso   1.00
C280   C     0.90535   0.79204   0.13987   0.00000  Uiso   1.00
C281   C     0.59503   0.70771   0.19391   0.00000  Uiso   1.00
C282   C     0.61847   0.74996   0.18836   0.00000  Uiso   1.00
C283   C     0.88152   0.74997   0.14496   0.00000  Uiso   1.00
C284   C     0.52452   0.74948   0.17504   0.00000  Uiso   1.00
C285   C     0.97548   0.74948   0.15826   0.00000  Uiso   1.00
C286   C     0.72754   0.60103   0.12762   0.00000  Uiso   1.00
C287   C     0.77721   0.89878   0.20220   0.00000  Uiso   1.00
C288   C     0.77246   0.60103   0.20571   0.00000  Uiso   1.00
C289   C     0.72279   0.89878   0.13113   0.00000  Uiso   1.00
C290   C     0.73047   0.55211   0.12624   0.00000  Uiso   1.00
C291   C     0.77905   0.94773   0.20002   0.00000  Uiso   1.00
C292   C     0.76953   0.55211   0.20709   0.00000  Uiso   1.00
H293   H     0.65316   0.68425   0.05257   0.00000  Uiso   1.00
H294   H     0.85239   0.59343   0.14591   0.00000  Uiso   1.00
H295   H     0.82037   0.86504   0.07016   0.00000  Uiso   1.00
H296   H     0.64761   0.59343   0.18742   0.00000  Uiso   1.00
H297   H     0.71715   0.53437   0.09275   0.00000  Uiso   1.00
H298   H     0.80289   0.96570   0.22580   0.00000  Uiso   1.00
H299   H     0.78285   0.53437   0.24058   0.00000  Uiso   1.00
H300   H     0.69711   0.96570   0.10753   0.00000  Uiso   1.00
H301   H     0.84505   0.81414   0.28284   0.00000  Uiso   1.00
H302   H     0.84677   0.68430   0.28076   0.00000  Uiso   1.00
H303   H     0.65495   0.81415   0.05050   0.00000  Uiso   1.00
H304   H     0.53051   0.82394   0.18852   0.00000  Uiso   1.00
H305   H     0.96888   0.67497   0.14543   0.00000  Uiso   1.00
H306   H     0.96949   0.82394   0.14479   0.00000  Uiso   1.00
H307   H     0.53111   0.67497   0.18787   0.00000  Uiso   1.00
H308   H     0.67962   0.86503   0.26318   0.00000  Uiso   1.00
N309   N     0.75000   0.62624   0.16667   0.00000  Uiso   1.00
N310   N     0.75000   0.87377   0.16667   0.00000  Uiso   1.00
O311   O     0.68453   0.78974   0.16667   0.00000  Uiso   1.00
O312   O     0.66410   0.58910   0.05057   0.00000  Uiso   1.00
O313   O     0.66368   0.67158   0.08593   0.00000  Uiso   1.00
O314   O     0.83861   0.90968   0.28201   0.00000  Uiso   1.00
O315   O     0.77178   0.86385   0.29291   0.00000  Uiso   1.00
O316   O     0.83639   0.82636   0.24881   0.00000  Uiso   1.00
O317   O     0.77219   0.63887   0.29560   0.00000  Uiso   1.00
O318   O     0.83590   0.58910   0.28277   0.00000  Uiso   1.00
O319   O     0.83632   0.67157   0.24740   0.00000  Uiso   1.00
O320   O     0.66139   0.90968   0.05132   0.00000  Uiso   1.00
O321   O     0.72822   0.86386   0.04043   0.00000  Uiso   1.00
O322   O     0.81547   0.71026   0.16666   0.00000  Uiso   1.00
O323   O     0.66361   0.82636   0.08453   0.00000  Uiso   1.00
O324   O     0.63200   0.87357   0.17201   0.00000  Uiso   1.00
O325   O     0.58779   0.87184   0.24416   0.00000  Uiso   1.00
O326   O     0.66708   0.83397   0.25390   0.00000  Uiso   1.00
O327   O     0.83681   0.66707   0.08162   0.00000  Uiso   1.00
O328   O     0.91107   0.63009   0.08499   0.00000  Uiso   1.00
O329   O     0.86589   0.62171   0.16223   0.00000  Uiso   1.00
O330   O     0.86801   0.87356   0.16132   0.00000  Uiso   1.00
O331   O     0.91220   0.87185   0.08917   0.00000  Uiso   1.00
O332   O     0.83291   0.83398   0.07944   0.00000  Uiso   1.00
O333   O     0.81547   0.78974   0.16666   0.00000  Uiso   1.00
O334   O     0.66318   0.66707   0.25171   0.00000  Uiso   1.00
O335   O     0.58892   0.63009   0.24833   0.00000  Uiso   1.00
O336   O     0.63411   0.62171   0.17109   0.00000  Uiso   1.00
O337   O     0.68453   0.71026   0.16667   0.00000  Uiso   1.00
O338   O     0.75000   0.78973   0.09511   0.00000  Uiso   1.00
O339   O     0.75000   0.71027   0.23822   0.00000  Uiso   1.00
O340   O     0.75000   0.78973   0.23822   0.00000  Uiso   1.00
O341   O     0.75000   0.71027   0.09511   0.00000  Uiso   1.00
O342   O     0.72781   0.63888   0.03774   0.00000  Uiso   1.00
S343   S     0.69547   0.62541   0.07455   0.00000  Uiso   1.00
S344   S     0.80634   0.87451   0.25739   0.00000  Uiso   1.00
S345   S     0.80453   0.62541   0.25878   0.00000  Uiso   1.00
S346   S     0.69366   0.87451   0.07594   0.00000  Uiso   1.00
S347   S     0.62027   0.84483   0.21562   0.00000  Uiso   1.00
S348   S     0.87885   0.65591   0.11498   0.00000  Uiso   1.00
S349   S     0.87972   0.84484   0.11771   0.00000  Uiso   1.00
S350   S     0.62114   0.65590   0.21835   0.00000  Uiso   1.00
Zn351  Zn    0.75000   0.80307   0.16667   0.00000  Uiso   1.00
Zn352  Zn    0.75000   0.69693   0.16667   0.00000  Uiso   1.00
C353   C     0.16505   0.25001   0.50750   0.00000  Uiso   1.00
C354   C     0.22095   0.44773   0.46665   0.00000  Uiso   1.00
C355   C     0.24961   0.25001   0.40625   0.00000  Uiso   1.00
C356   C     0.25039   0.25001   0.59375   0.00000  Uiso   1.00
C357   C     0.25000   0.02637   0.50000   0.00000  Uiso   1.00
C358   C     0.25000   0.47342   0.50000   0.00000  Uiso   1.00
C359   C     0.24987   0.25004   0.35510   0.00000  Uiso   1.00
C360   C     0.25013   0.25004   0.64490   0.00000  Uiso   1.00
C361   C     0.04789   0.29135   0.51879   0.00000  Uiso   1.00
C362   C     0.45175   0.20777   0.48141   0.00000  Uiso   1.00
C363   C     0.45210   0.29135   0.48118   0.00000  Uiso   1.00
C364   C     0.33495   0.25001   0.49250   0.00000  Uiso   1.00
C365   C     0.04824   0.20777   0.51856   0.00000  Uiso   1.00
C366   C     0.09465   0.29204   0.52679   0.00000  Uiso   1.00
C367   C     0.40497   0.20772   0.47274   0.00000  Uiso   1.00
C368   C     0.40535   0.29204   0.47320   0.00000  Uiso   1.00
C369   C     0.09503   0.20771   0.52724   0.00000  Uiso   1.00
C370   C     0.11847   0.24996   0.52169   0.00000  Uiso   1.00
C371   C     0.38152   0.24997   0.47830   0.00000  Uiso   1.00
C372   C     0.02452   0.24948   0.50837   0.00000  Uiso   1.00
C373   C     0.47548   0.24948   0.49160   0.00000  Uiso   1.00
C374   C     0.22754   0.10103   0.46096   0.00000  Uiso   1.00
C375   C     0.27721   0.39878   0.53553   0.00000  Uiso   1.00
C376   C     0.27246   0.10103   0.53904   0.00000  Uiso   1.00
C377   C     0.22279   0.39878   0.46447   0.00000  Uiso   1.00
C378   C     0.23047   0.05211   0.45958   0.00000  Uiso   1.00
C379   C     0.27905   0.44773   0.53335   0.00000  Uiso   1.00
C380   C     0.26953   0.05211   0.54042   0.00000  Uiso   1.00
H381   H     0.15316   0.18425   0.38590   0.00000  Uiso   1.00
H382   H     0.35239   0.09343   0.47925   0.00000  Uiso   1.00
H383   H     0.32037   0.36504   0.40350   0.00000  Uiso   1.00
H384   H     0.14761   0.09343   0.52075   0.00000  Uiso   1.00
H385   H     0.21715   0.03437   0.42608   0.00000  Uiso   1.00
H386   H     0.30289   0.46570   0.55914   0.00000  Uiso   1.00
H387   H     0.28285   0.03437   0.57392   0.00000  Uiso   1.00
H388   H     0.19711   0.46570   0.44086   0.00000  Uiso   1.00
H389   H     0.34505   0.31414   0.61617   0.00000  Uiso   1.00
H390   H     0.34677   0.18430   0.61409   0.00000  Uiso   1.00
H391   H     0.15495   0.31415   0.38383   0.00000  Uiso   1.00
H392   H     0.03051   0.32394   0.52185   0.00000  Uiso   1.00
H393   H     0.46888   0.17497   0.47876   0.00000  Uiso   1.00
H394   H     0.46949   0.32394   0.47812   0.00000  Uiso   1.00
H395   H     0.03111   0.17497   0.52121   0.00000  Uiso   1.00
H396   H     0.17962   0.36503   0.59651   0.00000  Uiso   1.00
N397   N     0.25000   0.12624   0.50000   0.00000  Uiso   1.00
N398   N     0.25000   0.37377   0.50000   0.00000  Uiso   1.00
O399   O     0.18453   0.28974   0.50000   0.00000  Uiso   1.00
O400   O     0.16410   0.08910   0.38390   0.00000  Uiso   1.00
O401   O     0.16368   0.17158   0.41926   0.00000  Uiso   1.00
O402   O     0.33861   0.40968   0.61535   0.00000  Uiso   1.00
O403   O     0.27178   0.36385   0.62624   0.00000  Uiso   1.00
O404   O     0.33639   0.32636   0.58214   0.00000  Uiso   1.00
O405   O     0.27219   0.13887   0.62893   0.00000  Uiso   1.00
O406   O     0.33590   0.08910   0.61610   0.00000  Uiso   1.00
O407   O     0.33632   0.17157   0.58074   0.00000  Uiso   1.00
O408   O     0.16139   0.40968   0.38465   0.00000  Uiso   1.00
O409   O     0.22822   0.36386   0.37376   0.00000  Uiso   1.00
O410   O     0.31547   0.21026   0.50000   0.00000  Uiso   1.00
O411   O     0.16361   0.32636   0.41786   0.00000  Uiso   1.00
O412   O     0.13200   0.37357   0.50535   0.00000  Uiso   1.00
O413   O     0.08779   0.37184   0.57749   0.00000  Uiso   1.00
O414   O     0.16708   0.33397   0.58723   0.00000  Uiso   1.00
O415   O     0.33681   0.16707   0.41495   0.00000  Uiso   1.00
O416   O     0.41107   0.13009   0.41832   0.00000  Uiso   1.00
O417   O     0.36589   0.12171   0.49557   0.00000  Uiso   1.00
O418   O     0.36801   0.37356   0.49466   0.00000  Uiso   1.00
O419   O     0.41220   0.37185   0.42250   0.00000  Uiso   1.00
O420   O     0.33291   0.33398   0.41277   0.00000  Uiso   1.00
O421   O     0.31547   0.28974   0.50000   0.00000  Uiso   1.00
O422   O     0.16318   0.16707   0.58505   0.00000  Uiso   1.00
O423   O     0.08892   0.13009   0.58166   0.00000  Uiso   1.00
O424   O     0.13411   0.12171   0.50443   0.00000  Uiso   1.00
O425   O     0.18453   0.21026   0.50000   0.00000  Uiso   1.00
O426   O     0.25000   0.28973   0.42845   0.00000  Uiso   1.00
O427   O     0.25000   0.21027   0.57155   0.00000  Uiso   1.00
O428   O     0.25000   0.28973   0.57155   0.00000  Uiso   1.00
O429   O     0.25000   0.21027   0.42845   0.00000  Uiso   1.00
O430   O     0.22781   0.13888   0.37107   0.00000  Uiso   1.00
S431   S     0.19547   0.12541   0.40789   0.00000  Uiso   1.00
S432   S     0.30634   0.37451   0.59072   0.00000  Uiso   1.00
S433   S     0.30453   0.12541   0.59211   0.00000  Uiso   1.00
S434   S     0.19366   0.37451   0.40928   0.00000  Uiso   1.00
S435   S     0.12027   0.34483   0.54896   0.00000  Uiso   1.00
S436   S     0.37885   0.15591   0.44831   0.00000  Uiso   1.00
S437   S     0.37972   0.34484   0.45104   0.00000  Uiso   1.00
S438   S     0.12114   0.15590   0.55168   0.00000  Uiso   1.00
Zn439  Zn    0.25000   0.30307   0.50000   0.00000  Uiso   1.00
Zn440  Zn    0.25000   0.19693   0.50000   0.00000  Uiso   1.00
C441   C     0.66505   0.25001   0.50750   0.00000  Uiso   1.00
C442   C     0.72095   0.44773   0.46665   0.00000  Uiso   1.00
C443   C     0.74961   0.25001   0.40625   0.00000  Uiso   1.00
C444   C     0.75039   0.25001   0.59375   0.00000  Uiso   1.00
C445   C     0.75000   0.02637   0.50000   0.00000  Uiso   1.00
C446   C     0.75000   0.47342   0.50000   0.00000  Uiso   1.00
C447   C     0.74987   0.25004   0.35510   0.00000  Uiso   1.00
C448   C     0.75013   0.25004   0.64490   0.00000  Uiso   1.00
C449   C     0.54789   0.29135   0.51879   0.00000  Uiso   1.00
C450   C     0.95175   0.20777   0.48141   0.00000  Uiso   1.00
C451   C     0.95210   0.29135   0.48118   0.00000  Uiso   1.00
C452   C     0.83495   0.25001   0.49250   0.00000  Uiso   1.00
C453   C     0.54824   0.20777   0.51856   0.00000  Uiso   1.00
C454   C     0.59465   0.29204   0.52679   0.00000  Uiso   1.00
C455   C     0.90497   0.20772   0.47274   0.00000  Uiso   1.00
C456   C     0.90535   0.29204   0.47320   0.00000  Uiso   1.00
C457   C     0.59503   0.20771   0.52724   0.00000  Uiso   1.00
C458   C     0.61847   0.24996   0.52169   0.00000  Uiso   1.00
C459   C     0.88152   0.24997   0.47830   0.00000  Uiso   1.00
C460   C     0.52452   0.24948   0.50837   0.00000  Uiso   1.00
C461   C     0.97548   0.24948   0.49160   0.00000  Uiso   1.00
C462   C     0.72754   0.10103   0.46096   0.00000  Uiso   1.00
C463   C     0.77721   0.39878   0.53553   0.00000  Uiso   1.00
C464   C     0.77246   0.10103   0.53904   0.00000  Uiso   1.00
C465   C     0.72279   0.39878   0.46447   0.00000  Uiso   1.00
C466   C     0.73047   0.05211   0.45958   0.00000  Uiso   1.00
C467   C     0.77905   0.44773   0.53335   0.00000  Uiso   1.00
C468   C     0.76953   0.05211   0.54042   0.00000  Uiso   1.00
H469   H     0.65316   0.18425   0.38590   0.00000  Uiso   1.00
H470   H     0.85239   0.09343   0.47925   0.00000  Uiso   1.00
H471   H     0.82037   0.36504   0.40350   0.00000  Uiso   1.00
H472   H     0.64761   0.09343   0.52075   0.00000  Uiso   1.00
H473   H     0.71715   0.03437   0.42608   0.00000  Uiso   1.00
H474   H     0.80289   0.46570   0.55914   0.00000  Uiso   1.00
H475   H     0.78285   0.03437   0.57392   0.00000  Uiso   1.00
H476   H     0.69711   0.46570   0.44086   0.00000  Uiso   1.00
H477   H     0.84505   0.31414   0.61617   0.00000  Uiso   1.00
H478   H     0.84677   0.18430   0.61409   0.00000  Uiso   1.00
H479   H     0.65495   0.31415   0.38383   0.00000  Uiso   1.00
H480   H     0.53051   0.32394   0.52185   0.00000  Uiso   1.00
H481   H     0.96888   0.17497   0.47876   0.00000  Uiso   1.00
H482   H     0.96949   0.32394   0.47812   0.00000  Uiso   1.00
H483   H     0.53111   0.17497   0.52121   0.00000  Uiso   1.00
H484   H     0.67962   0.36503   0.59651   0.00000  Uiso   1.00
N485   N     0.75000   0.12624   0.50000   0.00000  Uiso   1.00
N486   N     0.75000   0.37377   0.50000   0.00000  Uiso   1.00
O487   O     0.68453   0.28974   0.50000   0.00000  Uiso   1.00
O488   O     0.66410   0.08910   0.38390   0.00000  Uiso   1.00
O489   O     0.66368   0.17158   0.41926   0.00000  Uiso   1.00
O490   O     0.83861   0.40968   0.61535   0.00000  Uiso   1.00
O491   O     0.77178   0.36385   0.62624   0.00000  Uiso   1.00
O492   O     0.83639   0.32636   0.58214   0.00000  Uiso   1.00
O493   O     0.77219   0.13887   0.62893   0.00000  Uiso   1.00
O494   O     0.83590   0.08910   0.61610   0.00000  Uiso   1.00
O495   O     0.83632   0.17157   0.58074   0.00000  Uiso   1.00
O496   O     0.66139   0.40968   0.38465   0.00000  Uiso   1.00
O497   O     0.72822   0.36386   0.37376   0.00000  Uiso   1.00
O498   O     0.81547   0.21026   0.50000   0.00000  Uiso   1.00
O499   O     0.66361   0.32636   0.41786   0.00000  Uiso   1.00
O500   O     0.63200   0.37357   0.50535   0.00000  Uiso   1.00
O501   O     0.58779   0.37184   0.57749   0.00000  Uiso   1.00
O502   O     0.66708   0.33397   0.58723   0.00000  Uiso   1.00
O503   O     0.83681   0.16707   0.41495   0.00000  Uiso   1.00
O504   O     0.91107   0.13009   0.41832   0.00000  Uiso   1.00
O505   O     0.86589   0.12171   0.49557   0.00000  Uiso   1.00
O506   O     0.86801   0.37356   0.49466   0.00000  Uiso   1.00
O507   O     0.91220   0.37185   0.42250   0.00000  Uiso   1.00
O508   O     0.83291   0.33398   0.41277   0.00000  Uiso   1.00
O509   O     0.81547   0.28974   0.50000   0.00000  Uiso   1.00
O510   O     0.66318   0.16707   0.58505   0.00000  Uiso   1.00
O511   O     0.58892   0.13009   0.58166   0.00000  Uiso   1.00
O512   O     0.63411   0.12171   0.50443   0.00000  Uiso   1.00
O513   O     0.68453   0.21026   0.50000   0.00000  Uiso   1.00
O514   O     0.75000   0.28973   0.42845   0.00000  Uiso   1.00
O515   O     0.75000   0.21027   0.57155   0.00000  Uiso   1.00
O516   O     0.75000   0.28973   0.57155   0.00000  Uiso   1.00
O517   O     0.75000   0.21027   0.42845   0.00000  Uiso   1.00
O518   O     0.72781   0.13888   0.37107   0.00000  Uiso   1.00
S519   S     0.69547   0.12541   0.40789   0.00000  Uiso   1.00
S520   S     0.80634   0.37451   0.59072   0.00000  Uiso   1.00
S521   S     0.80453   0.12541   0.59211   0.00000  Uiso   1.00
S522   S     0.69366   0.37451   0.40928   0.00000  Uiso   1.00
S523   S     0.62027   0.34483   0.54896   0.00000  Uiso   1.00
S524   S     0.87885   0.15591   0.44831   0.00000  Uiso   1.00
S525   S     0.87972   0.34484   0.45104   0.00000  Uiso   1.00
S526   S     0.62114   0.15590   0.55168   0.00000  Uiso   1.00
Zn527  Zn    0.75000   0.30307   0.50000   0.00000  Uiso   1.00
Zn528  Zn    0.75000   0.19693   0.50000   0.00000  Uiso   1.00
C529   C     0.16505   0.75001   0.50750   0.00000  Uiso   1.00
C530   C     0.22095   0.94773   0.46665   0.00000  Uiso   1.00
C531   C     0.24961   0.75001   0.40625   0.00000  Uiso   1.00
C532   C     0.25039   0.75001   0.59375   0.00000  Uiso   1.00
C533   C     0.25000   0.52637   0.50000   0.00000  Uiso   1.00
C534   C     0.25000   0.97342   0.50000   0.00000  Uiso   1.00
C535   C     0.24987   0.75004   0.35510   0.00000  Uiso   1.00
C536   C     0.25013   0.75004   0.64490   0.00000  Uiso   1.00
C537   C     0.04789   0.79135   0.51879   0.00000  Uiso   1.00
C538   C     0.45175   0.70777   0.48141   0.00000  Uiso   1.00
C539   C     0.45210   0.79135   0.48118   0.00000  Uiso   1.00
C540   C     0.33495   0.75001   0.49250   0.00000  Uiso   1.00
C541   C     0.04824   0.70777   0.51856   0.00000  Uiso   1.00
C542   C     0.09465   0.79204   0.52679   0.00000  Uiso   1.00
C543   C     0.40497   0.70772   0.47274   0.00000  Uiso   1.00
C544   C     0.40535   0.79204   0.47320   0.00000  Uiso   1.00
C545   C     0.09503   0.70771   0.52724   0.00000  Uiso   1.00
C546   C     0.11847   0.74996   0.52169   0.00000  Uiso   1.00
C547   C     0.38152   0.74997   0.47830   0.00000  Uiso   1.00
C548   C     0.02452   0.74948   0.50837   0.00000  Uiso   1.00
C549   C     0.47548   0.74948   0.49160   0.00000  Uiso   1.00
C550   C     0.22754   0.60103   0.46096   0.00000  Uiso   1.00
C551   C     0.27721   0.89878   0.53553   0.00000  Uiso   1.00
C552   C     0.27246   0.60103   0.53904   0.00000  Uiso   1.00
C553   C     0.22279   0.89878   0.46447   0.00000  Uiso   1.00
C554   C     0.23047   0.55211   0.45958   0.00000  Uiso   1.00
C555   C     0.27905   0.94773   0.53335   0.00000  Uiso   1.00
C556   C     0.26953   0.55211   0.54042   0.00000  Uiso   1.00
H557   H     0.15316   0.68425   0.38590   0.00000  Uiso   1.00
H558   H     0.35239   0.59343   0.47925   0.00000  Uiso   1.00
H559   H     0.32037   0.86504   0.40350   0.00000  Uiso   1.00
H560   H     0.14761   0.59343   0.52075   0.00000  Uiso   1.00
H561   H     0.21715   0.53437   0.42608   0.00000  Uiso   1.00
H562   H     0.30289   0.96570   0.55914   0.00000  Uiso   1.00
H563   H     0.28285   0.53437   0.57392   0.00000  Uiso   1.00
H564   H     0.19711   0.96570   0.44086   0.00000  Uiso   1.00
H565   H     0.34505   0.81414   0.61617   0.00000  Uiso   1.00
H566   H     0.34677   0.68430   0.61409   0.00000  Uiso   1.00
H567   H     0.15495   0.81415   0.38383   0.00000  Uiso   1.00
H568   H     0.03051   0.82394   0.52185   0.00000  Uiso   1.00
H569   H     0.46888   0.67497   0.47876   0.00000  Uiso   1.00
H570   H     0.46949   0.82394   0.47812   0.00000  Uiso   1.00
H571   H     0.03111   0.67497   0.52121   0.00000  Uiso   1.00
H572   H     0.17962   0.86503   0.59651   0.00000  Uiso   1.00
N573   N     0.25000   0.62624   0.50000   0.00000  Uiso   1.00
N574   N     0.25000   0.87377   0.50000   0.00000  Uiso   1.00
O575   O     0.18453   0.78974   0.50000   0.00000  Uiso   1.00
O576   O     0.16410   0.58910   0.38390   0.00000  Uiso   1.00
O577   O     0.16368   0.67158   0.41926   0.00000  Uiso   1.00
O578   O     0.33861   0.90968   0.61535   0.00000  Uiso   1.00
O579   O     0.27178   0.86385   0.62624   0.00000  Uiso   1.00
O580   O     0.33639   0.82636   0.58214   0.00000  Uiso   1.00
O581   O     0.27219   0.63887   0.62893   0.00000  Uiso   1.00
O582   O     0.33590   0.58910   0.61610   0.00000  Uiso   1.00
O583   O     0.33632   0.67157   0.58074   0.00000  Uiso   1.00
O584   O     0.16139   0.90968   0.38465   0.00000  Uiso   1.00
O585   O     0.22822   0.86386   0.37376   0.00000  Uiso   1.00
O586   O     0.31547   0.71026   0.50000   0.00000  Uiso   1.00
O587   O     0.16361   0.82636   0.41786   0.00000  Uiso   1.00
O588   O     0.13200   0.87357   0.50535   0.00000  Uiso   1.00
O589   O     0.08779   0.87184   0.57749   0.00000  Uiso   1.00
O590   O     0.16708   0.83397   0.58723   0.00000  Uiso   1.00
O591   O     0.33681   0.66707   0.41495   0.00000  Uiso   1.00
O592   O     0.41107   0.63009   0.41832   0.00000  Uiso   1.00
O593   O     0.36589   0.62171   0.49557   0.00000  Uiso   1.00
O594   O     0.36801   0.87356   0.49466   0.00000  Uiso   1.00
O595   O     0.41220   0.87185   0.42250   0.00000  Uiso   1.00
O596   O     0.33291   0.83398   0.41277   0.00000  Uiso   1.00
O597   O     0.31547   0.78974   0.50000   0.00000  Uiso   1.00
O598   O     0.16318   0.66707   0.58505   0.00000  Uiso   1.00
O599   O     0.08892   0.63009   0.58166   0.00000  Uiso   1.00
O600   O     0.13411   0.62171   0.50443   0.00000  Uiso   1.00
O601   O     0.18453   0.71026   0.50000   0.00000  Uiso   1.00
O602   O     0.25000   0.78973   0.42845   0.00000  Uiso   1.00
O603   O     0.25000   0.71027   0.57155   0.00000  Uiso   1.00
O604   O     0.25000   0.78973   0.57155   0.00000  Uiso   1.00
O605   O     0.25000   0.71027   0.42845   0.00000  Uiso   1.00
O606   O     0.22781   0.63888   0.37107   0.00000  Uiso   1.00
S607   S     0.19547   0.62541   0.40789   0.00000  Uiso   1.00
S608   S     0.30634   0.87451   0.59072   0.00000  Uiso   1.00
S609   S     0.30453   0.62541   0.59211   0.00000  Uiso   1.00
S610   S     0.19366   0.87451   0.40928   0.00000  Uiso   1.00
S611   S     0.12027   0.84483   0.54896   0.00000  Uiso   1.00
S612   S     0.37885   0.65591   0.44831   0.00000  Uiso   1.00
S613   S     0.37972   0.84484   0.45104   0.00000  Uiso   1.00
S614   S     0.12114   0.65590   0.55168   0.00000  Uiso   1.00
Zn615  Zn    0.25000   0.80307   0.50000   0.00000  Uiso   1.00
Zn616  Zn    0.25000   0.69693   0.50000   0.00000  Uiso   1.00
C617   C     0.66505   0.75001   0.50750   0.00000  Uiso   1.00
C618   C     0.72095   0.94773   0.46665   0.00000  Uiso   1.00
C619   C     0.74961   0.75001   0.40625   0.00000  Uiso   1.00
C620   C     0.75039   0.75001   0.59375   0.00000  Uiso   1.00
C621   C     0.75000   0.52637   0.50000   0.00000  Uiso   1.00
C622   C     0.75000   0.97342   0.50000   0.00000  Uiso   1.00
C623   C     0.74987   0.75004   0.35510   0.00000  Uiso   1.00
C624   C     0.75013   0.75004   0.64490   0.00000  Uiso   1.00
C625   C     0.54789   0.79135   0.51879   0.00000  Uiso   1.00
C626   C     0.95175   0.70777   0.48141   0.00000  Uiso   1.00
C627   C     0.95210   0.79135   0.48118   0.00000  Uiso   1.00
C628   C     0.83495   0.75001   0.49250   0.00000  Uiso   1.00
C629   C     0.54824   0.70777   0.51856   0.00000  Uiso   1.00
C630   C     0.59465   0.79204   0.52679   0.00000  Uiso   1.00
C631   C     0.90497   0.70772   0.47274   0.00000  Uiso   1.00
C632   C     0.90535   0.79204   0.47320   0.00000  Uiso   1.00
C633   C     0.59503   0.70771   0.52724   0.00000  Uiso   1.00
C634   C     0.61847   0.74996   0.52169   0.00000  Uiso   1.00
C635   C     0.88152   0.74997   0.47830   0.00000  Uiso   1.00
C636   C     0.52452   0.74948   0.50837   0.00000  Uiso   1.00
C637   C     0.97548   0.74948   0.49160   0.00000  Uiso   1.00
C638   C     0.72754   0.60103   0.46096   0.00000  Uiso   1.00
C639   C     0.77721   0.89878   0.53553   0.00000  Uiso   1.00
C640   C     0.77246   0.60103   0.53904   0.00000  Uiso   1.00
C641   C     0.72279   0.89878   0.46447   0.00000  Uiso   1.00
C642   C     0.73047   0.55211   0.45958   0.00000  Uiso   1.00
C643   C     0.77905   0.94773   0.53335   0.00000  Uiso   1.00
C644   C     0.76953   0.55211   0.54042   0.00000  Uiso   1.00
H645   H     0.65316   0.68425   0.38590   0.00000  Uiso   1.00
H646   H     0.85239   0.59343   0.47925   0.00000  Uiso   1.00
H647   H     0.82037   0.86504   0.40350   0.00000  Uiso   1.00
H648   H     0.64761   0.59343   0.52075   0.00000  Uiso   1.00
H649   H     0.71715   0.53437   0.42608   0.00000  Uiso   1.00
H650   H     0.80289   0.96570   0.55914   0.00000  Uiso   1.00
H651   H     0.78285   0.53437   0.57392   0.00000  Uiso   1.00
H652   H     0.69711   0.96570   0.44086   0.00000  Uiso   1.00
H653   H     0.84505   0.81414   0.61617   0.00000  Uiso   1.00
H654   H     0.84677   0.68430   0.61409   0.00000  Uiso   1.00
H655   H     0.65495   0.81415   0.38383   0.00000  Uiso   1.00
H656   H     0.53051   0.82394   0.52185   0.00000  Uiso   1.00
H657   H     0.96888   0.67497   0.47876   0.00000  Uiso   1.00
H658   H     0.96949   0.82394   0.47812   0.00000  Uiso   1.00
H659   H     0.53111   0.67497   0.52121   0.00000  Uiso   1.00
H660   H     0.67962   0.86503   0.59651   0.00000  Uiso   1.00
N661   N     0.75000   0.62624   0.50000   0.00000  Uiso   1.00
N662   N     0.75000   0.87377   0.50000   0.00000  Uiso   1.00
O663   O     0.68453   0.78974   0.50000   0.00000  Uiso   1.00
O664   O     0.66410   0.58910   0.38390   0.00000  Uiso   1.00
O665   O     0.66368   0.67158   0.41926   0.00000  Uiso   1.00
O666   O     0.83861   0.90968   0.61535   0.00000  Uiso   1.00
O667   O     0.77178   0.86385   0.62624   0.00000  Uiso   1.00
O668   O     0.83639   0.82636   0.58214   0.00000  Uiso   1.00
O669   O     0.77219   0.63887   0.62893   0.00000  Uiso   1.00
O670   O     0.83590   0.58910   0.61610   0.00000  Uiso   1.00
O671   O     0.83632   0.67157   0.58074   0.00000  Uiso   1.00
O672   O     0.66139   0.90968   0.38465   0.00000  Uiso   1.00
O673   O     0.72822   0.86386   0.37376   0.00000  Uiso   1.00
O674   O     0.81547   0.71026   0.50000   0.00000  Uiso   1.00
O675   O     0.66361   0.82636   0.41786   0.00000  Uiso   1.00
O676   O     0.63200   0.87357   0.50535   0.00000  Uiso   1.00
O677   O     0.58779   0.87184   0.57749   0.00000  Uiso   1.00
O678   O     0.66708   0.83397   0.58723   0.00000  Uiso   1.00
O679   O     0.83681   0.66707   0.41495   0.00000  Uiso   1.00
O680   O     0.91107   0.63009   0.41832   0.00000  Uiso   1.00
O681   O     0.86589   0.62171   0.49557   0.00000  Uiso   1.00
O682   O     0.86801   0.87356   0.49466   0.00000  Uiso   1.00
O683   O     0.91220   0.87185   0.42250   0.00000  Uiso   1.00
O684   O     0.83291   0.83398   0.41277   0.00000  Uiso   1.00
O685   O     0.81547   0.78974   0.50000   0.00000  Uiso   1.00
O686   O     0.66318   0.66707   0.58505   0.00000  Uiso   1.00
O687   O     0.58892   0.63009   0.58166   0.00000  Uiso   1.00
O688   O     0.63411   0.62171   0.50443   0.00000  Uiso   1.00
O689   O     0.68453   0.71026   0.50000   0.00000  Uiso   1.00
O690   O     0.75000   0.78973   0.42845   0.00000  Uiso   1.00
O691   O     0.75000   0.71027   0.57155   0.00000  Uiso   1.00
O692   O     0.75000   0.78973   0.57155   0.00000  Uiso   1.00
O693   O     0.75000   0.71027   0.42845   0.00000  Uiso   1.00
O694   O     0.72781   0.63888   0.37107   0.00000  Uiso   1.00
S695   S     0.69547   0.62541   0.40789   0.00000  Uiso   1.00
S696   S     0.80634   0.87451   0.59072   0.00000  Uiso   1.00
S697   S     0.80453   0.62541   0.59211   0.00000  Uiso   1.00
S698   S     0.69366   0.87451   0.40928   0.00000  Uiso   1.00
S699   S     0.62027   0.84483   0.54896   0.00000  Uiso   1.00
S700   S     0.87885   0.65591   0.44831   0.00000  Uiso   1.00
S701   S     0.87972   0.84484   0.45104   0.00000  Uiso   1.00
S702   S     0.62114   0.65590   0.55168   0.00000  Uiso   1.00
Zn703  Zn    0.75000   0.80307   0.50000   0.00000  Uiso   1.00
Zn704  Zn    0.75000   0.69693   0.50000   0.00000  Uiso   1.00
C705   C     0.16505   0.25001   0.84083   0.00000  Uiso   1.00
C706   C     0.22095   0.44773   0.79998   0.00000  Uiso   1.00
C707   C     0.24961   0.25001   0.73958   0.00000  Uiso   1.00
C708   C     0.25039   0.25001   0.92708   0.00000  Uiso   1.00
C709   C     0.25000   0.02637   0.83333   0.00000  Uiso   1.00
C710   C     0.25000   0.47342   0.83333   0.00000  Uiso   1.00
C711   C     0.24987   0.25004   0.68843   0.00000  Uiso   1.00
C712   C     0.25013   0.25004   0.97823   0.00000  Uiso   1.00
C713   C     0.04789   0.29135   0.85213   0.00000  Uiso   1.00
C714   C     0.45175   0.20777   0.81474   0.00000  Uiso   1.00
C715   C     0.45210   0.29135   0.81451   0.00000  Uiso   1.00
C716   C     0.33495   0.25001   0.82583   0.00000  Uiso   1.00
C717   C     0.04824   0.20777   0.85190   0.00000  Uiso   1.00
C718   C     0.09465   0.29204   0.86012   0.00000  Uiso   1.00
C719   C     0.40497   0.20772   0.80607   0.00000  Uiso   1.00
C720   C     0.40535   0.29204   0.80653   0.00000  Uiso   1.00
C721   C     0.09503   0.20771   0.86058   0.00000  Uiso   1.00
C722   C     0.11847   0.24996   0.85503   0.00000  Uiso   1.00
C723   C     0.38152   0.24997   0.81163   0.00000  Uiso   1.00
C724   C     0.02452   0.24948   0.84170   0.00000  Uiso   1.00
C725   C     0.47548   0.24948   0.82493   0.00000  Uiso   1.00
C726   C     0.22754   0.10103   0.79429   0.00000  Uiso   1.00
C727   C     0.27721   0.39878   0.86887   0.00000  Uiso   1.00
C728   C     0.27246   0.10103   0.87238   0.00000  Uiso   1.00
C729   C     0.22279   0.39878   0.79780   0.00000  Uiso   1.00
C730   C     0.23047   0.05211   0.79291   0.00000  Uiso   1.00
C731   C     0.27905   0.44773   0.86668   0.00000  Uiso   1.00
C732   C     0.26953   0.05211   0.87376   0.00000  Uiso   1.00
H733   H     0.15316   0.18425   0.71924   0.00000  Uiso   1.00
H734   H     0.35239   0.09343   0.81258   0.00000  Uiso   1.00
H735   H     0.32037   0.36504   0.73683   0.00000  Uiso   1.00
H736   H     0.14761   0.09343   0.85408   0.00000  Uiso   1.00
H737   H     0.21715   0.03437   0.75942   0.00000  Uiso   1.00
H738   H     0.30289   0.46570   0.89247   0.00000  Uiso   1.00
H739   H     0.28285   0.03437   0.90725   0.00000  Uiso   1.00
H740   H     0.19711   0.46570   0.77419   0.00000  Uiso   1.00
H741   H     0.34505   0.31414   0.94950   0.00000  Uiso   1.00
H742   H     0.34677   0.18430   0.94743   0.00000  Uiso   1.00
H743   H     0.15495   0.31415   0.71717   0.00000  Uiso   1.00
H744   H     0.03051   0.32394   0.85518   0.00000  Uiso   1.00
H745   H     0.46888   0.17497   0.81209   0.00000  Uiso   1.00
H746   H     0.46949   0.32394   0.81145   0.00000  Uiso   1.00
H747   H     0.03111   0.17497   0.85454   0.00000  Uiso   1.00
H748   H     0.17962   0.36503   0.92984   0.00000  Uiso   1.00
N749   N     0.25000   0.12624   0.83333   0.00000  Uiso   1.00
N750   N     0.25000   0.37377   0.83333   0.00000  Uiso   1.00
O751   O     0.18453   0.28974   0.83334   0.00000  Uiso   1.00
O752   O     0.16410   0.08910   0.71724   0.00000  Uiso   1.00
O753   O     0.16368   0.17158   0.75260   0.00000  Uiso   1.00
O754   O     0.33861   0.40968   0.94868   0.00000  Uiso   1.00
O755   O     0.27178   0.36385   0.95957   0.00000  Uiso   1.00
O756   O     0.33639   0.32636   0.91547   0.00000  Uiso   1.00
O757   O     0.27219   0.13887   0.96226   0.00000  Uiso   1.00
O758   O     0.33590   0.08910   0.94944   0.00000  Uiso   1.00
O759   O     0.33632   0.17157   0.91407   0.00000  Uiso   1.00
O760   O     0.16139   0.40968   0.71799   0.00000  Uiso   1.00
O761   O     0.22822   0.36386   0.70709   0.00000  Uiso   1.00
O762   O     0.31547   0.21026   0.83333   0.00000  Uiso   1.00
O763   O     0.16361   0.32636   0.75119   0.00000  Uiso   1.00
O764   O     0.13200   0.37357   0.83868   0.00000  Uiso   1.00
O765   O     0.08779   0.37184   0.91082   0.00000  Uiso   1.00
O766   O     0.16708   0.33397   0.92056   0.00000  Uiso   1.00
O767   O     0.33681   0.16707   0.74828   0.00000  Uiso   1.00
O768   O     0.41107   0.13009   0.75166   0.00000  Uiso   1.00
O769   O     0.36589   0.12171   0.82890   0.00000  Uiso   1.00
O770   O     0.36801   0.37356   0.82799   0.00000  Uiso   1.00
O771   O     0.41220   0.37185   0.75584   0.00000  Uiso   1.00
O772   O     0.33291   0.33398   0.74611   0.00000  Uiso   1.00
O773   O     0.31547   0.28974   0.83333   0.00000  Uiso   1.00
O774   O     0.16318   0.16707   0.91838   0.00000  Uiso   1.00
O775   O     0.08892   0.13009   0.91499   0.00000  Uiso   1.00
O776   O     0.13411   0.12171   0.83776   0.00000  Uiso   1.00
O777   O     0.18453   0.21026   0.83334   0.00000  Uiso   1.00
O778   O     0.25000   0.28973   0.76178   0.00000  Uiso   1.00
O779   O     0.25000   0.21027   0.90489   0.00000  Uiso   1.00
O780   O     0.25000   0.28973   0.90489   0.00000  Uiso   1.00
O781   O     0.25000   0.21027   0.76178   0.00000  Uiso   1.00
O782   O     0.22781   0.13888   0.70440   0.00000  Uiso   1.00
S783   S     0.19547   0.12541   0.74122   0.00000  Uiso   1.00
S784   S     0.30634   0.37451   0.92406   0.00000  Uiso   1.00
S785   S     0.30453   0.12541   0.92545   0.00000  Uiso   1.00
S786   S     0.19366   0.37451   0.74261   0.00000  Uiso   1.00
S787   S     0.12027   0.34483   0.88229   0.00000  Uiso   1.00
S788   S     0.37885   0.15591   0.78164   0.00000  Uiso   1.00
S789   S     0.37972   0.34484   0.78438   0.00000  Uiso   1.00
S790   S     0.12114   0.15590   0.88501   0.00000  Uiso   1.00
Zn791  Zn    0.25000   0.30307   0.83333   0.00000  Uiso   1.00
Zn792  Zn    0.25000   0.19693   0.83333   0.00000  Uiso   1.00
C793   C     0.66505   0.25001   0.84083   0.00000  Uiso   1.00
C794   C     0.72095   0.44773   0.79998   0.00000  Uiso   1.00
C795   C     0.74961   0.25001   0.73958   0.00000  Uiso   1.00
C796   C     0.75039   0.25001   0.92708   0.00000  Uiso   1.00
C797   C     0.75000   0.02637   0.83333   0.00000  Uiso   1.00
C798   C     0.75000   0.47342   0.83333   0.00000  Uiso   1.00
C799   C     0.74987   0.25004   0.68843   0.00000  Uiso   1.00
C800   C     0.75013   0.25004   0.97823   0.00000  Uiso   1.00
C801   C     0.54789   0.29135   0.85213   0.00000  Uiso   1.00
C802   C     0.95175   0.20777   0.81474   0.00000  Uiso   1.00
C803   C     0.95210   0.29135   0.81451   0.00000  Uiso   1.00
C804   C     0.83495   0.25001   0.82583   0.00000  Uiso   1.00
C805   C     0.54824   0.20777   0.85190   0.00000  Uiso   1.00
C806   C     0.59465   0.29204   0.86012   0.00000  Uiso   1.00
C807   C     0.90497   0.20772   0.80607   0.00000  Uiso   1.00
C808   C     0.90535   0.29204   0.80653   0.00000  Uiso   1.00
C809   C     0.59503   0.20771   0.86058   0.00000  Uiso   1.00
C810   C     0.61847   0.24996   0.85503   0.00000  Uiso   1.00
C811   C     0.88152   0.24997   0.81163   0.00000  Uiso   1.00
C812   C     0.52452   0.24948   0.84170   0.00000  Uiso   1.00
C813   C     0.97548   0.24948   0.82493   0.00000  Uiso   1.00
C814   C     0.72754   0.10103   0.79429   0.00000  Uiso   1.00
C815   C     0.77721   0.39878   0.86887   0.00000  Uiso   1.00
C816   C     0.77246   0.10103   0.87238   0.00000  Uiso   1.00
C817   C     0.72279   0.39878   0.79780   0.00000  Uiso   1.00
C818   C     0.73047   0.05211   0.79291   0.00000  Uiso   1.00
C819   C     0.77905   0.44773   0.86668   0.00000  Uiso   1.00
C820   C     0.76953   0.05211   0.87376   0.00000  Uiso   1.00
H821   H     0.65316   0.18425   0.71924   0.00000  Uiso   1.00
H822   H     0.85239   0.09343   0.81258   0.00000  Uiso   1.00
H823   H     0.82037   0.36504   0.73683   0.00000  Uiso   1.00
H824   H     0.64761   0.09343   0.85408   0.00000  Uiso   1.00
H825   H     0.71715   0.03437   0.75942   0.00000  Uiso   1.00
H826   H     0.80289   0.46570   0.89247   0.00000  Uiso   1.00
H827   H     0.78285   0.03437   0.90725   0.00000  Uiso   1.00
H828   H     0.69711   0.46570   0.77419   0.00000  Uiso   1.00
H829   H     0.84505   0.31414   0.94950   0.00000  Uiso   1.00
H830   H     0.84677   0.18430   0.94743   0.00000  Uiso   1.00
H831   H     0.65495   0.31415   0.71717   0.00000  Uiso   1.00
H832   H     0.53051   0.32394   0.85518   0.00000  Uiso   1.00
H833   H     0.96888   0.17497   0.81209   0.00000  Uiso   1.00
H834   H     0.96949   0.32394   0.81145   0.00000  Uiso   1.00
H835   H     0.53111   0.17497   0.85454   0.00000  Uiso   1.00
H836   H     0.67962   0.36503   0.92984   0.00000  Uiso   1.00
N837   N     0.75000   0.12624   0.83333   0.00000  Uiso   1.00
N838   N     0.75000   0.37377   0.83333   0.00000  Uiso   1.00
O839   O     0.68453   0.28974   0.83334   0.00000  Uiso   1.00
O840   O     0.66410   0.08910   0.71724   0.00000  Uiso   1.00
O841   O     0.66368   0.17158   0.75260   0.00000  Uiso   1.00
O842   O     0.83861   0.40968   0.94868   0.00000  Uiso   1.00
O843   O     0.77178   0.36385   0.95957   0.00000  Uiso   1.00
O844   O     0.83639   0.32636   0.91547   0.00000  Uiso   1.00
O845   O     0.77219   0.13887   0.96226   0.00000  Uiso   1.00
O846   O     0.83590   0.08910   0.94944   0.00000  Uiso   1.00
O847   O     0.83632   0.17157   0.91407   0.00000  Uiso   1.00
O848   O     0.66139   0.40968   0.71799   0.00000  Uiso   1.00
O849   O     0.72822   0.36386   0.70709   0.00000  Uiso   1.00
O850   O     0.81547   0.21026   0.83333   0.00000  Uiso   1.00
O851   O     0.66361   0.32636   0.75119   0.00000  Uiso   1.00
O852   O     0.63200   0.37357   0.83868   0.00000  Uiso   1.00
O853   O     0.58779   0.37184   0.91082   0.00000  Uiso   1.00
O854   O     0.66708   0.33397   0.92056   0.00000  Uiso   1.00
O855   O     0.83681   0.16707   0.74828   0.00000  Uiso   1.00
O856   O     0.91107   0.13009   0.75166   0.00000  Uiso   1.00
O857   O     0.86589   0.12171   0.82890   0.00000  Uiso   1.00
O858   O     0.86801   0.37356   0.82799   0.00000  Uiso   1.00
O859   O     0.91220   0.37185   0.75584   0.00000  Uiso   1.00
O860   O     0.83291   0.33398   0.74611   0.00000  Uiso   1.00
O861   O     0.81547   0.28974   0.83333   0.00000  Uiso   1.00
O862   O     0.66318   0.16707   0.91838   0.00000  Uiso   1.00
O863   O     0.58892   0.13009   0.91499   0.00000  Uiso   1.00
O864   O     0.63411   0.12171   0.83776   0.00000  Uiso   1.00
O865   O     0.68453   0.21026   0.83334   0.00000  Uiso   1.00
O866   O     0.75000   0.28973   0.76178   0.00000  Uiso   1.00
O867   O     0.75000   0.21027   0.90489   0.00000  Uiso   1.00
O868   O     0.75000   0.28973   0.90489   0.00000  Uiso   1.00
O869   O     0.75000   0.21027   0.76178   0.00000  Uiso   1.00
O870   O     0.72781   0.13888   0.70440   0.00000  Uiso   1.00
S871   S     0.69547   0.12541   0.74122   0.00000  Uiso   1.00
S872   S     0.80634   0.37451   0.92406   0.00000  Uiso   1.00
S873   S     0.80453   0.12541   0.92545   0.00000  Uiso   1.00
S874   S     0.69366   0.37451   0.74261   0.00000  Uiso   1.00
S875   S     0.62027   0.34483   0.88229   0.00000  Uiso   1.00
S876   S     0.87885   0.15591   0.78164   0.00000  Uiso   1.00
S877   S     0.87972   0.34484   0.78438   0.00000  Uiso   1.00
S878   S     0.62114   0.15590   0.88501   0.00000  Uiso   1.00
Zn879  Zn    0.75000   0.30307   0.83333   0.00000  Uiso   1.00
Zn880  Zn    0.75000   0.19693   0.83333   0.00000  Uiso   1.00
C881   C     0.16505   0.75001   0.84083   0.00000  Uiso   1.00
C882   C     0.22095   0.94773   0.79998   0.00000  Uiso   1.00
C883   C     0.24961   0.75001   0.73958   0.00000  Uiso   1.00
C884   C     0.25039   0.75001   0.92708   0.00000  Uiso   1.00
C885   C     0.25000   0.52637   0.83333   0.00000  Uiso   1.00
C886   C     0.25000   0.97342   0.83333   0.00000  Uiso   1.00
C887   C     0.24987   0.75004   0.68843   0.00000  Uiso   1.00
C888   C     0.25013   0.75004   0.97823   0.00000  Uiso   1.00
C889   C     0.04789   0.79135   0.85213   0.00000  Uiso   1.00
C890   C     0.45175   0.70777   0.81474   0.00000  Uiso   1.00
C891   C     0.45210   0.79135   0.81451   0.00000  Uiso   1.00
C892   C     0.33495   0.75001   0.82583   0.00000  Uiso   1.00
C893   C     0.04824   0.70777   0.85190   0.00000  Uiso   1.00
C894   C     0.09465   0.79204   0.86012   0.00000  Uiso   1.00
C895   C     0.40497   0.70772   0.80607   0.00000  Uiso   1.00
C896   C     0.40535   0.79204   0.80653   0.00000  Uiso   1.00
C897   C     0.09503   0.70771   0.86058   0.00000  Uiso   1.00
C898   C     0.11847   0.74996   0.85503   0.00000  Uiso   1.00
C899   C     0.38152   0.74997   0.81163   0.00000  Uiso   1.00
C900   C     0.02452   0.74948   0.84170   0.00000  Uiso   1.00
C901   C     0.47548   0.74948   0.82493   0.00000  Uiso   1.00
C902   C     0.22754   0.60103   0.79429   0.00000  Uiso   1.00
C903   C     0.27721   0.89878   0.86887   0.00000  Uiso   1.00
C904   C     0.27246   0.60103   0.87238   0.00000  Uiso   1.00
C905   C     0.22279   0.89878   0.79780   0.00000  Uiso   1.00
C906   C     0.23047   0.55211   0.79291   0.00000  Uiso   1.00
C907   C     0.27905   0.94773   0.86668   0.00000  Uiso   1.00
C908   C     0.26953   0.55211   0.87376   0.00000  Uiso   1.00
H909   H     0.15316   0.68425   0.71924   0.00000  Uiso   1.00
H910   H     0.35239   0.59343   0.81258   0.00000  Uiso   1.00
H911   H     0.32037   0.86504   0.73683   0.00000  Uiso   1.00
H912   H     0.14761   0.59343   0.85408   0.00000  Uiso   1.00
H913   H     0.21715   0.53437   0.75942   0.00000  Uiso   1.00
H914   H     0.30289   0.96570   0.89247   0.00000  Uiso   1.00
H915   H     0.28285   0.53437   0.90725   0.00000  Uiso   1.00
H916   H     0.19711   0.96570   0.77419   0.00000  Uiso   1.00
H917   H     0.34505   0.81414   0.94950   0.00000  Uiso   1.00
H918   H     0.34677   0.68430   0.94743   0.00000  Uiso   1.00
H919   H     0.15495   0.81415   0.71717   0.00000  Uiso   1.00
H920   H     0.03051   0.82394   0.85518   0.00000  Uiso   1.00
H921   H     0.46888   0.67497   0.81209   0.00000  Uiso   1.00
H922   H     0.46949   0.82394   0.81145   0.00000  Uiso   1.00
H923   H     0.03111   0.67497   0.85454   0.00000  Uiso   1.00
H924   H     0.17962   0.86503   0.92984   0.00000  Uiso   1.00
N925   N     0.25000   0.62624   0.83333   0.00000  Uiso   1.00
N926   N     0.25000   0.87377   0.83333   0.00000  Uiso   1.00
O927   O     0.18453   0.78974   0.83334   0.00000  Uiso   1.00
O928   O     0.16410   0.58910   0.71724   0.00000  Uiso   1.00
O929   O     0.16368   0.67158   0.75260   0.00000  Uiso   1.00
O930   O     0.33861   0.90968   0.94868   0.00000  Uiso   1.00
O931   O     0.27178   0.86385   0.95957   0.00000  Uiso   1.00
O932   O     0.33639   0.82636   0.91547   0.00000  Uiso   1.00
O933   O     0.27219   0.63887   0.96226   0.00000  Uiso   1.00
O934   O     0.33590   0.58910   0.94944   0.00000  Uiso   1.00
O935   O     0.33632   0.67157   0.91407   0.00000  Uiso   1.00
O936   O     0.16139   0.90968   0.71799   0.00000  Uiso   1.00
O937   O     0.22822   0.86386   0.70709   0.00000  Uiso   1.00
O938   O     0.31547   0.71026   0.83333   0.00000  Uiso   1.00
O939   O     0.16361   0.82636   0.75119   0.00000  Uiso   1.00
O940   O     0.13200   0.87357   0.83868   0.00000  Uiso   1.00
O941   O     0.08779   0.87184   0.91082   0.00000  Uiso   1.00
O942   O     0.16708   0.83397   0.92056   0.00000  Uiso   1.00
O943   O     0.33681   0.66707   0.74828   0.00000  Uiso   1.00
O944   O     0.41107   0.63009   0.75166   0.00000  Uiso   1.00
O945   O     0.36589   0.62171   0.82890   0.00000  Uiso   1.00
O946   O     0.36801   0.87356   0.82799   0.00000  Uiso   1.00
O947   O     0.41220   0.87185   0.75584   0.00000  Uiso   1.00
O948   O     0.33291   0.83398   0.74611   0.00000  Uiso   1.00
O949   O     0.31547   0.78974   0.83333   0.00000  Uiso   1.00
O950   O     0.16318   0.66707   0.91838   0.00000  Uiso   1.00
O951   O     0.08892   0.63009   0.91499   0.00000  Uiso   1.00
O952   O     0.13411   0.62171   0.83776   0.00000  Uiso   1.00
O953   O     0.18453   0.71026   0.83334   0.00000  Uiso   1.00
O954   O     0.25000   0.78973   0.76178   0.00000  Uiso   1.00
O955   O     0.25000   0.71027   0.90489   0.00000  Uiso   1.00
O956   O     0.25000   0.78973   0.90489   0.00000  Uiso   1.00
O957   O     0.25000   0.71027   0.76178   0.00000  Uiso   1.00
O958   O     0.22781   0.63888   0.70440   0.00000  Uiso   1.00
S959   S     0.19547   0.62541   0.74122   0.00000  Uiso   1.00
S960   S     0.30634   0.87451   0.92406   0.00000  Uiso   1.00
S961   S     0.30453   0.62541   0.92545   0.00000  Uiso   1.00
S962   S     0.19366   0.87451   0.74261   0.00000  Uiso   1.00
S963   S     0.12027   0.84483   0.88229   0.00000  Uiso   1.00
S964   S     0.37885   0.65591   0.78164   0.00000  Uiso   1.00
S965   S     0.37972   0.84484   0.78438   0.00000  Uiso   1.00
S966   S     0.12114   0.65590   0.88501   0.00000  Uiso   1.00
Zn967  Zn    0.25000   0.80307   0.83333   0.00000  Uiso   1.00
Zn968  Zn    0.25000   0.69693   0.83333   0.00000  Uiso   1.00
C969   C     0.66505   0.75001   0.84083   0.00000  Uiso   1.00
C970   C     0.72095   0.94773   0.79998   0.00000  Uiso   1.00
C971   C     0.74961   0.75001   0.73958   0.00000  Uiso   1.00
C972   C     0.75039   0.75001   0.92708   0.00000  Uiso   1.00
C973   C     0.75000   0.52637   0.83333   0.00000  Uiso   1.00
C974   C     0.75000   0.97342   0.83333   0.00000  Uiso   1.00
C975   C     0.74987   0.75004   0.68843   0.00000  Uiso   1.00
C976   C     0.75013   0.75004   0.97823   0.00000  Uiso   1.00
C977   C     0.54789   0.79135   0.85213   0.00000  Uiso   1.00
C978   C     0.95175   0.70777   0.81474   0.00000  Uiso   1.00
C979   C     0.95210   0.79135   0.81451   0.00000  Uiso   1.00
C980   C     0.83495   0.75001   0.82583   0.00000  Uiso   1.00
C981   C     0.54824   0.70777   0.85190   0.00000  Uiso   1.00
C982   C     0.59465   0.79204   0.86012   0.00000  Uiso   1.00
C983   C     0.90497   0.70772   0.80607   0.00000  Uiso   1.00
C984   C     0.90535   0.79204   0.80653   0.00000  Uiso   1.00
C985   C     0.59503   0.70771   0.86058   0.00000  Uiso   1.00
C986   C     0.61847   0.74996   0.85503   0.00000  Uiso   1.00
C987   C     0.88152   0.74997   0.81163   0.00000  Uiso   1.00
C988   C     0.52452   0.74948   0.84170   0.00000  Uiso   1.00
C989   C     0.97548   0.74948   0.82493   0.00000  Uiso   1.00
C990   C     0.72754   0.60103   0.79429   0.00000  Uiso   1.00
C991   C     0.77721   0.89878   0.86887   0.00000  Uiso   1.00
C992   C     0.77246   0.60103   0.87238   0.00000  Uiso   1.00
C993   C     0.72279   0.89878   0.79780   0.00000  Uiso   1.00
C994   C     0.73047   0.55211   0.79291   0.00000  Uiso   1.00
C995   C     0.77905   0.94773   0.86668   0.00000  Uiso   1.00
C996   C     0.76953   0.55211   0.87376   0.00000  Uiso   1.00
H997   H     0.65316   0.68425   0.71924   0.00000  Uiso   1.00
H998   H     0.85239   0.59343   0.81258   0.00000  Uiso   1.00
H999   H     0.82037   0.86504   0.73683   0.00000  Uiso   1.00
H1000  H     0.64761   0.59343   0.85408   0.00000  Uiso   1.00
H1001  H     0.71715   0.53437   0.75942   0.00000  Uiso   1.00
H1002  H     0.80289   0.96570   0.89247   0.00000  Uiso   1.00
H1003  H     0.78285   0.53437   0.90725   0.00000  Uiso   1.00
H1004  H     0.69711   0.96570   0.77419   0.00000  Uiso   1.00
H1005  H     0.84505   0.81414   0.94950   0.00000  Uiso   1.00
H1006  H     0.84677   0.68430   0.94743   0.00000  Uiso   1.00
H1007  H     0.65495   0.81415   0.71717   0.00000  Uiso   1.00
H1008  H     0.53051   0.82394   0.85518   0.00000  Uiso   1.00
H1009  H     0.96888   0.67497   0.81209   0.00000  Uiso   1.00
H1010  H     0.96949   0.82394   0.81145   0.00000  Uiso   1.00
H1011  H     0.53111   0.67497   0.85454   0.00000  Uiso   1.00
H1012  H     0.67962   0.86503   0.92984   0.00000  Uiso   1.00
N1013  N     0.75000   0.62624   0.83333   0.00000  Uiso   1.00
N1014  N     0.75000   0.87377   0.83333   0.00000  Uiso   1.00
O1015  O     0.68453   0.78974   0.83334   0.00000  Uiso   1.00
O1016  O     0.66410   0.58910   0.71724   0.00000  Uiso   1.00
O1017  O     0.66368   0.67158   0.75260   0.00000  Uiso   1.00
O1018  O     0.83861   0.90968   0.94868   0.00000  Uiso   1.00
O1019  O     0.77178   0.86385   0.95957   0.00000  Uiso   1.00
O1020  O     0.83639   0.82636   0.91547   0.00000  Uiso   1.00
O1021  O     0.77219   0.63887   0.96226   0.00000  Uiso   1.00
O1022  O     0.83590   0.58910   0.94944   0.00000  Uiso   1.00
O1023  O     0.83632   0.67157   0.91407   0.00000  Uiso   1.00
O1024  O     0.66139   0.90968   0.71799   0.00000  Uiso   1.00
O1025  O     0.72822   0.86386   0.70709   0.00000  Uiso   1.00
O1026  O     0.81547   0.71026   0.83333   0.00000  Uiso   1.00
O1027  O     0.66361   0.82636   0.75119   0.00000  Uiso   1.00
O1028  O     0.63200   0.87357   0.83868   0.00000  Uiso   1.00
O1029  O     0.58779   0.87184   0.91082   0.00000  Uiso   1.00
O1030  O     0.66708   0.83397   0.92056   0.00000  Uiso   1.00
O1031  O     0.83681   0.66707   0.74828   0.00000  Uiso   1.00
O1032  O     0.91107   0.63009   0.75166   0.00000  Uiso   1.00
O1033  O     0.86589   0.62171   0.82890   0.00000  Uiso   1.00
O1034  O     0.86801   0.87356   0.82799   0.00000  Uiso   1.00
O1035  O     0.91220   0.87185   0.75584   0.00000  Uiso   1.00
O1036  O     0.83291   0.83398   0.74611   0.00000  Uiso   1.00
O1037  O     0.81547   0.78974   0.83333   0.00000  Uiso   1.00
O1038  O     0.66318   0.66707   0.91838   0.00000  Uiso   1.00
O1039  O     0.58892   0.63009   0.91499   0.00000  Uiso   1.00
O1040  O     0.63411   0.62171   0.83776   0.00000  Uiso   1.00
O1041  O     0.68453   0.71026   0.83334   0.00000  Uiso   1.00
O1042  O     0.75000   0.78973   0.76178   0.00000  Uiso   1.00
O1043  O     0.75000   0.71027   0.90489   0.00000  Uiso   1.00
O1044  O     0.75000   0.78973   0.90489   0.00000  Uiso   1.00
O1045  O     0.75000   0.71027   0.76178   0.00000  Uiso   1.00
O1046  O     0.72781   0.63888   0.70440   0.00000  Uiso   1.00
S1047  S     0.69547   0.62541   0.74122   0.00000  Uiso   1.00
S1048  S     0.80634   0.87451   0.92406   0.00000  Uiso   1.00
S1049  S     0.80453   0.62541   0.92545   0.00000  Uiso   1.00
S1050  S     0.69366   0.87451   0.74261   0.00000  Uiso   1.00
S1051  S     0.62027   0.84483   0.88229   0.00000  Uiso   1.00
S1052  S     0.87885   0.65591   0.78164   0.00000  Uiso   1.00
S1053  S     0.87972   0.84484   0.78438   0.00000  Uiso   1.00
S1054  S     0.62114   0.65590   0.88501   0.00000  Uiso   1.00
Zn1055 Zn    0.75000   0.80307   0.83333   0.00000  Uiso   1.00
Zn1056 Zn    0.75000   0.69693   0.83333   0.00000  Uiso   1.00
loop_
_geom_bond_atom_site_label_1
_geom_bond_atom_site_label_2
_geom_bond_distance
_geom_bond_site_symmetry_2
_ccdc_geom_bond_type
C1     C18     1.470   .     S
C1     O47     1.305   .     A
C1     O73     1.305   .     A
C2     C6      1.396   .     A
C2     H36     1.076   .     S
C2     C25     1.410   .     A
C3     C7      1.375   .     S
C3     O74     1.288   .     A
C3     O77     1.288   .     A
C4     C8      1.375   .     S
C4     O75     1.288   .     A
C4     O76     1.288   .     A
C5     C28     1.395   .     A
C5     C26     1.395   .     A
C5     C182    1.522   1_545 S
C6     C27     1.396   .     A
C6     C181    1.522   .     S
C7     C712    1.170   1_554 S
C8     C359    1.170   .     S
C9     H40     1.077   .     S
C9     C14     1.386   .     A
C9     C20     1.405   .     A
C10    C15     1.388   .     A
C10    H41     1.077   .     S
C10    C21     1.405   .     A
C11    H42     1.077   .     S
C11    C21     1.405   .     A
C11    C16     1.386   .     A
C12    O58     1.305   .     A
C12    O69     1.305   .     A
C12    C19     1.470   .     S
C13    H43     1.077   .     S
C13    C20     1.405   .     A
C13    C17     1.388   .     A
C14    C18     1.415   .     A
C14    S83     1.776   .     S
C15    C19     1.415   .     A
C15    S84     1.777   .     S
C16    S85     1.776   .     S
C16    C19     1.415   .     A
C17    S86     1.777   .     S
C17    C18     1.415   .     A
C20    C109    1.485   1_455 S
C21    C108    1.485   .     S
C22    S79     1.783   .     S
C22    N45     1.393   .     A
C22    C26     1.410   .     A
C23    C27     1.410   .     A
C23    S80     1.788   .     S
C23    N46     1.392   .     A
C24    N45     1.393   .     A
C24    S81     1.783   .     S
C24    C28     1.410   .     A
C25    S82     1.788   .     S
C25    N46     1.392   .     A
C26    H33     1.077   .     S
C27    H34     1.076   .     S
C28    H35     1.077   .     S
H29    O49     0.991   .     S
H30    O65     0.991   .     S
H31    O68     0.990   .     S
H32    O72     0.991   .     S
H37    O52     0.991   .     S
H38    O55     0.991   .     S
H39    O59     0.991   .     S
H44    O62     0.990   .     S
N45    Zn88    2.032   .     S
N46    Zn87    2.032   .     S
O47    Zn87    1.983   .     S
O48    S79     1.504   .     D
O49    S79     1.674   .     S
O50    S80     1.504   .     D
O51    S80     1.498   .     D
O52    S80     1.675   .     S
O53    S81     1.493   .     D
O54    S81     1.504   .     D
O55    S81     1.674   .     S
O56    S82     1.504   .     D
O57    S82     1.498   .     D
O58    Zn88    1.983   .     S
O59    S82     1.675   .     S
O60    S83     1.501   .     D
O61    S83     1.504   .     D
O62    S83     1.680   .     S
O63    S84     1.503   .     D
O64    S84     1.504   .     D
O65    S84     1.679   .     S
O66    S85     1.501   .     D
O67    S85     1.504   .     D
O68    S85     1.680   .     S
O69    Zn87    1.983   .     S
O70    S86     1.503   .     D
O71    S86     1.504   .     D
O72    S86     1.679   .     S
O73    Zn88    1.983   .     S
O74    Zn87    1.960   .     S
O75    Zn88    1.960   .     S
O76    Zn87    1.960   .     S
O77    Zn88    1.960   .     S
O78    S79     1.493   .     D
C89    C106    1.470   .     S
C89    O135    1.305   .     A
C89    O161    1.305   .     A
C90    C94     1.396   .     A
C90    H124    1.076   .     S
C90    C113    1.410   .     A
C91    C95     1.375   .     S
C91    O162    1.288   .     A
C91    O165    1.288   .     A
C92    C96     1.375   .     S
C92    O163    1.288   .     A
C92    O164    1.288   .     A
C93    C116    1.395   .     A
C93    C114    1.395   .     A
C93    C270    1.522   1_545 S
C94    C115    1.396   .     A
C94    C269    1.522   .     S
C95    C800    1.170   1_554 S
C96    C447    1.170   .     S
C97    H128    1.077   .     S
C97    C102    1.386   .     A
C97    C108    1.405   .     A
C98    C103    1.388   .     A
C98    H129    1.077   .     S
C98    C109    1.405   .     A
C99    H130    1.077   .     S
C99    C109    1.405   .     A
C99    C104    1.386   .     A
C100   O146    1.305   .     A
C100   O157    1.305   .     A
C100   C107    1.470   .     S
C101   H131    1.077   .     S
C101   C108    1.405   .     A
C101   C105    1.388   .     A
C102   C106    1.415   .     A
C102   S171    1.776   .     S
C103   C107    1.415   .     A
C103   S172    1.777   .     S
C104   S173    1.776   .     S
C104   C107    1.415   .     A
C105   S174    1.777   .     S
C105   C106    1.415   .     A
C109   C20     1.485   1_655 S
C110   S167    1.783   .     S
C110   N133    1.393   .     A
C110   C114    1.410   .     A
C111   C115    1.410   .     A
C111   S168    1.788   .     S
C111   N134    1.392   .     A
C112   N133    1.393   .     A
C112   S169    1.783   .     S
C112   C116    1.410   .     A
C113   S170    1.788   .     S
C113   N134    1.392   .     A
C114   H121    1.077   .     S
C115   H122    1.076   .     S
C116   H123    1.077   .     S
H117   O137    0.991   .     S
H118   O153    0.991   .     S
H119   O156    0.990   .     S
H120   O160    0.991   .     S
H125   O140    0.991   .     S
H126   O143    0.991   .     S
H127   O147    0.991   .     S
H132   O150    0.990   .     S
N133   Zn176   2.032   .     S
N134   Zn175   2.032   .     S
O135   Zn175   1.983   .     S
O136   S167    1.504   .     D
O137   S167    1.674   .     S
O138   S168    1.504   .     D
O139   S168    1.498   .     D
O140   S168    1.675   .     S
O141   S169    1.493   .     D
O142   S169    1.504   .     D
O143   S169    1.674   .     S
O144   S170    1.504   .     D
O145   S170    1.498   .     D
O146   Zn176   1.983   .     S
O147   S170    1.675   .     S
O148   S171    1.501   .     D
O149   S171    1.504   .     D
O150   S171    1.680   .     S
O151   S172    1.503   .     D
O152   S172    1.504   .     D
O153   S172    1.679   .     S
O154   S173    1.501   .     D
O155   S173    1.504   .     D
O156   S173    1.680   .     S
O157   Zn175   1.983   .     S
O158   S174    1.503   .     D
O159   S174    1.504   .     D
O160   S174    1.679   .     S
O161   Zn176   1.983   .     S
O162   Zn175   1.960   .     S
O163   Zn176   1.960   .     S
O164   Zn175   1.960   .     S
O165   Zn176   1.960   .     S
O166   S167    1.493   .     D
C177   C194    1.470   .     S
C177   O223    1.305   .     A
C177   O249    1.305   .     A
C178   C182    1.396   .     A
C178   H212    1.076   .     S
C178   C201    1.410   .     A
C179   C183    1.375   .     S
C179   O250    1.288   .     A
C179   O253    1.288   .     A
C180   C184    1.375   .     S
C180   O251    1.288   .     A
C180   O252    1.288   .     A
C181   C204    1.395   .     A
C181   C202    1.395   .     A
C182   C203    1.396   .     A
C182   C5      1.522   1_565 S
C183   C888    1.170   1_554 S
C184   C535    1.170   .     S
C185   H216    1.077   .     S
C185   C190    1.386   .     A
C185   C196    1.405   .     A
C186   C191    1.388   .     A
C186   H217    1.077   .     S
C186   C197    1.405   .     A
C187   H218    1.077   .     S
C187   C197    1.405   .     A
C187   C192    1.386   .     A
C188   O234    1.305   .     A
C188   O245    1.305   .     A
C188   C195    1.470   .     S
C189   H219    1.077   .     S
C189   C196    1.405   .     A
C189   C193    1.388   .     A
C190   C194    1.415   .     A
C190   S259    1.776   .     S
C191   C195    1.415   .     A
C191   S260    1.777   .     S
C192   S261    1.776   .     S
C192   C195    1.415   .     A
C193   S262    1.777   .     S
C193   C194    1.415   .     A
C196   C285    1.485   1_455 S
C197   C284    1.485   .     S
C198   S255    1.783   .     S
C198   N221    1.393   .     A
C198   C202    1.410   .     A
C199   C203    1.410   .     A
C199   S256    1.788   .     S
C199   N222    1.392   .     A
C200   N221    1.393   .     A
C200   S257    1.783   .     S
C200   C204    1.410   .     A
C201   S258    1.788   .     S
C201   N222    1.392   .     A
C202   H209    1.077   .     S
C203   H210    1.076   .     S
C204   H211    1.077   .     S
H205   O225    0.991   .     S
H206   O241    0.991   .     S
H207   O244    0.990   .     S
H208   O248    0.991   .     S
H213   O228    0.991   .     S
H214   O231    0.991   .     S
H215   O235    0.991   .     S
H220   O238    0.990   .     S
N221   Zn264   2.032   .     S
N222   Zn263   2.032   .     S
O223   Zn263   1.983   .     S
O224   S255    1.504   .     D
O225   S255    1.674   .     S
O226   S256    1.504   .     D
O227   S256    1.498   .     D
O228   S256    1.675   .     S
O229   S257    1.493   .     D
O230   S257    1.504   .     D
O231   S257    1.674   .     S
O232   S258    1.504   .     D
O233   S258    1.498   .     D
O234   Zn264   1.983   .     S
O235   S258    1.675   .     S
O236   S259    1.501   .     D
O237   S259    1.504   .     D
O238   S259    1.680   .     S
O239   S260    1.503   .     D
O240   S260    1.504   .     D
O241   S260    1.679   .     S
O242   S261    1.501   .     D
O243   S261    1.504   .     D
O244   S261    1.680   .     S
O245   Zn263   1.983   .     S
O246   S262    1.503   .     D
O247   S262    1.504   .     D
O248   S262    1.679   .     S
O249   Zn264   1.983   .     S
O250   Zn263   1.960   .     S
O251   Zn264   1.960   .     S
O252   Zn263   1.960   .     S
O253   Zn264   1.960   .     S
O254   S255    1.493   .     D
C265   C282    1.470   .     S
C265   O311    1.305   .     A
C265   O337    1.305   .     A
C266   C270    1.396   .     A
C266   H300    1.076   .     S
C266   C289    1.410   .     A
C267   C271    1.375   .     S
C267   O338    1.288   .     A
C267   O341    1.288   .     A
C268   C272    1.375   .     S
C268   O339    1.288   .     A
C268   O340    1.288   .     A
C269   C292    1.395   .     A
C269   C290    1.395   .     A
C270   C291    1.396   .     A
C270   C93     1.522   1_565 S
C271   C976    1.170   1_554 S
C272   C623    1.170   .     S
C273   H304    1.077   .     S
C273   C278    1.386   .     A
C273   C284    1.405   .     A
C274   C279    1.388   .     A
C274   H305    1.077   .     S
C274   C285    1.405   .     A
C275   H306    1.077   .     S
C275   C285    1.405   .     A
C275   C280    1.386   .     A
C276   O322    1.305   .     A
C276   O333    1.305   .     A
C276   C283    1.470   .     S
C277   H307    1.077   .     S
C277   C284    1.405   .     A
C277   C281    1.388   .     A
C278   C282    1.415   .     A
C278   S347    1.776   .     S
C279   C283    1.415   .     A
C279   S348    1.777   .     S
C280   S349    1.776   .     S
C280   C283    1.415   .     A
C281   S350    1.777   .     S
C281   C282    1.415   .     A
C285   C196    1.485   1_655 S
C286   S343    1.783   .     S
C286   N309    1.393   .     A
C286   C290    1.410   .     A
C287   C291    1.410   .     A
C287   S344    1.788   .     S
C287   N310    1.392   .     A
C288   N309    1.393   .     A
C288   S345    1.783   .     S
C288   C292    1.410   .     A
C289   S346    1.788   .     S
C289   N310    1.392   .     A
C290   H297    1.077   .     S
C291   H298    1.076   .     S
C292   H299    1.077   .     S
H293   O313    0.991   .     S
H294   O329    0.991   .     S
H295   O332    0.990   .     S
H296   O336    0.991   .     S
H301   O316    0.991   .     S
H302   O319    0.991   .     S
H303   O323    0.991   .     S
H308   O326    0.990   .     S
N309   Zn352   2.032   .     S
N310   Zn351   2.032   .     S
O311   Zn351   1.983   .     S
O312   S343    1.504   .     D
O313   S343    1.674   .     S
O314   S344    1.504   .     D
O315   S344    1.498   .     D
O316   S344    1.675   .     S
O317   S345    1.493   .     D
O318   S345    1.504   .     D
O319   S345    1.674   .     S
O320   S346    1.504   .     D
O321   S346    1.498   .     D
O322   Zn352   1.983   .     S
O323   S346    1.675   .     S
O324   S347    1.501   .     D
O325   S347    1.504   .     D
O326   S347    1.680   .     S
O327   S348    1.503   .     D
O328   S348    1.504   .     D
O329   S348    1.679   .     S
O330   S349    1.501   .     D
O331   S349    1.504   .     D
O332   S349    1.680   .     S
O333   Zn351   1.983   .     S
O334   S350    1.503   .     D
O335   S350    1.504   .     D
O336   S350    1.679   .     S
O337   Zn352   1.983   .     S
O338   Zn351   1.960   .     S
O339   Zn352   1.960   .     S
O340   Zn351   1.960   .     S
O341   Zn352   1.960   .     S
O342   S343    1.493   .     D
C353   C370    1.470   .     S
C353   O399    1.305   .     A
C353   O425    1.305   .     A
C354   C358    1.396   .     A
C354   H388    1.076   .     S
C354   C377    1.410   .     A
C355   C359    1.375   .     S
C355   O426    1.288   .     A
C355   O429    1.288   .     A
C356   C360    1.375   .     S
C356   O427    1.288   .     A
C356   O428    1.288   .     A
C357   C380    1.395   .     A
C357   C378    1.395   .     A
C357   C534    1.522   1_545 S
C358   C379    1.396   .     A
C358   C533    1.522   .     S
C360   C711    1.170   .     S
C361   H392    1.077   .     S
C361   C366    1.386   .     A
C361   C372    1.405   .     A
C362   C367    1.388   .     A
C362   H393    1.077   .     S
C362   C373    1.405   .     A
C363   H394    1.077   .     S
C363   C373    1.405   .     A
C363   C368    1.386   .     A
C364   O410    1.305   .     A
C364   O421    1.305   .     A
C364   C371    1.470   .     S
C365   H395    1.077   .     S
C365   C372    1.405   .     A
C365   C369    1.388   .     A
C366   C370    1.415   .     A
C366   S435    1.776   .     S
C367   C371    1.415   .     A
C367   S436    1.777   .     S
C368   S437    1.776   .     S
C368   C371    1.415   .     A
C369   S438    1.777   .     S
C369   C370    1.415   .     A
C372   C461    1.485   1_455 S
C373   C460    1.485   .     S
C374   S431    1.783   .     S
C374   N397    1.393   .     A
C374   C378    1.410   .     A
C375   C379    1.410   .     A
C375   S432    1.788   .     S
C375   N398    1.392   .     A
C376   N397    1.393   .     A
C376   S433    1.783   .     S
C376   C380    1.410   .     A
C377   S434    1.788   .     S
C377   N398    1.392   .     A
C378   H385    1.077   .     S
C379   H386    1.076   .     S
C380   H387    1.077   .     S
H381   O401    0.991   .     S
H382   O417    0.991   .     S
H383   O420    0.990   .     S
H384   O424    0.991   .     S
H389   O404    0.991   .     S
H390   O407    0.991   .     S
H391   O411    0.991   .     S
H396   O414    0.990   .     S
N397   Zn440   2.032   .     S
N398   Zn439   2.032   .     S
O399   Zn439   1.983   .     S
O400   S431    1.504   .     D
O401   S431    1.674   .     S
O402   S432    1.504   .     D
O403   S432    1.498   .     D
O404   S432    1.675   .     S
O405   S433    1.493   .     D
O406   S433    1.504   .     D
O407   S433    1.674   .     S
O408   S434    1.504   .     D
O409   S434    1.498   .     D
O410   Zn440   1.983   .     S
O411   S434    1.675   .     S
O412   S435    1.501   .     D
O413   S435    1.504   .     D
O414   S435    1.680   .     S
O415   S436    1.503   .     D
O416   S436    1.504   .     D
O417   S436    1.679   .     S
O418   S437    1.501   .     D
O419   S437    1.504   .     D
O420   S437    1.680   .     S
O421   Zn439   1.983   .     S
O422   S438    1.503   .     D
O423   S438    1.504   .     D
O424   S438    1.679   .     S
O425   Zn440   1.983   .     S
O426   Zn439   1.960   .     S
O427   Zn440   1.960   .     S
O428   Zn439   1.960   .     S
O429   Zn440   1.960   .     S
O430   S431    1.493   .     D
C441   C458    1.470   .     S
C441   O487    1.305   .     A
C441   O513    1.305   .     A
C442   C446    1.396   .     A
C442   H476    1.076   .     S
C442   C465    1.410   .     A
C443   C447    1.375   .     S
C443   O514    1.288   .     A
C443   O517    1.288   .     A
C444   C448    1.375   .     S
C444   O515    1.288   .     A
C444   O516    1.288   .     A
C445   C468    1.395   .     A
C445   C466    1.395   .     A
C445   C622    1.522   1_545 S
C446   C467    1.396   .     A
C446   C621    1.522   .     S
C448   C799    1.170   .     S
C449   H480    1.077   .     S
C449   C454    1.386   .     A
C449   C460    1.405   .     A
C450   C455    1.388   .     A
C450   H481    1.077   .     S
C450   C461    1.405   .     A
C451   H482    1.077   .     S
C451   C461    1.405   .     A
C451   C456    1.386   .     A
C452   O498    1.305   .     A
C452   O509    1.305   .     A
C452   C459    1.470   .     S
C453   H483    1.077   .     S
C453   C460    1.405   .     A
C453   C457    1.388   .     A
C454   C458    1.415   .     A
C454   S523    1.776   .     S
C455   C459    1.415   .     A
C455   S524    1.777   .     S
C456   S525    1.776   .     S
C456   C459    1.415   .     A
C457   S526    1.777   .     S
C457   C458    1.415   .     A
C461   C372    1.485   1_655 S
C462   S519    1.783   .     S
C462   N485    1.393   .     A
C462   C466    1.410   .     A
C463   C467    1.410   .     A
C463   S520    1.788   .     S
C463   N486    1.392   .     A
C464   N485    1.393   .     A
C464   S521    1.783   .     S
C464   C468    1.410   .     A
C465   S522    1.788   .     S
C465   N486    1.392   .     A
C466   H473    1.077   .     S
C467   H474    1.076   .     S
C468   H475    1.077   .     S
H469   O489    0.991   .     S
H470   O505    0.991   .     S
H471   O508    0.990   .     S
H472   O512    0.991   .     S
H477   O492    0.991   .     S
H478   O495    0.991   .     S
H479   O499    0.991   .     S
H484   O502    0.990   .     S
N485   Zn528   2.032   .     S
N486   Zn527   2.032   .     S
O487   Zn527   1.983   .     S
O488   S519    1.504   .     D
O489   S519    1.674   .     S
O490   S520    1.504   .     D
O491   S520    1.498   .     D
O492   S520    1.675   .     S
O493   S521    1.493   .     D
O494   S521    1.504   .     D
O495   S521    1.674   .     S
O496   S522    1.504   .     D
O497   S522    1.498   .     D
O498   Zn528   1.983   .     S
O499   S522    1.675   .     S
O500   S523    1.501   .     D
O501   S523    1.504   .     D
O502   S523    1.680   .     S
O503   S524    1.503   .     D
O504   S524    1.504   .     D
O505   S524    1.679   .     S
O506   S525    1.501   .     D
O507   S525    1.504   .     D
O508   S525    1.680   .     S
O509   Zn527   1.983   .     S
O510   S526    1.503   .     D
O511   S526    1.504   .     D
O512   S526    1.679   .     S
O513   Zn528   1.983   .     S
O514   Zn527   1.960   .     S
O515   Zn528   1.960   .     S
O516   Zn527   1.960   .     S
O517   Zn528   1.960   .     S
O518   S519    1.493   .     D
C529   C546    1.470   .     S
C529   O575    1.305   .     A
C529   O601    1.305   .     A
C530   C534    1.396   .     A
C530   H564    1.076   .     S
C530   C553    1.410   .     A
C531   C535    1.375   .     S
C531   O602    1.288   .     A
C531   O605    1.288   .     A
C532   C536    1.375   .     S
C532   O603    1.288   .     A
C532   O604    1.288   .     A
C533   C556    1.395   .     A
C533   C554    1.395   .     A
C534   C555    1.396   .     A
C534   C357    1.522   1_565 S
C536   C887    1.170   .     S
C537   H568    1.077   .     S
C537   C542    1.386   .     A
C537   C548    1.405   .     A
C538   C543    1.388   .     A
C538   H569    1.077   .     S
C538   C549    1.405   .     A
C539   H570    1.077   .     S
C539   C549    1.405   .     A
C539   C544    1.386   .     A
C540   O586    1.305   .     A
C540   O597    1.305   .     A
C540   C547    1.470   .     S
C541   H571    1.077   .     S
C541   C548    1.405   .     A
C541   C545    1.388   .     A
C542   C546    1.415   .     A
C542   S611    1.776   .     S
C543   C547    1.415   .     A
C543   S612    1.777   .     S
C544   S613    1.776   .     S
C544   C547    1.415   .     A
C545   S614    1.777   .     S
C545   C546    1.415   .     A
C548   C637    1.485   1_455 S
C549   C636    1.485   .     S
C550   S607    1.783   .     S
C550   N573    1.393   .     A
C550   C554    1.410   .     A
C551   C555    1.410   .     A
C551   S608    1.788   .     S
C551   N574    1.392   .     A
C552   N573    1.393   .     A
C552   S609    1.783   .     S
C552   C556    1.410   .     A
C553   S610    1.788   .     S
C553   N574    1.392   .     A
C554   H561    1.077   .     S
C555   H562    1.076   .     S
C556   H563    1.077   .     S
H557   O577    0.991   .     S
H558   O593    0.991   .     S
H559   O596    0.990   .     S
H560   O600    0.991   .     S
H565   O580    0.991   .     S
H566   O583    0.991   .     S
H567   O587    0.991   .     S
H572   O590    0.990   .     S
N573   Zn616   2.032   .     S
N574   Zn615   2.032   .     S
O575   Zn615   1.983   .     S
O576   S607    1.504   .     D
O577   S607    1.674   .     S
O578   S608    1.504   .     D
O579   S608    1.498   .     D
O580   S608    1.675   .     S
O581   S609    1.493   .     D
O582   S609    1.504   .     D
O583   S609    1.674   .     S
O584   S610    1.504   .     D
O585   S610    1.498   .     D
O586   Zn616   1.983   .     S
O587   S610    1.675   .     S
O588   S611    1.501   .     D
O589   S611    1.504   .     D
O590   S611    1.680   .     S
O591   S612    1.503   .     D
O592   S612    1.504   .     D
O593   S612    1.679   .     S
O594   S613    1.501   .     D
O595   S613    1.504   .     D
O596   S613    1.680   .     S
O597   Zn615   1.983   .     S
O598   S614    1.503   .     D
O599   S614    1.504   .     D
O600   S614    1.679   .     S
O601   Zn616   1.983   .     S
O602   Zn615   1.960   .     S
O603   Zn616   1.960   .     S
O604   Zn615   1.960   .     S
O605   Zn616   1.960   .     S
O606   S607    1.493   .     D
C617   C634    1.470   .     S
C617   O663    1.305   .     A
C617   O689    1.305   .     A
C618   C622    1.396   .     A
C618   H652    1.076   .     S
C618   C641    1.410   .     A
C619   C623    1.375   .     S
C619   O690    1.288   .     A
C619   O693    1.288   .     A
C620   C624    1.375   .     S
C620   O691    1.288   .     A
C620   O692    1.288   .     A
C621   C644    1.395   .     A
C621   C642    1.395   .     A
C622   C643    1.396   .     A
C622   C445    1.522   1_565 S
C624   C975    1.170   .     S
C625   H656    1.077   .     S
C625   C630    1.386   .     A
C625   C636    1.405   .     A
C626   C631    1.388   .     A
C626   H657    1.077   .     S
C626   C637    1.405   .     A
C627   H658    1.077   .     S
C627   C637    1.405   .     A
C627   C632    1.386   .     A
C628   O674    1.305   .     A
C628   O685    1.305   .     A
C628   C635    1.470   .     S
C629   H659    1.077   .     S
C629   C636    1.405   .     A
C629   C633    1.388   .     A
C630   C634    1.415   .     A
C630   S699    1.776   .     S
C631   C635    1.415   .     A
C631   S700    1.777   .     S
C632   S701    1.776   .     S
C632   C635    1.415   .     A
C633   S702    1.777   .     S
C633   C634    1.415   .     A
C637   C548    1.485   1_655 S
C638   S695    1.783   .     S
C638   N661    1.393   .     A
C638   C642    1.410   .     A
C639   C643    1.410   .     A
C639   S696    1.788   .     S
C639   N662    1.392   .     A
C640   N661    1.393   .     A
C640   S697    1.783   .     S
C640   C644    1.410   .     A
C641   S698    1.788   .     S
C641   N662    1.392   .     A
C642   H649    1.077   .     S
C643   H650    1.076   .     S
C644   H651    1.077   .     S
H645   O665    0.991   .     S
H646   O681    0.991   .     S
H647   O684    0.990   .     S
H648   O688    0.991   .     S
H653   O668    0.991   .     S
H654   O671    0.991   .     S
H655   O675    0.991   .     S
H660   O678    0.990   .     S
N661   Zn704   2.032   .     S
N662   Zn703   2.032   .     S
O663   Zn703   1.983   .     S
O664   S695    1.504   .     D
O665   S695    1.674   .     S
O666   S696    1.504   .     D
O667   S696    1.498   .     D
O668   S696    1.675   .     S
O669   S697    1.493   .     D
O670   S697    1.504   .     D
O671   S697    1.674   .     S
O672   S698    1.504   .     D
O673   S698    1.498   .     D
O674   Zn704   1.983   .     S
O675   S698    1.675   .     S
O676   S699    1.501   .     D
O677   S699    1.504   .     D
O678   S699    1.680   .     S
O679   S700    1.503   .     D
O680   S700    1.504   .     D
O681   S700    1.679   .     S
O682   S701    1.501   .     D
O683   S701    1.504   .     D
O684   S701    1.680   .     S
O685   Zn703   1.983   .     S
O686   S702    1.503   .     D
O687   S702    1.504   .     D
O688   S702    1.679   .     S
O689   Zn704   1.983   .     S
O690   Zn703   1.960   .     S
O691   Zn704   1.960   .     S
O692   Zn703   1.960   .     S
O693   Zn704   1.960   .     S
O694   S695    1.493   .     D
C705   C722    1.470   .     S
C705   O751    1.305   .     A
C705   O777    1.305   .     A
C706   C710    1.396   .     A
C706   H740    1.076   .     S
C706   C729    1.410   .     A
C707   C711    1.375   .     S
C707   O778    1.288   .     A
C707   O781    1.288   .     A
C708   C712    1.375   .     S
C708   O779    1.288   .     A
C708   O780    1.288   .     A
C709   C732    1.395   .     A
C709   C730    1.395   .     A
C709   C886    1.522   1_545 S
C710   C731    1.396   .     A
C710   C885    1.522   .     S
C712   C7      1.170   1_556 S
C713   H744    1.077   .     S
C713   C718    1.386   .     A
C713   C724    1.405   .     A
C714   C719    1.388   .     A
C714   H745    1.077   .     S
C714   C725    1.405   .     A
C715   H746    1.077   .     S
C715   C725    1.405   .     A
C715   C720    1.386   .     A
C716   O762    1.305   .     A
C716   O773    1.305   .     A
C716   C723    1.470   .     S
C717   H747    1.077   .     S
C717   C724    1.405   .     A
C717   C721    1.388   .     A
C718   C722    1.415   .     A
C718   S787    1.776   .     S
C719   C723    1.415   .     A
C719   S788    1.777   .     S
C720   S789    1.776   .     S
C720   C723    1.415   .     A
C721   S790    1.777   .     S
C721   C722    1.415   .     A
C724   C813    1.485   1_455 S
C725   C812    1.485   .     S
C726   S783    1.783   .     S
C726   N749    1.393   .     A
C726   C730    1.410   .     A
C727   C731    1.410   .     A
C727   S784    1.788   .     S
C727   N750    1.392   .     A
C728   N749    1.393   .     A
C728   S785    1.783   .     S
C728   C732    1.410   .     A
C729   S786    1.788   .     S
C729   N750    1.392   .     A
C730   H737    1.077   .     S
C731   H738    1.076   .     S
C732   H739    1.077   .     S
H733   O753    0.991   .     S
H734   O769    0.991   .     S
H735   O772    0.990   .     S
H736   O776    0.991   .     S
H741   O756    0.991   .     S
H742   O759    0.991   .     S
H743   O763    0.991   .     S
H748   O766    0.990   .     S
N749   Zn792   2.032   .     S
N750   Zn791   2.032   .     S
O751   Zn791   1.983   .     S
O752   S783    1.504   .     D
O753   S783    1.674   .     S
O754   S784    1.504   .     D
O755   S784    1.498   .     D
O756   S784    1.675   .     S
O757   S785    1.493   .     D
O758   S785    1.504   .     D
O759   S785    1.674   .     S
O760   S786    1.504   .     D
O761   S786    1.498   .     D
O762   Zn792   1.983   .     S
O763   S786    1.675   .     S
O764   S787    1.501   .     D
O765   S787    1.504   .     D
O766   S787    1.680   .     S
O767   S788    1.503   .     D
O768   S788    1.504   .     D
O769   S788    1.679   .     S
O770   S789    1.501   .     D
O771   S789    1.504   .     D
O772   S789    1.680   .     S
O773   Zn791   1.983   .     S
O774   S790    1.503   .     D
O775   S790    1.504   .     D
O776   S790    1.679   .     S
O777   Zn792   1.983   .     S
O778   Zn791   1.960   .     S
O779   Zn792   1.960   .     S
O780   Zn791   1.960   .     S
O781   Zn792   1.960   .     S
O782   S783    1.493   .     D
C793   C810    1.470   .     S
C793   O839    1.305   .     A
C793   O865    1.305   .     A
C794   C798    1.396   .     A
C794   H828    1.076   .     S
C794   C817    1.410   .     A
C795   C799    1.375   .     S
C795   O866    1.288   .     A
C795   O869    1.288   .     A
C796   C800    1.375   .     S
C796   O867    1.288   .     A
C796   O868    1.288   .     A
C797   C820    1.395   .     A
C797   C818    1.395   .     A
C797   C974    1.522   1_545 S
C798   C819    1.396   .     A
C798   C973    1.522   .     S
C800   C95     1.170   1_556 S
C801   H832    1.077   .     S
C801   C806    1.386   .     A
C801   C812    1.405   .     A
C802   C807    1.388   .     A
C802   H833    1.077   .     S
C802   C813    1.405   .     A
C803   H834    1.077   .     S
C803   C813    1.405   .     A
C803   C808    1.386   .     A
C804   O850    1.305   .     A
C804   O861    1.305   .     A
C804   C811    1.470   .     S
C805   H835    1.077   .     S
C805   C812    1.405   .     A
C805   C809    1.388   .     A
C806   C810    1.415   .     A
C806   S875    1.776   .     S
C807   C811    1.415   .     A
C807   S876    1.777   .     S
C808   S877    1.776   .     S
C808   C811    1.415   .     A
C809   S878    1.777   .     S
C809   C810    1.415   .     A
C813   C724    1.485   1_655 S
C814   S871    1.783   .     S
C814   N837    1.393   .     A
C814   C818    1.410   .     A
C815   C819    1.410   .     A
C815   S872    1.788   .     S
C815   N838    1.392   .     A
C816   N837    1.393   .     A
C816   S873    1.783   .     S
C816   C820    1.410   .     A
C817   S874    1.788   .     S
C817   N838    1.392   .     A
C818   H825    1.077   .     S
C819   H826    1.076   .     S
C820   H827    1.077   .     S
H821   O841    0.991   .     S
H822   O857    0.991   .     S
H823   O860    0.990   .     S
H824   O864    0.991   .     S
H829   O844    0.991   .     S
H830   O847    0.991   .     S
H831   O851    0.991   .     S
H836   O854    0.990   .     S
N837   Zn880   2.032   .     S
N838   Zn879   2.032   .     S
O839   Zn879   1.983   .     S
O840   S871    1.504   .     D
O841   S871    1.674   .     S
O842   S872    1.504   .     D
O843   S872    1.498   .     D
O844   S872    1.675   .     S
O845   S873    1.493   .     D
O846   S873    1.504   .     D
O847   S873    1.674   .     S
O848   S874    1.504   .     D
O849   S874    1.498   .     D
O850   Zn880   1.983   .     S
O851   S874    1.675   .     S
O852   S875    1.501   .     D
O853   S875    1.504   .     D
O854   S875    1.680   .     S
O855   S876    1.503   .     D
O856   S876    1.504   .     D
O857   S876    1.679   .     S
O858   S877    1.501   .     D
O859   S877    1.504   .     D
O860   S877    1.680   .     S
O861   Zn879   1.983   .     S
O862   S878    1.503   .     D
O863   S878    1.504   .     D
O864   S878    1.679   .     S
O865   Zn880   1.983   .     S
O866   Zn879   1.960   .     S
O867   Zn880   1.960   .     S
O868   Zn879   1.960   .     S
O869   Zn880   1.960   .     S
O870   S871    1.493   .     D
C881   C898    1.470   .     S
C881   O927    1.305   .     A
C881   O953    1.305   .     A
C882   C886    1.396   .     A
C882   H916    1.076   .     S
C882   C905    1.410   .     A
C883   C887    1.375   .     S
C883   O954    1.288   .     A
C883   O957    1.288   .     A
C884   C888    1.375   .     S
C884   O955    1.288   .     A
C884   O956    1.288   .     A
C885   C908    1.395   .     A
C885   C906    1.395   .     A
C886   C907    1.396   .     A
C886   C709    1.522   1_565 S
C888   C183    1.170   1_556 S
C889   H920    1.077   .     S
C889   C894    1.386   .     A
C889   C900    1.405   .     A
C890   C895    1.388   .     A
C890   H921    1.077   .     S
C890   C901    1.405   .     A
C891   H922    1.077   .     S
C891   C901    1.405   .     A
C891   C896    1.386   .     A
C892   O938    1.305   .     A
C892   O949    1.305   .     A
C892   C899    1.470   .     S
C893   H923    1.077   .     S
C893   C900    1.405   .     A
C893   C897    1.388   .     A
C894   C898    1.415   .     A
C894   S963    1.776   .     S
C895   C899    1.415   .     A
C895   S964    1.777   .     S
C896   S965    1.776   .     S
C896   C899    1.415   .     A
C897   S966    1.777   .     S
C897   C898    1.415   .     A
C900   C989    1.485   1_455 S
C901   C988    1.485   .     S
C902   S959    1.783   .     S
C902   N925    1.393   .     A
C902   C906    1.410   .     A
C903   C907    1.410   .     A
C903   S960    1.788   .     S
C903   N926    1.392   .     A
C904   N925    1.393   .     A
C904   S961    1.783   .     S
C904   C908    1.410   .     A
C905   S962    1.788   .     S
C905   N926    1.392   .     A
C906   H913    1.077   .     S
C907   H914    1.076   .     S
C908   H915    1.077   .     S
H909   O929    0.991   .     S
H910   O945    0.991   .     S
H911   O948    0.990   .     S
H912   O952    0.991   .     S
H917   O932    0.991   .     S
H918   O935    0.991   .     S
H919   O939    0.991   .     S
H924   O942    0.990   .     S
N925   Zn968   2.032   .     S
N926   Zn967   2.032   .     S
O927   Zn967   1.983   .     S
O928   S959    1.504   .     D
O929   S959    1.674   .     S
O930   S960    1.504   .     D
O931   S960    1.498   .     D
O932   S960    1.675   .     S
O933   S961    1.493   .     D
O934   S961    1.504   .     D
O935   S961    1.674   .     S
O936   S962    1.504   .     D
O937   S962    1.498   .     D
O938   Zn968   1.983   .     S
O939   S962    1.675   .     S
O940   S963    1.501   .     D
O941   S963    1.504   .     D
O942   S963    1.680   .     S
O943   S964    1.503   .     D
O944   S964    1.504   .     D
O945   S964    1.679   .     S
O946   S965    1.501   .     D
O947   S965    1.504   .     D
O948   S965    1.680   .     S
O949   Zn967   1.983   .     S
O950   S966    1.503   .     D
O951   S966    1.504   .     D
O952   S966    1.679   .     S
O953   Zn968   1.983   .     S
O954   Zn967   1.960   .     S
O955   Zn968   1.960   .     S
O956   Zn967   1.960   .     S
O957   Zn968   1.960   .     S
O958   S959    1.493   .     D
C969   C986    1.470   .     S
C969   O1015   1.305   .     A
C969   O1041   1.305   .     A
C970   C974    1.396   .     A
C970   H1004   1.076   .     S
C970   C993    1.410   .     A
C971   C975    1.375   .     S
C971   O1042   1.288   .     A
C971   O1045   1.288   .     A
C972   C976    1.375   .     S
C972   O1043   1.288   .     A
C972   O1044   1.288   .     A
C973   C996    1.395   .     A
C973   C994    1.395   .     A
C974   C995    1.396   .     A
C974   C797    1.522   1_565 S
C976   C271    1.170   1_556 S
C977   H1008   1.077   .     S
C977   C982    1.386   .     A
C977   C988    1.405   .     A
C978   C983    1.388   .     A
C978   H1009   1.077   .     S
C978   C989    1.405   .     A
C979   H1010   1.077   .     S
C979   C989    1.405   .     A
C979   C984    1.386   .     A
C980   O1026   1.305   .     A
C980   O1037   1.305   .     A
C980   C987    1.470   .     S
C981   H1011   1.077   .     S
C981   C988    1.405   .     A
C981   C985    1.388   .     A
C982   C986    1.415   .     A
C982   S1051   1.776   .     S
C983   C987    1.415   .     A
C983   S1052   1.777   .     S
C984   S1053   1.776   .     S
C984   C987    1.415   .     A
C985   S1054   1.777   .     S
C985   C986    1.415   .     A
C989   C900    1.485   1_655 S
C990   S1047   1.783   .     S
C990   N1013   1.393   .     A
C990   C994    1.410   .     A
C991   C995    1.410   .     A
C991   S1048   1.788   .     S
C991   N1014   1.392   .     A
C992   N1013   1.393   .     A
C992   S1049   1.783   .     S
C992   C996    1.410   .     A
C993   S1050   1.788   .     S
C993   N1014   1.392   .     A
C994   H1001   1.077   .     S
C995   H1002   1.076   .     S
C996   H1003   1.077   .     S
H997   O1017   0.991   .     S
H998   O1033   0.991   .     S
H999   O1036   0.990   .     S
H1000  O1040   0.991   .     S
H1005  O1020   0.991   .     S
H1006  O1023   0.991   .     S
H1007  O1027   0.991   .     S
H1012  O1030   0.990   .     S
N1013  Zn1056  2.032   .     S
N1014  Zn1055  2.032   .     S
O1015  Zn1055  1.983   .     S
O1016  S1047   1.504   .     D
O1017  S1047   1.674   .     S
O1018  S1048   1.504   .     D
O1019  S1048   1.498   .     D
O1020  S1048   1.675   .     S
O1021  S1049   1.493   .     D
O1022  S1049   1.504   .     D
O1023  S1049   1.674   .     S
O1024  S1050   1.504   .     D
O1025  S1050   1.498   .     D
O1026  Zn1056  1.983   .     S
O1027  S1050   1.675   .     S
O1028  S1051   1.501   .     D
O1029  S1051   1.504   .     D
O1030  S1051   1.680   .     S
O1031  S1052   1.503   .     D
O1032  S1052   1.504   .     D
O1033  S1052   1.679   .     S
O1034  S1053   1.501   .     D
O1035  S1053   1.504   .     D
O1036  S1053   1.680   .     S
O1037  Zn1055  1.983   .     S
O1038  S1054   1.503   .     D
O1039  S1054   1.504   .     D
O1040  S1054   1.679   .     S
O1041  Zn1056  1.983   .     S
O1042  Zn1055  1.960   .     S
O1043  Zn1056  1.960   .     S
O1044  Zn1055  1.960   .     S
O1045  Zn1056  1.960   .     S
O1046  S1047   1.493   .     D
