data_str_m3_o1_o2_pcu_sym.85
_audit_creation_date              2020-01-03
_audit_creation_method            'Materials Studio'
_symmetry_space_group_name_H-M    'P1'
_symmetry_Int_Tables_number       1
_symmetry_cell_setting            triclinic
loop_
_symmetry_equiv_pos_as_xyz
  x,y,z
_cell_length_a                    31.9781
_cell_length_b                    29.9263
_cell_length_c                    29.9876
_cell_angle_alpha                 90.0102
_cell_angle_beta                  92.4982
_cell_angle_gamma                 90.2095
loop_
_atom_site_label
_atom_site_type_symbol
_atom_site_fract_x
_atom_site_fract_y
_atom_site_fract_z
_atom_site_U_iso_or_equiv
_atom_site_adp_type
_atom_site_occupancy
C1     C     0.08684   0.16661   0.24979   0.00000  Uiso   1.00
C2     C     0.31326   0.19552   0.27897   0.00000  Uiso   1.00
C3     C     0.31045   0.13784   0.22121   0.00000  Uiso   1.00
C4     C     0.02288   0.19548   0.27881   0.00000  Uiso   1.00
C5     C     0.14602   0.19995   0.04557   0.00000  Uiso   1.00
C6     C     0.14597   0.13210   0.45213   0.00000  Uiso   1.00
C7     C     0.18847   0.19984   0.45433   0.00000  Uiso   1.00
C8     C     0.18797   0.13215   0.04800   0.00000  Uiso   1.00
C9     C     0.14590   0.20030   0.09164   0.00000  Uiso   1.00
C10    C     0.14574   0.13234   0.40602   0.00000  Uiso   1.00
C11    C     0.18826   0.20024   0.40824   0.00000  Uiso   1.00
C12    C     0.24650   0.16672   0.25022   0.00000  Uiso   1.00
C13    C     0.18787   0.13234   0.09410   0.00000  Uiso   1.00
C14    C     0.16683   0.16648   0.11601   0.00000  Uiso   1.00
C15    C     0.16686   0.16649   0.38399   0.00000  Uiso   1.00
C16    C     0.16707   0.16593   0.02397   0.00000  Uiso   1.00
C17    C     0.16729   0.16585   0.47606   0.00000  Uiso   1.00
C18    C     0.29067   0.16676   0.25011   0.00000  Uiso   1.00
C19    C     0.04266   0.16656   0.24990   0.00000  Uiso   1.00
C20    C     0.16662   0.16664   0.16405   0.00000  Uiso   1.00
C21    C     0.16677   0.16665   0.33595   0.00000  Uiso   1.00
C22    C     0.19577   0.02378   0.27539   0.00000  Uiso   1.00
C23    C     0.13752   0.30958   0.22467   0.00000  Uiso   1.00
C24    C     0.13760   0.02352   0.22458   0.00000  Uiso   1.00
C25    C     0.19578   0.30984   0.27536   0.00000  Uiso   1.00
C26    C     0.02008   0.13779   0.22106   0.00000  Uiso   1.00
F27    F     0.12521   0.23226   0.02190   0.00000  Uiso   1.00
F28    F     0.29382   0.22235   0.30808   0.00000  Uiso   1.00
F29    F     0.28816   0.11075   0.19252   0.00000  Uiso   1.00
F30    F     0.04517   0.22257   0.30750   0.00000  Uiso   1.00
F31    F     0.12490   0.09958   0.47351   0.00000  Uiso   1.00
F32    F     0.20966   0.23214   0.47789   0.00000  Uiso   1.00
F33    F     0.20889   0.09958   0.02674   0.00000  Uiso   1.00
F34    F     0.12449   0.23289   0.11223   0.00000  Uiso   1.00
F35    F     0.12408   0.10002   0.38297   0.00000  Uiso   1.00
F36    F     0.20981   0.23279   0.38751   0.00000  Uiso   1.00
F37    F     0.20912   0.09997   0.11725   0.00000  Uiso   1.00
F38    F     0.03952   0.11093   0.19199   0.00000  Uiso   1.00
H39    H     0.21821   0.07590   0.30572   0.00000  Uiso   1.00
H40    H     0.11478   0.25740   0.19489   0.00000  Uiso   1.00
H41    H     0.11539   0.07548   0.19433   0.00000  Uiso   1.00
H42    H     0.21829   0.25782   0.30503   0.00000  Uiso   1.00
N43    N     0.16667   0.28573   0.25000   0.00000  Uiso   1.00
N44    N     0.16667   0.04760   0.25000   0.00000  Uiso   1.00
O45    O     0.10559   0.20487   0.24999   0.00000  Uiso   1.00
O46    O     0.10725   0.28888   0.19794   0.00000  Uiso   1.00
O47    O     0.10764   0.04400   0.19749   0.00000  Uiso   1.00
O48    O     0.22584   0.28938   0.30228   0.00000  Uiso   1.00
O49    O     0.22774   0.12846   0.25000   0.00000  Uiso   1.00
O50    O     0.22774   0.20487   0.25000   0.00000  Uiso   1.00
O51    O     0.10559   0.12846   0.25000   0.00000  Uiso   1.00
O52    O     0.16666   0.20489   0.18453   0.00000  Uiso   1.00
O53    O     0.16667   0.12845   0.31547   0.00000  Uiso   1.00
O54    O     0.16667   0.20489   0.31547   0.00000  Uiso   1.00
O55    O     0.16666   0.12845   0.18453   0.00000  Uiso   1.00
O56    O     0.22593   0.04450   0.30228   0.00000  Uiso   1.00
Zn57   Zn    0.16667   0.21771   0.25000   0.00000  Uiso   1.00
Zn58   Zn    0.16667   0.11563   0.25000   0.00000  Uiso   1.00
C59    C     0.42017   0.16661   0.24979   0.00000  Uiso   1.00
C60    C     0.64659   0.19552   0.27897   0.00000  Uiso   1.00
C61    C     0.64379   0.13784   0.22121   0.00000  Uiso   1.00
C62    C     0.35621   0.19548   0.27881   0.00000  Uiso   1.00
C63    C     0.47935   0.19995   0.04557   0.00000  Uiso   1.00
C64    C     0.47930   0.13210   0.45213   0.00000  Uiso   1.00
C65    C     0.52181   0.19984   0.45433   0.00000  Uiso   1.00
C66    C     0.52131   0.13215   0.04800   0.00000  Uiso   1.00
C67    C     0.47923   0.20030   0.09164   0.00000  Uiso   1.00
C68    C     0.47907   0.13234   0.40602   0.00000  Uiso   1.00
C69    C     0.52160   0.20024   0.40824   0.00000  Uiso   1.00
C70    C     0.57983   0.16672   0.25022   0.00000  Uiso   1.00
C71    C     0.52120   0.13234   0.09410   0.00000  Uiso   1.00
C72    C     0.50016   0.16648   0.11601   0.00000  Uiso   1.00
C73    C     0.50019   0.16649   0.38399   0.00000  Uiso   1.00
C74    C     0.50040   0.16593   0.02397   0.00000  Uiso   1.00
C75    C     0.50062   0.16585   0.47606   0.00000  Uiso   1.00
C76    C     0.62400   0.16676   0.25011   0.00000  Uiso   1.00
C77    C     0.37599   0.16656   0.24990   0.00000  Uiso   1.00
C78    C     0.49995   0.16664   0.16405   0.00000  Uiso   1.00
C79    C     0.50011   0.16665   0.33595   0.00000  Uiso   1.00
C80    C     0.52910   0.02378   0.27539   0.00000  Uiso   1.00
C81    C     0.47085   0.30958   0.22467   0.00000  Uiso   1.00
C82    C     0.47093   0.02352   0.22458   0.00000  Uiso   1.00
C83    C     0.52911   0.30984   0.27536   0.00000  Uiso   1.00
C84    C     0.35341   0.13779   0.22106   0.00000  Uiso   1.00
F85    F     0.45855   0.23226   0.02190   0.00000  Uiso   1.00
F86    F     0.62715   0.22235   0.30808   0.00000  Uiso   1.00
F87    F     0.62149   0.11075   0.19252   0.00000  Uiso   1.00
F88    F     0.37850   0.22257   0.30750   0.00000  Uiso   1.00
F89    F     0.45823   0.09958   0.47351   0.00000  Uiso   1.00
F90    F     0.54300   0.23214   0.47789   0.00000  Uiso   1.00
F91    F     0.54222   0.09958   0.02674   0.00000  Uiso   1.00
F92    F     0.45782   0.23289   0.11223   0.00000  Uiso   1.00
F93    F     0.45742   0.10002   0.38297   0.00000  Uiso   1.00
F94    F     0.54314   0.23279   0.38751   0.00000  Uiso   1.00
F95    F     0.54245   0.09997   0.11725   0.00000  Uiso   1.00
F96    F     0.37285   0.11093   0.19199   0.00000  Uiso   1.00
H97    H     0.55154   0.07590   0.30572   0.00000  Uiso   1.00
H98    H     0.44811   0.25740   0.19489   0.00000  Uiso   1.00
H99    H     0.44872   0.07548   0.19433   0.00000  Uiso   1.00
H100   H     0.55162   0.25782   0.30503   0.00000  Uiso   1.00
N101   N     0.50000   0.28573   0.25000   0.00000  Uiso   1.00
N102   N     0.50000   0.04760   0.25000   0.00000  Uiso   1.00
O103   O     0.43892   0.20487   0.24999   0.00000  Uiso   1.00
O104   O     0.44059   0.28888   0.19794   0.00000  Uiso   1.00
O105   O     0.44097   0.04400   0.19749   0.00000  Uiso   1.00
O106   O     0.55918   0.28938   0.30228   0.00000  Uiso   1.00
O107   O     0.56108   0.12846   0.25000   0.00000  Uiso   1.00
O108   O     0.56108   0.20487   0.25000   0.00000  Uiso   1.00
O109   O     0.43892   0.12846   0.25000   0.00000  Uiso   1.00
O110   O     0.50000   0.20489   0.18453   0.00000  Uiso   1.00
O111   O     0.50000   0.12845   0.31547   0.00000  Uiso   1.00
O112   O     0.50000   0.20489   0.31547   0.00000  Uiso   1.00
O113   O     0.50000   0.12845   0.18453   0.00000  Uiso   1.00
O114   O     0.55926   0.04450   0.30228   0.00000  Uiso   1.00
Zn115  Zn    0.50000   0.21771   0.25000   0.00000  Uiso   1.00
Zn116  Zn    0.50000   0.11563   0.25000   0.00000  Uiso   1.00
C117   C     0.75350   0.16661   0.24979   0.00000  Uiso   1.00
C118   C     0.97992   0.19552   0.27897   0.00000  Uiso   1.00
C119   C     0.97712   0.13784   0.22121   0.00000  Uiso   1.00
C120   C     0.68955   0.19548   0.27881   0.00000  Uiso   1.00
C121   C     0.81269   0.19995   0.04557   0.00000  Uiso   1.00
C122   C     0.81263   0.13210   0.45213   0.00000  Uiso   1.00
C123   C     0.85514   0.19984   0.45433   0.00000  Uiso   1.00
C124   C     0.85464   0.13215   0.04800   0.00000  Uiso   1.00
C125   C     0.81257   0.20030   0.09164   0.00000  Uiso   1.00
C126   C     0.81241   0.13234   0.40602   0.00000  Uiso   1.00
C127   C     0.85493   0.20024   0.40824   0.00000  Uiso   1.00
C128   C     0.91316   0.16672   0.25022   0.00000  Uiso   1.00
C129   C     0.85454   0.13234   0.09410   0.00000  Uiso   1.00
C130   C     0.83349   0.16648   0.11601   0.00000  Uiso   1.00
C131   C     0.83353   0.16649   0.38399   0.00000  Uiso   1.00
C132   C     0.83373   0.16593   0.02397   0.00000  Uiso   1.00
C133   C     0.83396   0.16585   0.47606   0.00000  Uiso   1.00
C134   C     0.95734   0.16676   0.25011   0.00000  Uiso   1.00
C135   C     0.70933   0.16656   0.24990   0.00000  Uiso   1.00
C136   C     0.83328   0.16664   0.16405   0.00000  Uiso   1.00
C137   C     0.83344   0.16665   0.33595   0.00000  Uiso   1.00
C138   C     0.86244   0.02378   0.27539   0.00000  Uiso   1.00
C139   C     0.80419   0.30958   0.22467   0.00000  Uiso   1.00
C140   C     0.80427   0.02352   0.22458   0.00000  Uiso   1.00
C141   C     0.86244   0.30984   0.27536   0.00000  Uiso   1.00
C142   C     0.68674   0.13779   0.22106   0.00000  Uiso   1.00
F143   F     0.79188   0.23226   0.02190   0.00000  Uiso   1.00
F144   F     0.96049   0.22235   0.30808   0.00000  Uiso   1.00
F145   F     0.95483   0.11075   0.19252   0.00000  Uiso   1.00
F146   F     0.71184   0.22257   0.30750   0.00000  Uiso   1.00
F147   F     0.79156   0.09958   0.47351   0.00000  Uiso   1.00
F148   F     0.87633   0.23214   0.47789   0.00000  Uiso   1.00
F149   F     0.87555   0.09958   0.02674   0.00000  Uiso   1.00
F150   F     0.79116   0.23289   0.11223   0.00000  Uiso   1.00
F151   F     0.79075   0.10002   0.38297   0.00000  Uiso   1.00
F152   F     0.87647   0.23279   0.38751   0.00000  Uiso   1.00
F153   F     0.87579   0.09997   0.11725   0.00000  Uiso   1.00
F154   F     0.70618   0.11093   0.19199   0.00000  Uiso   1.00
H155   H     0.88487   0.07590   0.30572   0.00000  Uiso   1.00
H156   H     0.78145   0.25740   0.19489   0.00000  Uiso   1.00
H157   H     0.78205   0.07548   0.19433   0.00000  Uiso   1.00
H158   H     0.88496   0.25782   0.30503   0.00000  Uiso   1.00
N159   N     0.83333   0.28573   0.25000   0.00000  Uiso   1.00
N160   N     0.83333   0.04760   0.25000   0.00000  Uiso   1.00
O161   O     0.77226   0.20487   0.24999   0.00000  Uiso   1.00
O162   O     0.77392   0.28888   0.19794   0.00000  Uiso   1.00
O163   O     0.77431   0.04400   0.19749   0.00000  Uiso   1.00
O164   O     0.89251   0.28938   0.30228   0.00000  Uiso   1.00
O165   O     0.89441   0.12846   0.25000   0.00000  Uiso   1.00
O166   O     0.89441   0.20487   0.25000   0.00000  Uiso   1.00
O167   O     0.77226   0.12846   0.25000   0.00000  Uiso   1.00
O168   O     0.83333   0.20489   0.18453   0.00000  Uiso   1.00
O169   O     0.83334   0.12845   0.31547   0.00000  Uiso   1.00
O170   O     0.83334   0.20489   0.31547   0.00000  Uiso   1.00
O171   O     0.83333   0.12845   0.18453   0.00000  Uiso   1.00
O172   O     0.89260   0.04450   0.30228   0.00000  Uiso   1.00
Zn173  Zn    0.83333   0.21771   0.25000   0.00000  Uiso   1.00
Zn174  Zn    0.83333   0.11563   0.25000   0.00000  Uiso   1.00
C175   C     0.08684   0.49994   0.24979   0.00000  Uiso   1.00
C176   C     0.31326   0.52885   0.27897   0.00000  Uiso   1.00
C177   C     0.31045   0.47117   0.22121   0.00000  Uiso   1.00
C178   C     0.02288   0.52882   0.27881   0.00000  Uiso   1.00
C179   C     0.14602   0.53328   0.04557   0.00000  Uiso   1.00
C180   C     0.14597   0.46544   0.45213   0.00000  Uiso   1.00
C181   C     0.18847   0.53317   0.45433   0.00000  Uiso   1.00
C182   C     0.18797   0.46548   0.04800   0.00000  Uiso   1.00
C183   C     0.14590   0.53364   0.09164   0.00000  Uiso   1.00
C184   C     0.14574   0.46567   0.40602   0.00000  Uiso   1.00
C185   C     0.18826   0.53357   0.40824   0.00000  Uiso   1.00
C186   C     0.24650   0.50006   0.25022   0.00000  Uiso   1.00
C187   C     0.18787   0.46568   0.09410   0.00000  Uiso   1.00
C188   C     0.16683   0.49981   0.11601   0.00000  Uiso   1.00
C189   C     0.16686   0.49982   0.38399   0.00000  Uiso   1.00
C190   C     0.16707   0.49926   0.02397   0.00000  Uiso   1.00
C191   C     0.16729   0.49918   0.47606   0.00000  Uiso   1.00
C192   C     0.29067   0.50009   0.25011   0.00000  Uiso   1.00
C193   C     0.04266   0.49990   0.24990   0.00000  Uiso   1.00
C194   C     0.16662   0.49998   0.16405   0.00000  Uiso   1.00
C195   C     0.16677   0.49998   0.33595   0.00000  Uiso   1.00
C196   C     0.19577   0.35711   0.27539   0.00000  Uiso   1.00
C197   C     0.13752   0.64292   0.22467   0.00000  Uiso   1.00
C198   C     0.13760   0.35685   0.22458   0.00000  Uiso   1.00
C199   C     0.19578   0.64317   0.27536   0.00000  Uiso   1.00
C200   C     0.02008   0.47112   0.22106   0.00000  Uiso   1.00
F201   F     0.12521   0.56560   0.02190   0.00000  Uiso   1.00
F202   F     0.29382   0.55568   0.30808   0.00000  Uiso   1.00
F203   F     0.28816   0.44408   0.19252   0.00000  Uiso   1.00
F204   F     0.04517   0.55590   0.30750   0.00000  Uiso   1.00
F205   F     0.12490   0.43291   0.47351   0.00000  Uiso   1.00
F206   F     0.20966   0.56547   0.47789   0.00000  Uiso   1.00
F207   F     0.20889   0.43291   0.02674   0.00000  Uiso   1.00
F208   F     0.12449   0.56623   0.11223   0.00000  Uiso   1.00
F209   F     0.12408   0.43335   0.38297   0.00000  Uiso   1.00
F210   F     0.20981   0.56612   0.38751   0.00000  Uiso   1.00
F211   F     0.20912   0.43330   0.11725   0.00000  Uiso   1.00
F212   F     0.03952   0.44426   0.19199   0.00000  Uiso   1.00
H213   H     0.21821   0.40923   0.30572   0.00000  Uiso   1.00
H214   H     0.11478   0.59073   0.19489   0.00000  Uiso   1.00
H215   H     0.11539   0.40881   0.19433   0.00000  Uiso   1.00
H216   H     0.21829   0.59115   0.30503   0.00000  Uiso   1.00
N217   N     0.16667   0.61907   0.25000   0.00000  Uiso   1.00
N218   N     0.16667   0.38093   0.25000   0.00000  Uiso   1.00
O219   O     0.10559   0.53821   0.24999   0.00000  Uiso   1.00
O220   O     0.10725   0.62222   0.19794   0.00000  Uiso   1.00
O221   O     0.10764   0.37733   0.19749   0.00000  Uiso   1.00
O222   O     0.22584   0.62271   0.30228   0.00000  Uiso   1.00
O223   O     0.22774   0.46179   0.25000   0.00000  Uiso   1.00
O224   O     0.22774   0.53821   0.25000   0.00000  Uiso   1.00
O225   O     0.10559   0.46179   0.25000   0.00000  Uiso   1.00
O226   O     0.16666   0.53822   0.18453   0.00000  Uiso   1.00
O227   O     0.16667   0.46178   0.31547   0.00000  Uiso   1.00
O228   O     0.16667   0.53822   0.31547   0.00000  Uiso   1.00
O229   O     0.16666   0.46178   0.18453   0.00000  Uiso   1.00
O230   O     0.22593   0.37783   0.30228   0.00000  Uiso   1.00
Zn231  Zn    0.16667   0.55104   0.25000   0.00000  Uiso   1.00
Zn232  Zn    0.16667   0.44896   0.25000   0.00000  Uiso   1.00
C233   C     0.42017   0.49994   0.24979   0.00000  Uiso   1.00
C234   C     0.64659   0.52885   0.27897   0.00000  Uiso   1.00
C235   C     0.64379   0.47117   0.22121   0.00000  Uiso   1.00
C236   C     0.35621   0.52882   0.27881   0.00000  Uiso   1.00
C237   C     0.47935   0.53328   0.04557   0.00000  Uiso   1.00
C238   C     0.47930   0.46544   0.45213   0.00000  Uiso   1.00
C239   C     0.52181   0.53317   0.45433   0.00000  Uiso   1.00
C240   C     0.52131   0.46548   0.04800   0.00000  Uiso   1.00
C241   C     0.47923   0.53364   0.09164   0.00000  Uiso   1.00
C242   C     0.47907   0.46567   0.40602   0.00000  Uiso   1.00
C243   C     0.52160   0.53357   0.40824   0.00000  Uiso   1.00
C244   C     0.57983   0.50006   0.25022   0.00000  Uiso   1.00
C245   C     0.52120   0.46568   0.09410   0.00000  Uiso   1.00
C246   C     0.50016   0.49981   0.11601   0.00000  Uiso   1.00
C247   C     0.50019   0.49982   0.38399   0.00000  Uiso   1.00
C248   C     0.50040   0.49926   0.02397   0.00000  Uiso   1.00
C249   C     0.50062   0.49918   0.47606   0.00000  Uiso   1.00
C250   C     0.62400   0.50009   0.25011   0.00000  Uiso   1.00
C251   C     0.37599   0.49990   0.24990   0.00000  Uiso   1.00
C252   C     0.49995   0.49998   0.16405   0.00000  Uiso   1.00
C253   C     0.50011   0.49998   0.33595   0.00000  Uiso   1.00
C254   C     0.52910   0.35711   0.27539   0.00000  Uiso   1.00
C255   C     0.47085   0.64292   0.22467   0.00000  Uiso   1.00
C256   C     0.47093   0.35685   0.22458   0.00000  Uiso   1.00
C257   C     0.52911   0.64317   0.27536   0.00000  Uiso   1.00
C258   C     0.35341   0.47112   0.22106   0.00000  Uiso   1.00
F259   F     0.45855   0.56560   0.02190   0.00000  Uiso   1.00
F260   F     0.62715   0.55568   0.30808   0.00000  Uiso   1.00
F261   F     0.62149   0.44408   0.19252   0.00000  Uiso   1.00
F262   F     0.37850   0.55590   0.30750   0.00000  Uiso   1.00
F263   F     0.45823   0.43291   0.47351   0.00000  Uiso   1.00
F264   F     0.54300   0.56547   0.47789   0.00000  Uiso   1.00
F265   F     0.54222   0.43291   0.02674   0.00000  Uiso   1.00
F266   F     0.45782   0.56623   0.11223   0.00000  Uiso   1.00
F267   F     0.45742   0.43335   0.38297   0.00000  Uiso   1.00
F268   F     0.54314   0.56612   0.38751   0.00000  Uiso   1.00
F269   F     0.54245   0.43330   0.11725   0.00000  Uiso   1.00
F270   F     0.37285   0.44426   0.19199   0.00000  Uiso   1.00
H271   H     0.55154   0.40923   0.30572   0.00000  Uiso   1.00
H272   H     0.44811   0.59073   0.19489   0.00000  Uiso   1.00
H273   H     0.44872   0.40881   0.19433   0.00000  Uiso   1.00
H274   H     0.55162   0.59115   0.30503   0.00000  Uiso   1.00
N275   N     0.50000   0.61907   0.25000   0.00000  Uiso   1.00
N276   N     0.50000   0.38093   0.25000   0.00000  Uiso   1.00
O277   O     0.43892   0.53821   0.24999   0.00000  Uiso   1.00
O278   O     0.44059   0.62222   0.19794   0.00000  Uiso   1.00
O279   O     0.44097   0.37733   0.19749   0.00000  Uiso   1.00
O280   O     0.55918   0.62271   0.30228   0.00000  Uiso   1.00
O281   O     0.56108   0.46179   0.25000   0.00000  Uiso   1.00
O282   O     0.56108   0.53821   0.25000   0.00000  Uiso   1.00
O283   O     0.43892   0.46179   0.25000   0.00000  Uiso   1.00
O284   O     0.50000   0.53822   0.18453   0.00000  Uiso   1.00
O285   O     0.50000   0.46178   0.31547   0.00000  Uiso   1.00
O286   O     0.50000   0.53822   0.31547   0.00000  Uiso   1.00
O287   O     0.50000   0.46178   0.18453   0.00000  Uiso   1.00
O288   O     0.55926   0.37783   0.30228   0.00000  Uiso   1.00
Zn289  Zn    0.50000   0.55104   0.25000   0.00000  Uiso   1.00
Zn290  Zn    0.50000   0.44896   0.25000   0.00000  Uiso   1.00
C291   C     0.75350   0.49994   0.24979   0.00000  Uiso   1.00
C292   C     0.97992   0.52885   0.27897   0.00000  Uiso   1.00
C293   C     0.97712   0.47117   0.22121   0.00000  Uiso   1.00
C294   C     0.68955   0.52882   0.27881   0.00000  Uiso   1.00
C295   C     0.81269   0.53328   0.04557   0.00000  Uiso   1.00
C296   C     0.81263   0.46544   0.45213   0.00000  Uiso   1.00
C297   C     0.85514   0.53317   0.45433   0.00000  Uiso   1.00
C298   C     0.85464   0.46548   0.04800   0.00000  Uiso   1.00
C299   C     0.81257   0.53364   0.09164   0.00000  Uiso   1.00
C300   C     0.81241   0.46567   0.40602   0.00000  Uiso   1.00
C301   C     0.85493   0.53357   0.40824   0.00000  Uiso   1.00
C302   C     0.91316   0.50006   0.25022   0.00000  Uiso   1.00
C303   C     0.85454   0.46568   0.09410   0.00000  Uiso   1.00
C304   C     0.83349   0.49981   0.11601   0.00000  Uiso   1.00
C305   C     0.83353   0.49982   0.38399   0.00000  Uiso   1.00
C306   C     0.83373   0.49926   0.02397   0.00000  Uiso   1.00
C307   C     0.83396   0.49918   0.47606   0.00000  Uiso   1.00
C308   C     0.95734   0.50009   0.25011   0.00000  Uiso   1.00
C309   C     0.70933   0.49990   0.24990   0.00000  Uiso   1.00
C310   C     0.83328   0.49998   0.16405   0.00000  Uiso   1.00
C311   C     0.83344   0.49998   0.33595   0.00000  Uiso   1.00
C312   C     0.86244   0.35711   0.27539   0.00000  Uiso   1.00
C313   C     0.80419   0.64292   0.22467   0.00000  Uiso   1.00
C314   C     0.80427   0.35685   0.22458   0.00000  Uiso   1.00
C315   C     0.86244   0.64317   0.27536   0.00000  Uiso   1.00
C316   C     0.68674   0.47112   0.22106   0.00000  Uiso   1.00
F317   F     0.79188   0.56560   0.02190   0.00000  Uiso   1.00
F318   F     0.96049   0.55568   0.30808   0.00000  Uiso   1.00
F319   F     0.95483   0.44408   0.19252   0.00000  Uiso   1.00
F320   F     0.71184   0.55590   0.30750   0.00000  Uiso   1.00
F321   F     0.79156   0.43291   0.47351   0.00000  Uiso   1.00
F322   F     0.87633   0.56547   0.47789   0.00000  Uiso   1.00
F323   F     0.87555   0.43291   0.02674   0.00000  Uiso   1.00
F324   F     0.79116   0.56623   0.11223   0.00000  Uiso   1.00
F325   F     0.79075   0.43335   0.38297   0.00000  Uiso   1.00
F326   F     0.87647   0.56612   0.38751   0.00000  Uiso   1.00
F327   F     0.87579   0.43330   0.11725   0.00000  Uiso   1.00
F328   F     0.70618   0.44426   0.19199   0.00000  Uiso   1.00
H329   H     0.88487   0.40923   0.30572   0.00000  Uiso   1.00
H330   H     0.78145   0.59073   0.19489   0.00000  Uiso   1.00
H331   H     0.78205   0.40881   0.19433   0.00000  Uiso   1.00
H332   H     0.88496   0.59115   0.30503   0.00000  Uiso   1.00
N333   N     0.83333   0.61907   0.25000   0.00000  Uiso   1.00
N334   N     0.83333   0.38093   0.25000   0.00000  Uiso   1.00
O335   O     0.77226   0.53821   0.24999   0.00000  Uiso   1.00
O336   O     0.77392   0.62222   0.19794   0.00000  Uiso   1.00
O337   O     0.77431   0.37733   0.19749   0.00000  Uiso   1.00
O338   O     0.89251   0.62271   0.30228   0.00000  Uiso   1.00
O339   O     0.89441   0.46179   0.25000   0.00000  Uiso   1.00
O340   O     0.89441   0.53821   0.25000   0.00000  Uiso   1.00
O341   O     0.77226   0.46179   0.25000   0.00000  Uiso   1.00
O342   O     0.83333   0.53822   0.18453   0.00000  Uiso   1.00
O343   O     0.83334   0.46178   0.31547   0.00000  Uiso   1.00
O344   O     0.83334   0.53822   0.31547   0.00000  Uiso   1.00
O345   O     0.83333   0.46178   0.18453   0.00000  Uiso   1.00
O346   O     0.89260   0.37783   0.30228   0.00000  Uiso   1.00
Zn347  Zn    0.83333   0.55104   0.25000   0.00000  Uiso   1.00
Zn348  Zn    0.83333   0.44896   0.25000   0.00000  Uiso   1.00
C349   C     0.08684   0.83328   0.24979   0.00000  Uiso   1.00
C350   C     0.31326   0.86219   0.27897   0.00000  Uiso   1.00
C351   C     0.31045   0.80450   0.22121   0.00000  Uiso   1.00
C352   C     0.02288   0.86215   0.27881   0.00000  Uiso   1.00
C353   C     0.14602   0.86661   0.04557   0.00000  Uiso   1.00
C354   C     0.14597   0.79877   0.45213   0.00000  Uiso   1.00
C355   C     0.18847   0.86651   0.45433   0.00000  Uiso   1.00
C356   C     0.18797   0.79881   0.04800   0.00000  Uiso   1.00
C357   C     0.14590   0.86697   0.09164   0.00000  Uiso   1.00
C358   C     0.14574   0.79901   0.40602   0.00000  Uiso   1.00
C359   C     0.18826   0.86691   0.40824   0.00000  Uiso   1.00
C360   C     0.24650   0.83339   0.25022   0.00000  Uiso   1.00
C361   C     0.18787   0.79901   0.09410   0.00000  Uiso   1.00
C362   C     0.16683   0.83315   0.11601   0.00000  Uiso   1.00
C363   C     0.16686   0.83315   0.38399   0.00000  Uiso   1.00
C364   C     0.16707   0.83260   0.02397   0.00000  Uiso   1.00
C365   C     0.16729   0.83252   0.47606   0.00000  Uiso   1.00
C366   C     0.29067   0.83343   0.25011   0.00000  Uiso   1.00
C367   C     0.04266   0.83323   0.24990   0.00000  Uiso   1.00
C368   C     0.16662   0.83331   0.16405   0.00000  Uiso   1.00
C369   C     0.16677   0.83332   0.33595   0.00000  Uiso   1.00
C370   C     0.19577   0.69044   0.27539   0.00000  Uiso   1.00
C371   C     0.13752   0.97625   0.22467   0.00000  Uiso   1.00
C372   C     0.13760   0.69019   0.22458   0.00000  Uiso   1.00
C373   C     0.19578   0.97651   0.27536   0.00000  Uiso   1.00
C374   C     0.02008   0.80445   0.22106   0.00000  Uiso   1.00
F375   F     0.12521   0.89893   0.02190   0.00000  Uiso   1.00
F376   F     0.29382   0.88901   0.30808   0.00000  Uiso   1.00
F377   F     0.28816   0.77742   0.19252   0.00000  Uiso   1.00
F378   F     0.04517   0.88923   0.30750   0.00000  Uiso   1.00
F379   F     0.12490   0.76624   0.47351   0.00000  Uiso   1.00
F380   F     0.20966   0.89881   0.47789   0.00000  Uiso   1.00
F381   F     0.20889   0.76625   0.02674   0.00000  Uiso   1.00
F382   F     0.12449   0.89956   0.11223   0.00000  Uiso   1.00
F383   F     0.12408   0.76669   0.38297   0.00000  Uiso   1.00
F384   F     0.20981   0.89946   0.38751   0.00000  Uiso   1.00
F385   F     0.20912   0.76664   0.11725   0.00000  Uiso   1.00
F386   F     0.03952   0.77759   0.19199   0.00000  Uiso   1.00
H387   H     0.21821   0.74257   0.30572   0.00000  Uiso   1.00
H388   H     0.11478   0.92406   0.19489   0.00000  Uiso   1.00
H389   H     0.11539   0.74215   0.19433   0.00000  Uiso   1.00
H390   H     0.21829   0.92448   0.30503   0.00000  Uiso   1.00
N391   N     0.16667   0.95240   0.25000   0.00000  Uiso   1.00
N392   N     0.16667   0.71427   0.25000   0.00000  Uiso   1.00
O393   O     0.10559   0.87154   0.24999   0.00000  Uiso   1.00
O394   O     0.10725   0.95555   0.19794   0.00000  Uiso   1.00
O395   O     0.10764   0.71067   0.19749   0.00000  Uiso   1.00
O396   O     0.22584   0.95604   0.30228   0.00000  Uiso   1.00
O397   O     0.22774   0.79513   0.25000   0.00000  Uiso   1.00
O398   O     0.22774   0.87154   0.25000   0.00000  Uiso   1.00
O399   O     0.10559   0.79513   0.25000   0.00000  Uiso   1.00
O400   O     0.16666   0.87155   0.18453   0.00000  Uiso   1.00
O401   O     0.16667   0.79511   0.31547   0.00000  Uiso   1.00
O402   O     0.16667   0.87155   0.31547   0.00000  Uiso   1.00
O403   O     0.16666   0.79511   0.18453   0.00000  Uiso   1.00
O404   O     0.22593   0.71116   0.30228   0.00000  Uiso   1.00
Zn405  Zn    0.16667   0.88437   0.25000   0.00000  Uiso   1.00
Zn406  Zn    0.16667   0.78229   0.25000   0.00000  Uiso   1.00
C407   C     0.42017   0.83328   0.24979   0.00000  Uiso   1.00
C408   C     0.64659   0.86219   0.27897   0.00000  Uiso   1.00
C409   C     0.64379   0.80450   0.22121   0.00000  Uiso   1.00
C410   C     0.35621   0.86215   0.27881   0.00000  Uiso   1.00
C411   C     0.47935   0.86661   0.04557   0.00000  Uiso   1.00
C412   C     0.47930   0.79877   0.45213   0.00000  Uiso   1.00
C413   C     0.52181   0.86651   0.45433   0.00000  Uiso   1.00
C414   C     0.52131   0.79881   0.04800   0.00000  Uiso   1.00
C415   C     0.47923   0.86697   0.09164   0.00000  Uiso   1.00
C416   C     0.47907   0.79901   0.40602   0.00000  Uiso   1.00
C417   C     0.52160   0.86691   0.40824   0.00000  Uiso   1.00
C418   C     0.57983   0.83339   0.25022   0.00000  Uiso   1.00
C419   C     0.52120   0.79901   0.09410   0.00000  Uiso   1.00
C420   C     0.50016   0.83315   0.11601   0.00000  Uiso   1.00
C421   C     0.50019   0.83315   0.38399   0.00000  Uiso   1.00
C422   C     0.50040   0.83260   0.02397   0.00000  Uiso   1.00
C423   C     0.50062   0.83252   0.47606   0.00000  Uiso   1.00
C424   C     0.62400   0.83343   0.25011   0.00000  Uiso   1.00
C425   C     0.37599   0.83323   0.24990   0.00000  Uiso   1.00
C426   C     0.49995   0.83331   0.16405   0.00000  Uiso   1.00
C427   C     0.50011   0.83332   0.33595   0.00000  Uiso   1.00
C428   C     0.52910   0.69044   0.27539   0.00000  Uiso   1.00
C429   C     0.47085   0.97625   0.22467   0.00000  Uiso   1.00
C430   C     0.47093   0.69019   0.22458   0.00000  Uiso   1.00
C431   C     0.52911   0.97651   0.27536   0.00000  Uiso   1.00
C432   C     0.35341   0.80445   0.22106   0.00000  Uiso   1.00
F433   F     0.45855   0.89893   0.02190   0.00000  Uiso   1.00
F434   F     0.62715   0.88901   0.30808   0.00000  Uiso   1.00
F435   F     0.62149   0.77742   0.19252   0.00000  Uiso   1.00
F436   F     0.37850   0.88923   0.30750   0.00000  Uiso   1.00
F437   F     0.45823   0.76624   0.47351   0.00000  Uiso   1.00
F438   F     0.54300   0.89881   0.47789   0.00000  Uiso   1.00
F439   F     0.54222   0.76625   0.02674   0.00000  Uiso   1.00
F440   F     0.45782   0.89956   0.11223   0.00000  Uiso   1.00
F441   F     0.45742   0.76669   0.38297   0.00000  Uiso   1.00
F442   F     0.54314   0.89946   0.38751   0.00000  Uiso   1.00
F443   F     0.54245   0.76664   0.11725   0.00000  Uiso   1.00
F444   F     0.37285   0.77759   0.19199   0.00000  Uiso   1.00
H445   H     0.55154   0.74257   0.30572   0.00000  Uiso   1.00
H446   H     0.44811   0.92406   0.19489   0.00000  Uiso   1.00
H447   H     0.44872   0.74215   0.19433   0.00000  Uiso   1.00
H448   H     0.55162   0.92448   0.30503   0.00000  Uiso   1.00
N449   N     0.50000   0.95240   0.25000   0.00000  Uiso   1.00
N450   N     0.50000   0.71427   0.25000   0.00000  Uiso   1.00
O451   O     0.43892   0.87154   0.24999   0.00000  Uiso   1.00
O452   O     0.44059   0.95555   0.19794   0.00000  Uiso   1.00
O453   O     0.44097   0.71067   0.19749   0.00000  Uiso   1.00
O454   O     0.55918   0.95604   0.30228   0.00000  Uiso   1.00
O455   O     0.56108   0.79513   0.25000   0.00000  Uiso   1.00
O456   O     0.56108   0.87154   0.25000   0.00000  Uiso   1.00
O457   O     0.43892   0.79513   0.25000   0.00000  Uiso   1.00
O458   O     0.50000   0.87155   0.18453   0.00000  Uiso   1.00
O459   O     0.50000   0.79511   0.31547   0.00000  Uiso   1.00
O460   O     0.50000   0.87155   0.31547   0.00000  Uiso   1.00
O461   O     0.50000   0.79511   0.18453   0.00000  Uiso   1.00
O462   O     0.55926   0.71116   0.30228   0.00000  Uiso   1.00
Zn463  Zn    0.50000   0.88437   0.25000   0.00000  Uiso   1.00
Zn464  Zn    0.50000   0.78229   0.25000   0.00000  Uiso   1.00
C465   C     0.75350   0.83328   0.24979   0.00000  Uiso   1.00
C466   C     0.97992   0.86219   0.27897   0.00000  Uiso   1.00
C467   C     0.97712   0.80450   0.22121   0.00000  Uiso   1.00
C468   C     0.68955   0.86215   0.27881   0.00000  Uiso   1.00
C469   C     0.81269   0.86661   0.04557   0.00000  Uiso   1.00
C470   C     0.81263   0.79877   0.45213   0.00000  Uiso   1.00
C471   C     0.85514   0.86651   0.45433   0.00000  Uiso   1.00
C472   C     0.85464   0.79881   0.04800   0.00000  Uiso   1.00
C473   C     0.81257   0.86697   0.09164   0.00000  Uiso   1.00
C474   C     0.81241   0.79901   0.40602   0.00000  Uiso   1.00
C475   C     0.85493   0.86691   0.40824   0.00000  Uiso   1.00
C476   C     0.91316   0.83339   0.25022   0.00000  Uiso   1.00
C477   C     0.85454   0.79901   0.09410   0.00000  Uiso   1.00
C478   C     0.83349   0.83315   0.11601   0.00000  Uiso   1.00
C479   C     0.83353   0.83315   0.38399   0.00000  Uiso   1.00
C480   C     0.83373   0.83260   0.02397   0.00000  Uiso   1.00
C481   C     0.83396   0.83252   0.47606   0.00000  Uiso   1.00
C482   C     0.95734   0.83343   0.25011   0.00000  Uiso   1.00
C483   C     0.70933   0.83323   0.24990   0.00000  Uiso   1.00
C484   C     0.83328   0.83331   0.16405   0.00000  Uiso   1.00
C485   C     0.83344   0.83332   0.33595   0.00000  Uiso   1.00
C486   C     0.86244   0.69044   0.27539   0.00000  Uiso   1.00
C487   C     0.80419   0.97625   0.22467   0.00000  Uiso   1.00
C488   C     0.80427   0.69019   0.22458   0.00000  Uiso   1.00
C489   C     0.86244   0.97651   0.27536   0.00000  Uiso   1.00
C490   C     0.68674   0.80445   0.22106   0.00000  Uiso   1.00
F491   F     0.79188   0.89893   0.02190   0.00000  Uiso   1.00
F492   F     0.96049   0.88901   0.30808   0.00000  Uiso   1.00
F493   F     0.95483   0.77742   0.19252   0.00000  Uiso   1.00
F494   F     0.71184   0.88923   0.30750   0.00000  Uiso   1.00
F495   F     0.79156   0.76624   0.47351   0.00000  Uiso   1.00
F496   F     0.87633   0.89881   0.47789   0.00000  Uiso   1.00
F497   F     0.87555   0.76625   0.02674   0.00000  Uiso   1.00
F498   F     0.79116   0.89956   0.11223   0.00000  Uiso   1.00
F499   F     0.79075   0.76669   0.38297   0.00000  Uiso   1.00
F500   F     0.87647   0.89946   0.38751   0.00000  Uiso   1.00
F501   F     0.87579   0.76664   0.11725   0.00000  Uiso   1.00
F502   F     0.70618   0.77759   0.19199   0.00000  Uiso   1.00
H503   H     0.88487   0.74257   0.30572   0.00000  Uiso   1.00
H504   H     0.78145   0.92406   0.19489   0.00000  Uiso   1.00
H505   H     0.78205   0.74215   0.19433   0.00000  Uiso   1.00
H506   H     0.88496   0.92448   0.30503   0.00000  Uiso   1.00
N507   N     0.83333   0.95240   0.25000   0.00000  Uiso   1.00
N508   N     0.83333   0.71427   0.25000   0.00000  Uiso   1.00
O509   O     0.77226   0.87154   0.24999   0.00000  Uiso   1.00
O510   O     0.77392   0.95555   0.19794   0.00000  Uiso   1.00
O511   O     0.77431   0.71067   0.19749   0.00000  Uiso   1.00
O512   O     0.89251   0.95604   0.30228   0.00000  Uiso   1.00
O513   O     0.89441   0.79513   0.25000   0.00000  Uiso   1.00
O514   O     0.89441   0.87154   0.25000   0.00000  Uiso   1.00
O515   O     0.77226   0.79513   0.25000   0.00000  Uiso   1.00
O516   O     0.83333   0.87155   0.18453   0.00000  Uiso   1.00
O517   O     0.83334   0.79511   0.31547   0.00000  Uiso   1.00
O518   O     0.83334   0.87155   0.31547   0.00000  Uiso   1.00
O519   O     0.83333   0.79511   0.18453   0.00000  Uiso   1.00
O520   O     0.89260   0.71116   0.30228   0.00000  Uiso   1.00
Zn521  Zn    0.83333   0.88437   0.25000   0.00000  Uiso   1.00
Zn522  Zn    0.83333   0.78229   0.25000   0.00000  Uiso   1.00
C523   C     0.08684   0.16661   0.74979   0.00000  Uiso   1.00
C524   C     0.31326   0.19552   0.77897   0.00000  Uiso   1.00
C525   C     0.31045   0.13784   0.72121   0.00000  Uiso   1.00
C526   C     0.02288   0.19548   0.77881   0.00000  Uiso   1.00
C527   C     0.14602   0.19995   0.54557   0.00000  Uiso   1.00
C528   C     0.14597   0.13210   0.95213   0.00000  Uiso   1.00
C529   C     0.18847   0.19984   0.95433   0.00000  Uiso   1.00
C530   C     0.18797   0.13215   0.54800   0.00000  Uiso   1.00
C531   C     0.14590   0.20030   0.59164   0.00000  Uiso   1.00
C532   C     0.14574   0.13234   0.90602   0.00000  Uiso   1.00
C533   C     0.18826   0.20024   0.90824   0.00000  Uiso   1.00
C534   C     0.24650   0.16672   0.75022   0.00000  Uiso   1.00
C535   C     0.18787   0.13234   0.59410   0.00000  Uiso   1.00
C536   C     0.16683   0.16648   0.61601   0.00000  Uiso   1.00
C537   C     0.16686   0.16649   0.88399   0.00000  Uiso   1.00
C538   C     0.16707   0.16593   0.52397   0.00000  Uiso   1.00
C539   C     0.16729   0.16585   0.97606   0.00000  Uiso   1.00
C540   C     0.29067   0.16676   0.75011   0.00000  Uiso   1.00
C541   C     0.04266   0.16656   0.74990   0.00000  Uiso   1.00
C542   C     0.16662   0.16664   0.66405   0.00000  Uiso   1.00
C543   C     0.16677   0.16665   0.83595   0.00000  Uiso   1.00
C544   C     0.19577   0.02378   0.77539   0.00000  Uiso   1.00
C545   C     0.13752   0.30958   0.72467   0.00000  Uiso   1.00
C546   C     0.13760   0.02352   0.72458   0.00000  Uiso   1.00
C547   C     0.19578   0.30984   0.77536   0.00000  Uiso   1.00
C548   C     0.02008   0.13779   0.72106   0.00000  Uiso   1.00
F549   F     0.12521   0.23226   0.52190   0.00000  Uiso   1.00
F550   F     0.29382   0.22235   0.80808   0.00000  Uiso   1.00
F551   F     0.28816   0.11075   0.69252   0.00000  Uiso   1.00
F552   F     0.04517   0.22257   0.80750   0.00000  Uiso   1.00
F553   F     0.12490   0.09958   0.97351   0.00000  Uiso   1.00
F554   F     0.20966   0.23214   0.97789   0.00000  Uiso   1.00
F555   F     0.20889   0.09958   0.52674   0.00000  Uiso   1.00
F556   F     0.12449   0.23289   0.61223   0.00000  Uiso   1.00
F557   F     0.12408   0.10002   0.88297   0.00000  Uiso   1.00
F558   F     0.20981   0.23279   0.88751   0.00000  Uiso   1.00
F559   F     0.20912   0.09997   0.61725   0.00000  Uiso   1.00
F560   F     0.03952   0.11093   0.69199   0.00000  Uiso   1.00
H561   H     0.21821   0.07590   0.80572   0.00000  Uiso   1.00
H562   H     0.11478   0.25740   0.69489   0.00000  Uiso   1.00
H563   H     0.11539   0.07548   0.69433   0.00000  Uiso   1.00
H564   H     0.21829   0.25782   0.80503   0.00000  Uiso   1.00
N565   N     0.16667   0.28573   0.75000   0.00000  Uiso   1.00
N566   N     0.16667   0.04760   0.75000   0.00000  Uiso   1.00
O567   O     0.10559   0.20487   0.74999   0.00000  Uiso   1.00
O568   O     0.10725   0.28888   0.69794   0.00000  Uiso   1.00
O569   O     0.10764   0.04400   0.69749   0.00000  Uiso   1.00
O570   O     0.22584   0.28938   0.80228   0.00000  Uiso   1.00
O571   O     0.22774   0.12846   0.75000   0.00000  Uiso   1.00
O572   O     0.22774   0.20487   0.75000   0.00000  Uiso   1.00
O573   O     0.10559   0.12846   0.75000   0.00000  Uiso   1.00
O574   O     0.16666   0.20489   0.68453   0.00000  Uiso   1.00
O575   O     0.16667   0.12845   0.81547   0.00000  Uiso   1.00
O576   O     0.16667   0.20489   0.81547   0.00000  Uiso   1.00
O577   O     0.16666   0.12845   0.68453   0.00000  Uiso   1.00
O578   O     0.22593   0.04450   0.80228   0.00000  Uiso   1.00
Zn579  Zn    0.16667   0.21771   0.75000   0.00000  Uiso   1.00
Zn580  Zn    0.16667   0.11563   0.75000   0.00000  Uiso   1.00
C581   C     0.42017   0.16661   0.74979   0.00000  Uiso   1.00
C582   C     0.64659   0.19552   0.77897   0.00000  Uiso   1.00
C583   C     0.64379   0.13784   0.72121   0.00000  Uiso   1.00
C584   C     0.35621   0.19548   0.77881   0.00000  Uiso   1.00
C585   C     0.47935   0.19995   0.54557   0.00000  Uiso   1.00
C586   C     0.47930   0.13210   0.95213   0.00000  Uiso   1.00
C587   C     0.52181   0.19984   0.95433   0.00000  Uiso   1.00
C588   C     0.52131   0.13215   0.54800   0.00000  Uiso   1.00
C589   C     0.47923   0.20030   0.59164   0.00000  Uiso   1.00
C590   C     0.47907   0.13234   0.90602   0.00000  Uiso   1.00
C591   C     0.52160   0.20024   0.90824   0.00000  Uiso   1.00
C592   C     0.57983   0.16672   0.75022   0.00000  Uiso   1.00
C593   C     0.52120   0.13234   0.59410   0.00000  Uiso   1.00
C594   C     0.50016   0.16648   0.61601   0.00000  Uiso   1.00
C595   C     0.50019   0.16649   0.88399   0.00000  Uiso   1.00
C596   C     0.50040   0.16593   0.52397   0.00000  Uiso   1.00
C597   C     0.50062   0.16585   0.97606   0.00000  Uiso   1.00
C598   C     0.62400   0.16676   0.75011   0.00000  Uiso   1.00
C599   C     0.37599   0.16656   0.74990   0.00000  Uiso   1.00
C600   C     0.49995   0.16664   0.66405   0.00000  Uiso   1.00
C601   C     0.50011   0.16665   0.83595   0.00000  Uiso   1.00
C602   C     0.52910   0.02378   0.77539   0.00000  Uiso   1.00
C603   C     0.47085   0.30958   0.72467   0.00000  Uiso   1.00
C604   C     0.47093   0.02352   0.72458   0.00000  Uiso   1.00
C605   C     0.52911   0.30984   0.77536   0.00000  Uiso   1.00
C606   C     0.35341   0.13779   0.72106   0.00000  Uiso   1.00
F607   F     0.45855   0.23226   0.52190   0.00000  Uiso   1.00
F608   F     0.62715   0.22235   0.80808   0.00000  Uiso   1.00
F609   F     0.62149   0.11075   0.69252   0.00000  Uiso   1.00
F610   F     0.37850   0.22257   0.80750   0.00000  Uiso   1.00
F611   F     0.45823   0.09958   0.97351   0.00000  Uiso   1.00
F612   F     0.54300   0.23214   0.97789   0.00000  Uiso   1.00
F613   F     0.54222   0.09958   0.52674   0.00000  Uiso   1.00
F614   F     0.45782   0.23289   0.61223   0.00000  Uiso   1.00
F615   F     0.45742   0.10002   0.88297   0.00000  Uiso   1.00
F616   F     0.54314   0.23279   0.88751   0.00000  Uiso   1.00
F617   F     0.54245   0.09997   0.61725   0.00000  Uiso   1.00
F618   F     0.37285   0.11093   0.69199   0.00000  Uiso   1.00
H619   H     0.55154   0.07590   0.80572   0.00000  Uiso   1.00
H620   H     0.44811   0.25740   0.69489   0.00000  Uiso   1.00
H621   H     0.44872   0.07548   0.69433   0.00000  Uiso   1.00
H622   H     0.55162   0.25782   0.80503   0.00000  Uiso   1.00
N623   N     0.50000   0.28573   0.75000   0.00000  Uiso   1.00
N624   N     0.50000   0.04760   0.75000   0.00000  Uiso   1.00
O625   O     0.43892   0.20487   0.74999   0.00000  Uiso   1.00
O626   O     0.44059   0.28888   0.69794   0.00000  Uiso   1.00
O627   O     0.44097   0.04400   0.69749   0.00000  Uiso   1.00
O628   O     0.55918   0.28938   0.80228   0.00000  Uiso   1.00
O629   O     0.56108   0.12846   0.75000   0.00000  Uiso   1.00
O630   O     0.56108   0.20487   0.75000   0.00000  Uiso   1.00
O631   O     0.43892   0.12846   0.75000   0.00000  Uiso   1.00
O632   O     0.50000   0.20489   0.68453   0.00000  Uiso   1.00
O633   O     0.50000   0.12845   0.81547   0.00000  Uiso   1.00
O634   O     0.50000   0.20489   0.81547   0.00000  Uiso   1.00
O635   O     0.50000   0.12845   0.68453   0.00000  Uiso   1.00
O636   O     0.55926   0.04450   0.80228   0.00000  Uiso   1.00
Zn637  Zn    0.50000   0.21771   0.75000   0.00000  Uiso   1.00
Zn638  Zn    0.50000   0.11563   0.75000   0.00000  Uiso   1.00
C639   C     0.75350   0.16661   0.74979   0.00000  Uiso   1.00
C640   C     0.97992   0.19552   0.77897   0.00000  Uiso   1.00
C641   C     0.97712   0.13784   0.72121   0.00000  Uiso   1.00
C642   C     0.68955   0.19548   0.77881   0.00000  Uiso   1.00
C643   C     0.81269   0.19995   0.54557   0.00000  Uiso   1.00
C644   C     0.81263   0.13210   0.95213   0.00000  Uiso   1.00
C645   C     0.85514   0.19984   0.95433   0.00000  Uiso   1.00
C646   C     0.85464   0.13215   0.54800   0.00000  Uiso   1.00
C647   C     0.81257   0.20030   0.59164   0.00000  Uiso   1.00
C648   C     0.81241   0.13234   0.90602   0.00000  Uiso   1.00
C649   C     0.85493   0.20024   0.90824   0.00000  Uiso   1.00
C650   C     0.91316   0.16672   0.75022   0.00000  Uiso   1.00
C651   C     0.85454   0.13234   0.59410   0.00000  Uiso   1.00
C652   C     0.83349   0.16648   0.61601   0.00000  Uiso   1.00
C653   C     0.83353   0.16649   0.88399   0.00000  Uiso   1.00
C654   C     0.83373   0.16593   0.52397   0.00000  Uiso   1.00
C655   C     0.83396   0.16585   0.97606   0.00000  Uiso   1.00
C656   C     0.95734   0.16676   0.75011   0.00000  Uiso   1.00
C657   C     0.70933   0.16656   0.74990   0.00000  Uiso   1.00
C658   C     0.83328   0.16664   0.66405   0.00000  Uiso   1.00
C659   C     0.83344   0.16665   0.83595   0.00000  Uiso   1.00
C660   C     0.86244   0.02378   0.77539   0.00000  Uiso   1.00
C661   C     0.80419   0.30958   0.72467   0.00000  Uiso   1.00
C662   C     0.80427   0.02352   0.72458   0.00000  Uiso   1.00
C663   C     0.86244   0.30984   0.77536   0.00000  Uiso   1.00
C664   C     0.68674   0.13779   0.72106   0.00000  Uiso   1.00
F665   F     0.79188   0.23226   0.52190   0.00000  Uiso   1.00
F666   F     0.96049   0.22235   0.80808   0.00000  Uiso   1.00
F667   F     0.95483   0.11075   0.69252   0.00000  Uiso   1.00
F668   F     0.71184   0.22257   0.80750   0.00000  Uiso   1.00
F669   F     0.79156   0.09958   0.97351   0.00000  Uiso   1.00
F670   F     0.87633   0.23214   0.97789   0.00000  Uiso   1.00
F671   F     0.87555   0.09958   0.52674   0.00000  Uiso   1.00
F672   F     0.79116   0.23289   0.61223   0.00000  Uiso   1.00
F673   F     0.79075   0.10002   0.88297   0.00000  Uiso   1.00
F674   F     0.87647   0.23279   0.88751   0.00000  Uiso   1.00
F675   F     0.87579   0.09997   0.61725   0.00000  Uiso   1.00
F676   F     0.70618   0.11093   0.69199   0.00000  Uiso   1.00
H677   H     0.88487   0.07590   0.80572   0.00000  Uiso   1.00
H678   H     0.78145   0.25740   0.69489   0.00000  Uiso   1.00
H679   H     0.78205   0.07548   0.69433   0.00000  Uiso   1.00
H680   H     0.88496   0.25782   0.80503   0.00000  Uiso   1.00
N681   N     0.83333   0.28573   0.75000   0.00000  Uiso   1.00
N682   N     0.83333   0.04760   0.75000   0.00000  Uiso   1.00
O683   O     0.77226   0.20487   0.74999   0.00000  Uiso   1.00
O684   O     0.77392   0.28888   0.69794   0.00000  Uiso   1.00
O685   O     0.77431   0.04400   0.69749   0.00000  Uiso   1.00
O686   O     0.89251   0.28938   0.80228   0.00000  Uiso   1.00
O687   O     0.89441   0.12846   0.75000   0.00000  Uiso   1.00
O688   O     0.89441   0.20487   0.75000   0.00000  Uiso   1.00
O689   O     0.77226   0.12846   0.75000   0.00000  Uiso   1.00
O690   O     0.83333   0.20489   0.68453   0.00000  Uiso   1.00
O691   O     0.83334   0.12845   0.81547   0.00000  Uiso   1.00
O692   O     0.83334   0.20489   0.81547   0.00000  Uiso   1.00
O693   O     0.83333   0.12845   0.68453   0.00000  Uiso   1.00
O694   O     0.89260   0.04450   0.80228   0.00000  Uiso   1.00
Zn695  Zn    0.83333   0.21771   0.75000   0.00000  Uiso   1.00
Zn696  Zn    0.83333   0.11563   0.75000   0.00000  Uiso   1.00
C697   C     0.08684   0.49994   0.74979   0.00000  Uiso   1.00
C698   C     0.31326   0.52885   0.77897   0.00000  Uiso   1.00
C699   C     0.31045   0.47117   0.72121   0.00000  Uiso   1.00
C700   C     0.02288   0.52882   0.77881   0.00000  Uiso   1.00
C701   C     0.14602   0.53328   0.54557   0.00000  Uiso   1.00
C702   C     0.14597   0.46544   0.95213   0.00000  Uiso   1.00
C703   C     0.18847   0.53317   0.95433   0.00000  Uiso   1.00
C704   C     0.18797   0.46548   0.54800   0.00000  Uiso   1.00
C705   C     0.14590   0.53364   0.59164   0.00000  Uiso   1.00
C706   C     0.14574   0.46567   0.90602   0.00000  Uiso   1.00
C707   C     0.18826   0.53357   0.90824   0.00000  Uiso   1.00
C708   C     0.24650   0.50006   0.75022   0.00000  Uiso   1.00
C709   C     0.18787   0.46568   0.59410   0.00000  Uiso   1.00
C710   C     0.16683   0.49981   0.61601   0.00000  Uiso   1.00
C711   C     0.16686   0.49982   0.88399   0.00000  Uiso   1.00
C712   C     0.16707   0.49926   0.52397   0.00000  Uiso   1.00
C713   C     0.16729   0.49918   0.97606   0.00000  Uiso   1.00
C714   C     0.29067   0.50009   0.75011   0.00000  Uiso   1.00
C715   C     0.04266   0.49990   0.74990   0.00000  Uiso   1.00
C716   C     0.16662   0.49998   0.66405   0.00000  Uiso   1.00
C717   C     0.16677   0.49998   0.83595   0.00000  Uiso   1.00
C718   C     0.19577   0.35711   0.77539   0.00000  Uiso   1.00
C719   C     0.13752   0.64292   0.72467   0.00000  Uiso   1.00
C720   C     0.13760   0.35685   0.72458   0.00000  Uiso   1.00
C721   C     0.19578   0.64317   0.77536   0.00000  Uiso   1.00
C722   C     0.02008   0.47112   0.72106   0.00000  Uiso   1.00
F723   F     0.12521   0.56560   0.52190   0.00000  Uiso   1.00
F724   F     0.29382   0.55568   0.80808   0.00000  Uiso   1.00
F725   F     0.28816   0.44408   0.69252   0.00000  Uiso   1.00
F726   F     0.04517   0.55590   0.80750   0.00000  Uiso   1.00
F727   F     0.12490   0.43291   0.97351   0.00000  Uiso   1.00
F728   F     0.20966   0.56547   0.97789   0.00000  Uiso   1.00
F729   F     0.20889   0.43291   0.52674   0.00000  Uiso   1.00
F730   F     0.12449   0.56623   0.61223   0.00000  Uiso   1.00
F731   F     0.12408   0.43335   0.88297   0.00000  Uiso   1.00
F732   F     0.20981   0.56612   0.88751   0.00000  Uiso   1.00
F733   F     0.20912   0.43330   0.61725   0.00000  Uiso   1.00
F734   F     0.03952   0.44426   0.69199   0.00000  Uiso   1.00
H735   H     0.21821   0.40923   0.80572   0.00000  Uiso   1.00
H736   H     0.11478   0.59073   0.69489   0.00000  Uiso   1.00
H737   H     0.11539   0.40881   0.69433   0.00000  Uiso   1.00
H738   H     0.21829   0.59115   0.80503   0.00000  Uiso   1.00
N739   N     0.16667   0.61907   0.75000   0.00000  Uiso   1.00
N740   N     0.16667   0.38093   0.75000   0.00000  Uiso   1.00
O741   O     0.10559   0.53821   0.74999   0.00000  Uiso   1.00
O742   O     0.10725   0.62222   0.69794   0.00000  Uiso   1.00
O743   O     0.10764   0.37733   0.69749   0.00000  Uiso   1.00
O744   O     0.22584   0.62271   0.80228   0.00000  Uiso   1.00
O745   O     0.22774   0.46179   0.75000   0.00000  Uiso   1.00
O746   O     0.22774   0.53821   0.75000   0.00000  Uiso   1.00
O747   O     0.10559   0.46179   0.75000   0.00000  Uiso   1.00
O748   O     0.16666   0.53822   0.68453   0.00000  Uiso   1.00
O749   O     0.16667   0.46178   0.81547   0.00000  Uiso   1.00
O750   O     0.16667   0.53822   0.81547   0.00000  Uiso   1.00
O751   O     0.16666   0.46178   0.68453   0.00000  Uiso   1.00
O752   O     0.22593   0.37783   0.80228   0.00000  Uiso   1.00
Zn753  Zn    0.16667   0.55104   0.75000   0.00000  Uiso   1.00
Zn754  Zn    0.16667   0.44896   0.75000   0.00000  Uiso   1.00
C755   C     0.42017   0.49994   0.74979   0.00000  Uiso   1.00
C756   C     0.64659   0.52885   0.77897   0.00000  Uiso   1.00
C757   C     0.64379   0.47117   0.72121   0.00000  Uiso   1.00
C758   C     0.35621   0.52882   0.77881   0.00000  Uiso   1.00
C759   C     0.47935   0.53328   0.54557   0.00000  Uiso   1.00
C760   C     0.47930   0.46544   0.95213   0.00000  Uiso   1.00
C761   C     0.52181   0.53317   0.95433   0.00000  Uiso   1.00
C762   C     0.52131   0.46548   0.54800   0.00000  Uiso   1.00
C763   C     0.47923   0.53364   0.59164   0.00000  Uiso   1.00
C764   C     0.47907   0.46567   0.90602   0.00000  Uiso   1.00
C765   C     0.52160   0.53357   0.90824   0.00000  Uiso   1.00
C766   C     0.57983   0.50006   0.75022   0.00000  Uiso   1.00
C767   C     0.52120   0.46568   0.59410   0.00000  Uiso   1.00
C768   C     0.50016   0.49981   0.61601   0.00000  Uiso   1.00
C769   C     0.50019   0.49982   0.88399   0.00000  Uiso   1.00
C770   C     0.50040   0.49926   0.52397   0.00000  Uiso   1.00
C771   C     0.50062   0.49918   0.97606   0.00000  Uiso   1.00
C772   C     0.62400   0.50009   0.75011   0.00000  Uiso   1.00
C773   C     0.37599   0.49990   0.74990   0.00000  Uiso   1.00
C774   C     0.49995   0.49998   0.66405   0.00000  Uiso   1.00
C775   C     0.50011   0.49998   0.83595   0.00000  Uiso   1.00
C776   C     0.52910   0.35711   0.77539   0.00000  Uiso   1.00
C777   C     0.47085   0.64292   0.72467   0.00000  Uiso   1.00
C778   C     0.47093   0.35685   0.72458   0.00000  Uiso   1.00
C779   C     0.52911   0.64317   0.77536   0.00000  Uiso   1.00
C780   C     0.35341   0.47112   0.72106   0.00000  Uiso   1.00
F781   F     0.45855   0.56560   0.52190   0.00000  Uiso   1.00
F782   F     0.62715   0.55568   0.80808   0.00000  Uiso   1.00
F783   F     0.62149   0.44408   0.69252   0.00000  Uiso   1.00
F784   F     0.37850   0.55590   0.80750   0.00000  Uiso   1.00
F785   F     0.45823   0.43291   0.97351   0.00000  Uiso   1.00
F786   F     0.54300   0.56547   0.97789   0.00000  Uiso   1.00
F787   F     0.54222   0.43291   0.52674   0.00000  Uiso   1.00
F788   F     0.45782   0.56623   0.61223   0.00000  Uiso   1.00
F789   F     0.45742   0.43335   0.88297   0.00000  Uiso   1.00
F790   F     0.54314   0.56612   0.88751   0.00000  Uiso   1.00
F791   F     0.54245   0.43330   0.61725   0.00000  Uiso   1.00
F792   F     0.37285   0.44426   0.69199   0.00000  Uiso   1.00
H793   H     0.55154   0.40923   0.80572   0.00000  Uiso   1.00
H794   H     0.44811   0.59073   0.69489   0.00000  Uiso   1.00
H795   H     0.44872   0.40881   0.69433   0.00000  Uiso   1.00
H796   H     0.55162   0.59115   0.80503   0.00000  Uiso   1.00
N797   N     0.50000   0.61907   0.75000   0.00000  Uiso   1.00
N798   N     0.50000   0.38093   0.75000   0.00000  Uiso   1.00
O799   O     0.43892   0.53821   0.74999   0.00000  Uiso   1.00
O800   O     0.44059   0.62222   0.69794   0.00000  Uiso   1.00
O801   O     0.44097   0.37733   0.69749   0.00000  Uiso   1.00
O802   O     0.55918   0.62271   0.80228   0.00000  Uiso   1.00
O803   O     0.56108   0.46179   0.75000   0.00000  Uiso   1.00
O804   O     0.56108   0.53821   0.75000   0.00000  Uiso   1.00
O805   O     0.43892   0.46179   0.75000   0.00000  Uiso   1.00
O806   O     0.50000   0.53822   0.68453   0.00000  Uiso   1.00
O807   O     0.50000   0.46178   0.81547   0.00000  Uiso   1.00
O808   O     0.50000   0.53822   0.81547   0.00000  Uiso   1.00
O809   O     0.50000   0.46178   0.68453   0.00000  Uiso   1.00
O810   O     0.55926   0.37783   0.80228   0.00000  Uiso   1.00
Zn811  Zn    0.50000   0.55104   0.75000   0.00000  Uiso   1.00
Zn812  Zn    0.50000   0.44896   0.75000   0.00000  Uiso   1.00
C813   C     0.75350   0.49994   0.74979   0.00000  Uiso   1.00
C814   C     0.97992   0.52885   0.77897   0.00000  Uiso   1.00
C815   C     0.97712   0.47117   0.72121   0.00000  Uiso   1.00
C816   C     0.68955   0.52882   0.77881   0.00000  Uiso   1.00
C817   C     0.81269   0.53328   0.54557   0.00000  Uiso   1.00
C818   C     0.81263   0.46544   0.95213   0.00000  Uiso   1.00
C819   C     0.85514   0.53317   0.95433   0.00000  Uiso   1.00
C820   C     0.85464   0.46548   0.54800   0.00000  Uiso   1.00
C821   C     0.81257   0.53364   0.59164   0.00000  Uiso   1.00
C822   C     0.81241   0.46567   0.90602   0.00000  Uiso   1.00
C823   C     0.85493   0.53357   0.90824   0.00000  Uiso   1.00
C824   C     0.91316   0.50006   0.75022   0.00000  Uiso   1.00
C825   C     0.85454   0.46568   0.59410   0.00000  Uiso   1.00
C826   C     0.83349   0.49981   0.61601   0.00000  Uiso   1.00
C827   C     0.83353   0.49982   0.88399   0.00000  Uiso   1.00
C828   C     0.83373   0.49926   0.52397   0.00000  Uiso   1.00
C829   C     0.83396   0.49918   0.97606   0.00000  Uiso   1.00
C830   C     0.95734   0.50009   0.75011   0.00000  Uiso   1.00
C831   C     0.70933   0.49990   0.74990   0.00000  Uiso   1.00
C832   C     0.83328   0.49998   0.66405   0.00000  Uiso   1.00
C833   C     0.83344   0.49998   0.83595   0.00000  Uiso   1.00
C834   C     0.86244   0.35711   0.77539   0.00000  Uiso   1.00
C835   C     0.80419   0.64292   0.72467   0.00000  Uiso   1.00
C836   C     0.80427   0.35685   0.72458   0.00000  Uiso   1.00
C837   C     0.86244   0.64317   0.77536   0.00000  Uiso   1.00
C838   C     0.68674   0.47112   0.72106   0.00000  Uiso   1.00
F839   F     0.79188   0.56560   0.52190   0.00000  Uiso   1.00
F840   F     0.96049   0.55568   0.80808   0.00000  Uiso   1.00
F841   F     0.95483   0.44408   0.69252   0.00000  Uiso   1.00
F842   F     0.71184   0.55590   0.80750   0.00000  Uiso   1.00
F843   F     0.79156   0.43291   0.97351   0.00000  Uiso   1.00
F844   F     0.87633   0.56547   0.97789   0.00000  Uiso   1.00
F845   F     0.87555   0.43291   0.52674   0.00000  Uiso   1.00
F846   F     0.79116   0.56623   0.61223   0.00000  Uiso   1.00
F847   F     0.79075   0.43335   0.88297   0.00000  Uiso   1.00
F848   F     0.87647   0.56612   0.88751   0.00000  Uiso   1.00
F849   F     0.87579   0.43330   0.61725   0.00000  Uiso   1.00
F850   F     0.70618   0.44426   0.69199   0.00000  Uiso   1.00
H851   H     0.88487   0.40923   0.80572   0.00000  Uiso   1.00
H852   H     0.78145   0.59073   0.69489   0.00000  Uiso   1.00
H853   H     0.78205   0.40881   0.69433   0.00000  Uiso   1.00
H854   H     0.88496   0.59115   0.80503   0.00000  Uiso   1.00
N855   N     0.83333   0.61907   0.75000   0.00000  Uiso   1.00
N856   N     0.83333   0.38093   0.75000   0.00000  Uiso   1.00
O857   O     0.77226   0.53821   0.74999   0.00000  Uiso   1.00
O858   O     0.77392   0.62222   0.69794   0.00000  Uiso   1.00
O859   O     0.77431   0.37733   0.69749   0.00000  Uiso   1.00
O860   O     0.89251   0.62271   0.80228   0.00000  Uiso   1.00
O861   O     0.89441   0.46179   0.75000   0.00000  Uiso   1.00
O862   O     0.89441   0.53821   0.75000   0.00000  Uiso   1.00
O863   O     0.77226   0.46179   0.75000   0.00000  Uiso   1.00
O864   O     0.83333   0.53822   0.68453   0.00000  Uiso   1.00
O865   O     0.83334   0.46178   0.81547   0.00000  Uiso   1.00
O866   O     0.83334   0.53822   0.81547   0.00000  Uiso   1.00
O867   O     0.83333   0.46178   0.68453   0.00000  Uiso   1.00
O868   O     0.89260   0.37783   0.80228   0.00000  Uiso   1.00
Zn869  Zn    0.83333   0.55104   0.75000   0.00000  Uiso   1.00
Zn870  Zn    0.83333   0.44896   0.75000   0.00000  Uiso   1.00
C871   C     0.08684   0.83328   0.74979   0.00000  Uiso   1.00
C872   C     0.31326   0.86219   0.77897   0.00000  Uiso   1.00
C873   C     0.31045   0.80450   0.72121   0.00000  Uiso   1.00
C874   C     0.02288   0.86215   0.77881   0.00000  Uiso   1.00
C875   C     0.14602   0.86661   0.54557   0.00000  Uiso   1.00
C876   C     0.14597   0.79877   0.95213   0.00000  Uiso   1.00
C877   C     0.18847   0.86651   0.95433   0.00000  Uiso   1.00
C878   C     0.18797   0.79881   0.54800   0.00000  Uiso   1.00
C879   C     0.14590   0.86697   0.59164   0.00000  Uiso   1.00
C880   C     0.14574   0.79901   0.90602   0.00000  Uiso   1.00
C881   C     0.18826   0.86691   0.90824   0.00000  Uiso   1.00
C882   C     0.24650   0.83339   0.75022   0.00000  Uiso   1.00
C883   C     0.18787   0.79901   0.59410   0.00000  Uiso   1.00
C884   C     0.16683   0.83315   0.61601   0.00000  Uiso   1.00
C885   C     0.16686   0.83315   0.88399   0.00000  Uiso   1.00
C886   C     0.16707   0.83260   0.52397   0.00000  Uiso   1.00
C887   C     0.16729   0.83252   0.97606   0.00000  Uiso   1.00
C888   C     0.29067   0.83343   0.75011   0.00000  Uiso   1.00
C889   C     0.04266   0.83323   0.74990   0.00000  Uiso   1.00
C890   C     0.16662   0.83331   0.66405   0.00000  Uiso   1.00
C891   C     0.16677   0.83332   0.83595   0.00000  Uiso   1.00
C892   C     0.19577   0.69044   0.77539   0.00000  Uiso   1.00
C893   C     0.13752   0.97625   0.72467   0.00000  Uiso   1.00
C894   C     0.13760   0.69019   0.72458   0.00000  Uiso   1.00
C895   C     0.19578   0.97651   0.77536   0.00000  Uiso   1.00
C896   C     0.02008   0.80445   0.72106   0.00000  Uiso   1.00
F897   F     0.12521   0.89893   0.52190   0.00000  Uiso   1.00
F898   F     0.29382   0.88901   0.80808   0.00000  Uiso   1.00
F899   F     0.28816   0.77742   0.69252   0.00000  Uiso   1.00
F900   F     0.04517   0.88923   0.80750   0.00000  Uiso   1.00
F901   F     0.12490   0.76624   0.97351   0.00000  Uiso   1.00
F902   F     0.20966   0.89881   0.97789   0.00000  Uiso   1.00
F903   F     0.20889   0.76625   0.52674   0.00000  Uiso   1.00
F904   F     0.12449   0.89956   0.61223   0.00000  Uiso   1.00
F905   F     0.12408   0.76669   0.88297   0.00000  Uiso   1.00
F906   F     0.20981   0.89946   0.88751   0.00000  Uiso   1.00
F907   F     0.20912   0.76664   0.61725   0.00000  Uiso   1.00
F908   F     0.03952   0.77759   0.69199   0.00000  Uiso   1.00
H909   H     0.21821   0.74257   0.80572   0.00000  Uiso   1.00
H910   H     0.11478   0.92406   0.69489   0.00000  Uiso   1.00
H911   H     0.11539   0.74215   0.69433   0.00000  Uiso   1.00
H912   H     0.21829   0.92448   0.80503   0.00000  Uiso   1.00
N913   N     0.16667   0.95240   0.75000   0.00000  Uiso   1.00
N914   N     0.16667   0.71427   0.75000   0.00000  Uiso   1.00
O915   O     0.10559   0.87154   0.74999   0.00000  Uiso   1.00
O916   O     0.10725   0.95555   0.69794   0.00000  Uiso   1.00
O917   O     0.10764   0.71067   0.69749   0.00000  Uiso   1.00
O918   O     0.22584   0.95604   0.80228   0.00000  Uiso   1.00
O919   O     0.22774   0.79513   0.75000   0.00000  Uiso   1.00
O920   O     0.22774   0.87154   0.75000   0.00000  Uiso   1.00
O921   O     0.10559   0.79513   0.75000   0.00000  Uiso   1.00
O922   O     0.16666   0.87155   0.68453   0.00000  Uiso   1.00
O923   O     0.16667   0.79511   0.81547   0.00000  Uiso   1.00
O924   O     0.16667   0.87155   0.81547   0.00000  Uiso   1.00
O925   O     0.16666   0.79511   0.68453   0.00000  Uiso   1.00
O926   O     0.22593   0.71116   0.80228   0.00000  Uiso   1.00
Zn927  Zn    0.16667   0.88437   0.75000   0.00000  Uiso   1.00
Zn928  Zn    0.16667   0.78229   0.75000   0.00000  Uiso   1.00
C929   C     0.42017   0.83328   0.74979   0.00000  Uiso   1.00
C930   C     0.64659   0.86219   0.77897   0.00000  Uiso   1.00
C931   C     0.64379   0.80450   0.72121   0.00000  Uiso   1.00
C932   C     0.35621   0.86215   0.77881   0.00000  Uiso   1.00
C933   C     0.47935   0.86661   0.54557   0.00000  Uiso   1.00
C934   C     0.47930   0.79877   0.95213   0.00000  Uiso   1.00
C935   C     0.52181   0.86651   0.95433   0.00000  Uiso   1.00
C936   C     0.52131   0.79881   0.54800   0.00000  Uiso   1.00
C937   C     0.47923   0.86697   0.59164   0.00000  Uiso   1.00
C938   C     0.47907   0.79901   0.90602   0.00000  Uiso   1.00
C939   C     0.52160   0.86691   0.90824   0.00000  Uiso   1.00
C940   C     0.57983   0.83339   0.75022   0.00000  Uiso   1.00
C941   C     0.52120   0.79901   0.59410   0.00000  Uiso   1.00
C942   C     0.50016   0.83315   0.61601   0.00000  Uiso   1.00
C943   C     0.50019   0.83315   0.88399   0.00000  Uiso   1.00
C944   C     0.50040   0.83260   0.52397   0.00000  Uiso   1.00
C945   C     0.50062   0.83252   0.97606   0.00000  Uiso   1.00
C946   C     0.62400   0.83343   0.75011   0.00000  Uiso   1.00
C947   C     0.37599   0.83323   0.74990   0.00000  Uiso   1.00
C948   C     0.49995   0.83331   0.66405   0.00000  Uiso   1.00
C949   C     0.50011   0.83332   0.83595   0.00000  Uiso   1.00
C950   C     0.52910   0.69044   0.77539   0.00000  Uiso   1.00
C951   C     0.47085   0.97625   0.72467   0.00000  Uiso   1.00
C952   C     0.47093   0.69019   0.72458   0.00000  Uiso   1.00
C953   C     0.52911   0.97651   0.77536   0.00000  Uiso   1.00
C954   C     0.35341   0.80445   0.72106   0.00000  Uiso   1.00
F955   F     0.45855   0.89893   0.52190   0.00000  Uiso   1.00
F956   F     0.62715   0.88901   0.80808   0.00000  Uiso   1.00
F957   F     0.62149   0.77742   0.69252   0.00000  Uiso   1.00
F958   F     0.37850   0.88923   0.80750   0.00000  Uiso   1.00
F959   F     0.45823   0.76624   0.97351   0.00000  Uiso   1.00
F960   F     0.54300   0.89881   0.97789   0.00000  Uiso   1.00
F961   F     0.54222   0.76625   0.52674   0.00000  Uiso   1.00
F962   F     0.45782   0.89956   0.61223   0.00000  Uiso   1.00
F963   F     0.45742   0.76669   0.88297   0.00000  Uiso   1.00
F964   F     0.54314   0.89946   0.88751   0.00000  Uiso   1.00
F965   F     0.54245   0.76664   0.61725   0.00000  Uiso   1.00
F966   F     0.37285   0.77759   0.69199   0.00000  Uiso   1.00
H967   H     0.55154   0.74257   0.80572   0.00000  Uiso   1.00
H968   H     0.44811   0.92406   0.69489   0.00000  Uiso   1.00
H969   H     0.44872   0.74215   0.69433   0.00000  Uiso   1.00
H970   H     0.55162   0.92448   0.80503   0.00000  Uiso   1.00
N971   N     0.50000   0.95240   0.75000   0.00000  Uiso   1.00
N972   N     0.50000   0.71427   0.75000   0.00000  Uiso   1.00
O973   O     0.43892   0.87154   0.74999   0.00000  Uiso   1.00
O974   O     0.44059   0.95555   0.69794   0.00000  Uiso   1.00
O975   O     0.44097   0.71067   0.69749   0.00000  Uiso   1.00
O976   O     0.55918   0.95604   0.80228   0.00000  Uiso   1.00
O977   O     0.56108   0.79513   0.75000   0.00000  Uiso   1.00
O978   O     0.56108   0.87154   0.75000   0.00000  Uiso   1.00
O979   O     0.43892   0.79513   0.75000   0.00000  Uiso   1.00
O980   O     0.50000   0.87155   0.68453   0.00000  Uiso   1.00
O981   O     0.50000   0.79511   0.81547   0.00000  Uiso   1.00
O982   O     0.50000   0.87155   0.81547   0.00000  Uiso   1.00
O983   O     0.50000   0.79511   0.68453   0.00000  Uiso   1.00
O984   O     0.55926   0.71116   0.80228   0.00000  Uiso   1.00
Zn985  Zn    0.50000   0.88437   0.75000   0.00000  Uiso   1.00
Zn986  Zn    0.50000   0.78229   0.75000   0.00000  Uiso   1.00
C987   C     0.75350   0.83328   0.74979   0.00000  Uiso   1.00
C988   C     0.97992   0.86219   0.77897   0.00000  Uiso   1.00
C989   C     0.97712   0.80450   0.72121   0.00000  Uiso   1.00
C990   C     0.68955   0.86215   0.77881   0.00000  Uiso   1.00
C991   C     0.81269   0.86661   0.54557   0.00000  Uiso   1.00
C992   C     0.81263   0.79877   0.95213   0.00000  Uiso   1.00
C993   C     0.85514   0.86651   0.95433   0.00000  Uiso   1.00
C994   C     0.85464   0.79881   0.54800   0.00000  Uiso   1.00
C995   C     0.81257   0.86697   0.59164   0.00000  Uiso   1.00
C996   C     0.81241   0.79901   0.90602   0.00000  Uiso   1.00
C997   C     0.85493   0.86691   0.90824   0.00000  Uiso   1.00
C998   C     0.91316   0.83339   0.75022   0.00000  Uiso   1.00
C999   C     0.85454   0.79901   0.59410   0.00000  Uiso   1.00
C1000  C     0.83349   0.83315   0.61601   0.00000  Uiso   1.00
C1001  C     0.83353   0.83315   0.88399   0.00000  Uiso   1.00
C1002  C     0.83373   0.83260   0.52397   0.00000  Uiso   1.00
C1003  C     0.83396   0.83252   0.97606   0.00000  Uiso   1.00
C1004  C     0.95734   0.83343   0.75011   0.00000  Uiso   1.00
C1005  C     0.70933   0.83323   0.74990   0.00000  Uiso   1.00
C1006  C     0.83328   0.83331   0.66405   0.00000  Uiso   1.00
C1007  C     0.83344   0.83332   0.83595   0.00000  Uiso   1.00
C1008  C     0.86244   0.69044   0.77539   0.00000  Uiso   1.00
C1009  C     0.80419   0.97625   0.72467   0.00000  Uiso   1.00
C1010  C     0.80427   0.69019   0.72458   0.00000  Uiso   1.00
C1011  C     0.86244   0.97651   0.77536   0.00000  Uiso   1.00
C1012  C     0.68674   0.80445   0.72106   0.00000  Uiso   1.00
F1013  F     0.79188   0.89893   0.52190   0.00000  Uiso   1.00
F1014  F     0.96049   0.88901   0.80808   0.00000  Uiso   1.00
F1015  F     0.95483   0.77742   0.69252   0.00000  Uiso   1.00
F1016  F     0.71184   0.88923   0.80750   0.00000  Uiso   1.00
F1017  F     0.79156   0.76624   0.97351   0.00000  Uiso   1.00
F1018  F     0.87633   0.89881   0.97789   0.00000  Uiso   1.00
F1019  F     0.87555   0.76625   0.52674   0.00000  Uiso   1.00
F1020  F     0.79116   0.89956   0.61223   0.00000  Uiso   1.00
F1021  F     0.79075   0.76669   0.88297   0.00000  Uiso   1.00
F1022  F     0.87647   0.89946   0.88751   0.00000  Uiso   1.00
F1023  F     0.87579   0.76664   0.61725   0.00000  Uiso   1.00
F1024  F     0.70618   0.77759   0.69199   0.00000  Uiso   1.00
H1025  H     0.88487   0.74257   0.80572   0.00000  Uiso   1.00
H1026  H     0.78145   0.92406   0.69489   0.00000  Uiso   1.00
H1027  H     0.78205   0.74215   0.69433   0.00000  Uiso   1.00
H1028  H     0.88496   0.92448   0.80503   0.00000  Uiso   1.00
N1029  N     0.83333   0.95240   0.75000   0.00000  Uiso   1.00
N1030  N     0.83333   0.71427   0.75000   0.00000  Uiso   1.00
O1031  O     0.77226   0.87154   0.74999   0.00000  Uiso   1.00
O1032  O     0.77392   0.95555   0.69794   0.00000  Uiso   1.00
O1033  O     0.77431   0.71067   0.69749   0.00000  Uiso   1.00
O1034  O     0.89251   0.95604   0.80228   0.00000  Uiso   1.00
O1035  O     0.89441   0.79513   0.75000   0.00000  Uiso   1.00
O1036  O     0.89441   0.87154   0.75000   0.00000  Uiso   1.00
O1037  O     0.77226   0.79513   0.75000   0.00000  Uiso   1.00
O1038  O     0.83333   0.87155   0.68453   0.00000  Uiso   1.00
O1039  O     0.83334   0.79511   0.81547   0.00000  Uiso   1.00
O1040  O     0.83334   0.87155   0.81547   0.00000  Uiso   1.00
O1041  O     0.83333   0.79511   0.68453   0.00000  Uiso   1.00
O1042  O     0.89260   0.71116   0.80228   0.00000  Uiso   1.00
Zn1043 Zn    0.83333   0.88437   0.75000   0.00000  Uiso   1.00
Zn1044 Zn    0.83333   0.78229   0.75000   0.00000  Uiso   1.00
loop_
_geom_bond_atom_site_label_1
_geom_bond_atom_site_label_2
_geom_bond_distance
_geom_bond_site_symmetry_2
_ccdc_geom_bond_type
C1     O51     1.291   .     A
C1     O45     1.291   .     A
C1     C19     1.413   .     S
C2     C18     1.397   .     A
C2     F28     1.358   .     S
C2     C62     1.374   .     S
C3     F29     1.359   .     S
C3     C18     1.397   .     A
C3     C84     1.374   .     S
C4     F30     1.359   .     S
C4     C19     1.397   .     A
C4     C118    1.374   1_455 S
C5     C9      1.382   .     A
C5     C16     1.397   .     A
C5     F27     1.359   .     S
C6     C10     1.383   .     A
C6     F31     1.359   .     S
C6     C17     1.397   .     A
C7     C11     1.382   .     A
C7     F32     1.359   .     S
C7     C17     1.397   .     A
C8     C13     1.383   .     A
C8     F33     1.358   .     S
C8     C16     1.397   .     A
C9     C14     1.403   .     A
C9     F34     1.357   .     S
C10    F35     1.359   .     S
C10    C15     1.404   .     A
C11    F36     1.357   .     S
C11    C15     1.403   .     A
C12    O49     1.291   .     A
C12    C18     1.413   .     S
C12    O50     1.291   .     A
C13    F37     1.359   .     S
C13    C14     1.404   .     A
C14    C20     1.441   .     S
C15    C21     1.440   .     S
C16    C539    1.437   1_554 S
C17    C538    1.437   .     S
C19    C26     1.397   .     A
C20    O52     1.299   .     A
C20    O55     1.298   .     A
C21    O53     1.298   .     A
C21    O54     1.299   .     A
C22    O56     1.376   .     S
C22    N44     1.378   .     A
C22    C373    1.415   1_545 S
C23    O46     1.375   .     S
C23    N43     1.378   .     A
C23    C198    1.415   .     S
C24    N44     1.378   .     A
C24    O47     1.375   .     S
C24    C371    1.415   1_545 S
C25    N43     1.378   .     A
C25    O48     1.374   .     S
C25    C196    1.415   .     S
C26    F38     1.358   .     S
C26    C119    1.374   1_455 S
H39    O56     0.979   .     S
H40    O46     0.979   .     S
H41    O47     0.979   .     S
H42    O48     0.978   .     S
N43    Zn57    2.036   .     S
N44    Zn58    2.036   .     S
O45    Zn57    1.989   .     S
O49    Zn58    1.989   .     S
O50    Zn57    1.992   .     S
O51    Zn58    1.992   .     S
O52    Zn57    2.000   .     S
O53    Zn58    2.000   .     S
O54    Zn57    2.000   .     S
O55    Zn58    2.000   .     S
C59    O109    1.291   .     A
C59    O103    1.291   .     A
C59    C77     1.413   .     S
C60    C76     1.397   .     A
C60    F86     1.358   .     S
C60    C120    1.374   .     S
C61    F87     1.359   .     S
C61    C76     1.397   .     A
C61    C142    1.374   .     S
C62    F88     1.359   .     S
C62    C77     1.397   .     A
C63    C67     1.382   .     A
C63    C74     1.397   .     A
C63    F85     1.359   .     S
C64    C68     1.383   .     A
C64    F89     1.359   .     S
C64    C75     1.397   .     A
C65    C69     1.382   .     A
C65    F90     1.359   .     S
C65    C75     1.397   .     A
C66    C71     1.383   .     A
C66    F91     1.358   .     S
C66    C74     1.397   .     A
C67    C72     1.403   .     A
C67    F92     1.357   .     S
C68    F93     1.359   .     S
C68    C73     1.404   .     A
C69    F94     1.357   .     S
C69    C73     1.403   .     A
C70    O107    1.291   .     A
C70    C76     1.413   .     S
C70    O108    1.291   .     A
C71    F95     1.359   .     S
C71    C72     1.404   .     A
C72    C78     1.441   .     S
C73    C79     1.440   .     S
C74    C597    1.437   1_554 S
C75    C596    1.437   .     S
C77    C84     1.397   .     A
C78    O110    1.299   .     A
C78    O113    1.298   .     A
C79    O111    1.298   .     A
C79    O112    1.299   .     A
C80    O114    1.376   .     S
C80    N102    1.378   .     A
C80    C431    1.415   1_545 S
C81    O104    1.375   .     S
C81    N101    1.378   .     A
C81    C256    1.415   .     S
C82    N102    1.378   .     A
C82    O105    1.375   .     S
C82    C429    1.415   1_545 S
C83    N101    1.378   .     A
C83    O106    1.374   .     S
C83    C254    1.415   .     S
C84    F96     1.358   .     S
H97    O114    0.979   .     S
H98    O104    0.979   .     S
H99    O105    0.979   .     S
H100   O106    0.978   .     S
N101   Zn115   2.036   .     S
N102   Zn116   2.036   .     S
O103   Zn115   1.989   .     S
O107   Zn116   1.989   .     S
O108   Zn115   1.992   .     S
O109   Zn116   1.992   .     S
O110   Zn115   2.000   .     S
O111   Zn116   2.000   .     S
O112   Zn115   2.000   .     S
O113   Zn116   2.000   .     S
C117   O167    1.291   .     A
C117   O161    1.291   .     A
C117   C135    1.413   .     S
C118   C134    1.397   .     A
C118   F144    1.358   .     S
C118   C4      1.374   1_655 S
C119   F145    1.359   .     S
C119   C134    1.397   .     A
C119   C26     1.374   1_655 S
C120   F146    1.359   .     S
C120   C135    1.397   .     A
C121   C125    1.382   .     A
C121   C132    1.397   .     A
C121   F143    1.359   .     S
C122   C126    1.383   .     A
C122   F147    1.359   .     S
C122   C133    1.397   .     A
C123   C127    1.382   .     A
C123   F148    1.359   .     S
C123   C133    1.397   .     A
C124   C129    1.383   .     A
C124   F149    1.358   .     S
C124   C132    1.397   .     A
C125   C130    1.403   .     A
C125   F150    1.357   .     S
C126   F151    1.359   .     S
C126   C131    1.404   .     A
C127   F152    1.357   .     S
C127   C131    1.403   .     A
C128   O165    1.291   .     A
C128   C134    1.413   .     S
C128   O166    1.291   .     A
C129   F153    1.359   .     S
C129   C130    1.404   .     A
C130   C136    1.441   .     S
C131   C137    1.440   .     S
C132   C655    1.437   1_554 S
C133   C654    1.437   .     S
C135   C142    1.397   .     A
C136   O168    1.299   .     A
C136   O171    1.298   .     A
C137   O169    1.298   .     A
C137   O170    1.299   .     A
C138   O172    1.376   .     S
C138   N160    1.378   .     A
C138   C489    1.415   1_545 S
C139   O162    1.375   .     S
C139   N159    1.378   .     A
C139   C314    1.415   .     S
C140   N160    1.378   .     A
C140   O163    1.375   .     S
C140   C487    1.415   1_545 S
C141   N159    1.378   .     A
C141   O164    1.374   .     S
C141   C312    1.415   .     S
C142   F154    1.358   .     S
H155   O172    0.979   .     S
H156   O162    0.979   .     S
H157   O163    0.979   .     S
H158   O164    0.978   .     S
N159   Zn173   2.036   .     S
N160   Zn174   2.036   .     S
O161   Zn173   1.989   .     S
O165   Zn174   1.989   .     S
O166   Zn173   1.992   .     S
O167   Zn174   1.992   .     S
O168   Zn173   2.000   .     S
O169   Zn174   2.000   .     S
O170   Zn173   2.000   .     S
O171   Zn174   2.000   .     S
C175   O225    1.291   .     A
C175   O219    1.291   .     A
C175   C193    1.413   .     S
C176   C192    1.397   .     A
C176   F202    1.358   .     S
C176   C236    1.374   .     S
C177   F203    1.359   .     S
C177   C192    1.397   .     A
C177   C258    1.374   .     S
C178   F204    1.359   .     S
C178   C193    1.397   .     A
C178   C292    1.374   1_455 S
C179   C183    1.382   .     A
C179   C190    1.397   .     A
C179   F201    1.359   .     S
C180   C184    1.383   .     A
C180   F205    1.359   .     S
C180   C191    1.397   .     A
C181   C185    1.382   .     A
C181   F206    1.359   .     S
C181   C191    1.397   .     A
C182   C187    1.383   .     A
C182   F207    1.358   .     S
C182   C190    1.397   .     A
C183   C188    1.403   .     A
C183   F208    1.357   .     S
C184   F209    1.359   .     S
C184   C189    1.404   .     A
C185   F210    1.357   .     S
C185   C189    1.403   .     A
C186   O223    1.291   .     A
C186   C192    1.413   .     S
C186   O224    1.291   .     A
C187   F211    1.359   .     S
C187   C188    1.404   .     A
C188   C194    1.441   .     S
C189   C195    1.440   .     S
C190   C713    1.437   1_554 S
C191   C712    1.437   .     S
C193   C200    1.397   .     A
C194   O226    1.299   .     A
C194   O229    1.298   .     A
C195   O227    1.298   .     A
C195   O228    1.299   .     A
C196   O230    1.376   .     S
C196   N218    1.378   .     A
C197   O220    1.375   .     S
C197   N217    1.378   .     A
C197   C372    1.415   .     S
C198   N218    1.378   .     A
C198   O221    1.375   .     S
C199   N217    1.378   .     A
C199   O222    1.374   .     S
C199   C370    1.415   .     S
C200   F212    1.358   .     S
C200   C293    1.374   1_455 S
H213   O230    0.979   .     S
H214   O220    0.979   .     S
H215   O221    0.979   .     S
H216   O222    0.978   .     S
N217   Zn231   2.036   .     S
N218   Zn232   2.036   .     S
O219   Zn231   1.989   .     S
O223   Zn232   1.989   .     S
O224   Zn231   1.992   .     S
O225   Zn232   1.992   .     S
O226   Zn231   2.000   .     S
O227   Zn232   2.000   .     S
O228   Zn231   2.000   .     S
O229   Zn232   2.000   .     S
C233   O283    1.291   .     A
C233   O277    1.291   .     A
C233   C251    1.413   .     S
C234   C250    1.397   .     A
C234   F260    1.358   .     S
C234   C294    1.374   .     S
C235   F261    1.359   .     S
C235   C250    1.397   .     A
C235   C316    1.374   .     S
C236   F262    1.359   .     S
C236   C251    1.397   .     A
C237   C241    1.382   .     A
C237   C248    1.397   .     A
C237   F259    1.359   .     S
C238   C242    1.383   .     A
C238   F263    1.359   .     S
C238   C249    1.397   .     A
C239   C243    1.382   .     A
C239   F264    1.359   .     S
C239   C249    1.397   .     A
C240   C245    1.383   .     A
C240   F265    1.358   .     S
C240   C248    1.397   .     A
C241   C246    1.403   .     A
C241   F266    1.357   .     S
C242   F267    1.359   .     S
C242   C247    1.404   .     A
C243   F268    1.357   .     S
C243   C247    1.403   .     A
C244   O281    1.291   .     A
C244   C250    1.413   .     S
C244   O282    1.291   .     A
C245   F269    1.359   .     S
C245   C246    1.404   .     A
C246   C252    1.441   .     S
C247   C253    1.440   .     S
C248   C771    1.437   1_554 S
C249   C770    1.437   .     S
C251   C258    1.397   .     A
C252   O284    1.299   .     A
C252   O287    1.298   .     A
C253   O285    1.298   .     A
C253   O286    1.299   .     A
C254   O288    1.376   .     S
C254   N276    1.378   .     A
C255   O278    1.375   .     S
C255   N275    1.378   .     A
C255   C430    1.415   .     S
C256   N276    1.378   .     A
C256   O279    1.375   .     S
C257   N275    1.378   .     A
C257   O280    1.374   .     S
C257   C428    1.415   .     S
C258   F270    1.358   .     S
H271   O288    0.979   .     S
H272   O278    0.979   .     S
H273   O279    0.979   .     S
H274   O280    0.978   .     S
N275   Zn289   2.036   .     S
N276   Zn290   2.036   .     S
O277   Zn289   1.989   .     S
O281   Zn290   1.989   .     S
O282   Zn289   1.992   .     S
O283   Zn290   1.992   .     S
O284   Zn289   2.000   .     S
O285   Zn290   2.000   .     S
O286   Zn289   2.000   .     S
O287   Zn290   2.000   .     S
C291   O341    1.291   .     A
C291   O335    1.291   .     A
C291   C309    1.413   .     S
C292   C308    1.397   .     A
C292   F318    1.358   .     S
C292   C178    1.374   1_655 S
C293   F319    1.359   .     S
C293   C308    1.397   .     A
C293   C200    1.374   1_655 S
C294   F320    1.359   .     S
C294   C309    1.397   .     A
C295   C299    1.382   .     A
C295   C306    1.397   .     A
C295   F317    1.359   .     S
C296   C300    1.383   .     A
C296   F321    1.359   .     S
C296   C307    1.397   .     A
C297   C301    1.382   .     A
C297   F322    1.359   .     S
C297   C307    1.397   .     A
C298   C303    1.383   .     A
C298   F323    1.358   .     S
C298   C306    1.397   .     A
C299   C304    1.403   .     A
C299   F324    1.357   .     S
C300   F325    1.359   .     S
C300   C305    1.404   .     A
C301   F326    1.357   .     S
C301   C305    1.403   .     A
C302   O339    1.291   .     A
C302   C308    1.413   .     S
C302   O340    1.291   .     A
C303   F327    1.359   .     S
C303   C304    1.404   .     A
C304   C310    1.441   .     S
C305   C311    1.440   .     S
C306   C829    1.437   1_554 S
C307   C828    1.437   .     S
C309   C316    1.397   .     A
C310   O342    1.299   .     A
C310   O345    1.298   .     A
C311   O343    1.298   .     A
C311   O344    1.299   .     A
C312   O346    1.376   .     S
C312   N334    1.378   .     A
C313   O336    1.375   .     S
C313   N333    1.378   .     A
C313   C488    1.415   .     S
C314   N334    1.378   .     A
C314   O337    1.375   .     S
C315   N333    1.378   .     A
C315   O338    1.374   .     S
C315   C486    1.415   .     S
C316   F328    1.358   .     S
H329   O346    0.979   .     S
H330   O336    0.979   .     S
H331   O337    0.979   .     S
H332   O338    0.978   .     S
N333   Zn347   2.036   .     S
N334   Zn348   2.036   .     S
O335   Zn347   1.989   .     S
O339   Zn348   1.989   .     S
O340   Zn347   1.992   .     S
O341   Zn348   1.992   .     S
O342   Zn347   2.000   .     S
O343   Zn348   2.000   .     S
O344   Zn347   2.000   .     S
O345   Zn348   2.000   .     S
C349   O399    1.291   .     A
C349   O393    1.291   .     A
C349   C367    1.413   .     S
C350   C366    1.397   .     A
C350   F376    1.358   .     S
C350   C410    1.374   .     S
C351   F377    1.359   .     S
C351   C366    1.397   .     A
C351   C432    1.374   .     S
C352   F378    1.359   .     S
C352   C367    1.397   .     A
C352   C466    1.374   1_455 S
C353   C357    1.382   .     A
C353   C364    1.397   .     A
C353   F375    1.359   .     S
C354   C358    1.383   .     A
C354   F379    1.359   .     S
C354   C365    1.397   .     A
C355   C359    1.382   .     A
C355   F380    1.359   .     S
C355   C365    1.397   .     A
C356   C361    1.383   .     A
C356   F381    1.358   .     S
C356   C364    1.397   .     A
C357   C362    1.403   .     A
C357   F382    1.357   .     S
C358   F383    1.359   .     S
C358   C363    1.404   .     A
C359   F384    1.357   .     S
C359   C363    1.403   .     A
C360   O397    1.291   .     A
C360   C366    1.413   .     S
C360   O398    1.291   .     A
C361   F385    1.359   .     S
C361   C362    1.404   .     A
C362   C368    1.441   .     S
C363   C369    1.440   .     S
C364   C887    1.437   1_554 S
C365   C886    1.437   .     S
C367   C374    1.397   .     A
C368   O400    1.299   .     A
C368   O403    1.298   .     A
C369   O401    1.298   .     A
C369   O402    1.299   .     A
C370   O404    1.376   .     S
C370   N392    1.378   .     A
C371   O394    1.375   .     S
C371   N391    1.378   .     A
C371   C24     1.415   1_565 S
C372   N392    1.378   .     A
C372   O395    1.375   .     S
C373   N391    1.378   .     A
C373   O396    1.374   .     S
C373   C22     1.415   1_565 S
C374   F386    1.358   .     S
C374   C467    1.374   1_455 S
H387   O404    0.979   .     S
H388   O394    0.979   .     S
H389   O395    0.979   .     S
H390   O396    0.978   .     S
N391   Zn405   2.036   .     S
N392   Zn406   2.036   .     S
O393   Zn405   1.989   .     S
O397   Zn406   1.989   .     S
O398   Zn405   1.992   .     S
O399   Zn406   1.992   .     S
O400   Zn405   2.000   .     S
O401   Zn406   2.000   .     S
O402   Zn405   2.000   .     S
O403   Zn406   2.000   .     S
C407   O457    1.291   .     A
C407   O451    1.291   .     A
C407   C425    1.413   .     S
C408   C424    1.397   .     A
C408   F434    1.358   .     S
C408   C468    1.374   .     S
C409   F435    1.359   .     S
C409   C424    1.397   .     A
C409   C490    1.374   .     S
C410   F436    1.359   .     S
C410   C425    1.397   .     A
C411   C415    1.382   .     A
C411   C422    1.397   .     A
C411   F433    1.359   .     S
C412   C416    1.383   .     A
C412   F437    1.359   .     S
C412   C423    1.397   .     A
C413   C417    1.382   .     A
C413   F438    1.359   .     S
C413   C423    1.397   .     A
C414   C419    1.383   .     A
C414   F439    1.358   .     S
C414   C422    1.397   .     A
C415   C420    1.403   .     A
C415   F440    1.357   .     S
C416   F441    1.359   .     S
C416   C421    1.404   .     A
C417   F442    1.357   .     S
C417   C421    1.403   .     A
C418   O455    1.291   .     A
C418   C424    1.413   .     S
C418   O456    1.291   .     A
C419   F443    1.359   .     S
C419   C420    1.404   .     A
C420   C426    1.441   .     S
C421   C427    1.440   .     S
C422   C945    1.437   1_554 S
C423   C944    1.437   .     S
C425   C432    1.397   .     A
C426   O458    1.299   .     A
C426   O461    1.298   .     A
C427   O459    1.298   .     A
C427   O460    1.299   .     A
C428   O462    1.376   .     S
C428   N450    1.378   .     A
C429   O452    1.375   .     S
C429   N449    1.378   .     A
C429   C82     1.415   1_565 S
C430   N450    1.378   .     A
C430   O453    1.375   .     S
C431   N449    1.378   .     A
C431   O454    1.374   .     S
C431   C80     1.415   1_565 S
C432   F444    1.358   .     S
H445   O462    0.979   .     S
H446   O452    0.979   .     S
H447   O453    0.979   .     S
H448   O454    0.978   .     S
N449   Zn463   2.036   .     S
N450   Zn464   2.036   .     S
O451   Zn463   1.989   .     S
O455   Zn464   1.989   .     S
O456   Zn463   1.992   .     S
O457   Zn464   1.992   .     S
O458   Zn463   2.000   .     S
O459   Zn464   2.000   .     S
O460   Zn463   2.000   .     S
O461   Zn464   2.000   .     S
C465   O515    1.291   .     A
C465   O509    1.291   .     A
C465   C483    1.413   .     S
C466   C482    1.397   .     A
C466   F492    1.358   .     S
C466   C352    1.374   1_655 S
C467   F493    1.359   .     S
C467   C482    1.397   .     A
C467   C374    1.374   1_655 S
C468   F494    1.359   .     S
C468   C483    1.397   .     A
C469   C473    1.382   .     A
C469   C480    1.397   .     A
C469   F491    1.359   .     S
C470   C474    1.383   .     A
C470   F495    1.359   .     S
C470   C481    1.397   .     A
C471   C475    1.382   .     A
C471   F496    1.359   .     S
C471   C481    1.397   .     A
C472   C477    1.383   .     A
C472   F497    1.358   .     S
C472   C480    1.397   .     A
C473   C478    1.403   .     A
C473   F498    1.357   .     S
C474   F499    1.359   .     S
C474   C479    1.404   .     A
C475   F500    1.357   .     S
C475   C479    1.403   .     A
C476   O513    1.291   .     A
C476   C482    1.413   .     S
C476   O514    1.291   .     A
C477   F501    1.359   .     S
C477   C478    1.404   .     A
C478   C484    1.441   .     S
C479   C485    1.440   .     S
C480   C1003   1.437   1_554 S
C481   C1002   1.437   .     S
C483   C490    1.397   .     A
C484   O516    1.299   .     A
C484   O519    1.298   .     A
C485   O517    1.298   .     A
C485   O518    1.299   .     A
C486   O520    1.376   .     S
C486   N508    1.378   .     A
C487   O510    1.375   .     S
C487   N507    1.378   .     A
C487   C140    1.415   1_565 S
C488   N508    1.378   .     A
C488   O511    1.375   .     S
C489   N507    1.378   .     A
C489   O512    1.374   .     S
C489   C138    1.415   1_565 S
C490   F502    1.358   .     S
H503   O520    0.979   .     S
H504   O510    0.979   .     S
H505   O511    0.979   .     S
H506   O512    0.978   .     S
N507   Zn521   2.036   .     S
N508   Zn522   2.036   .     S
O509   Zn521   1.989   .     S
O513   Zn522   1.989   .     S
O514   Zn521   1.992   .     S
O515   Zn522   1.992   .     S
O516   Zn521   2.000   .     S
O517   Zn522   2.000   .     S
O518   Zn521   2.000   .     S
O519   Zn522   2.000   .     S
C523   O573    1.291   .     A
C523   O567    1.291   .     A
C523   C541    1.413   .     S
C524   C540    1.397   .     A
C524   F550    1.358   .     S
C524   C584    1.374   .     S
C525   F551    1.359   .     S
C525   C540    1.397   .     A
C525   C606    1.374   .     S
C526   F552    1.359   .     S
C526   C541    1.397   .     A
C526   C640    1.374   1_455 S
C527   C531    1.382   .     A
C527   C538    1.397   .     A
C527   F549    1.359   .     S
C528   C532    1.383   .     A
C528   F553    1.359   .     S
C528   C539    1.397   .     A
C529   C533    1.382   .     A
C529   F554    1.359   .     S
C529   C539    1.397   .     A
C530   C535    1.383   .     A
C530   F555    1.358   .     S
C530   C538    1.397   .     A
C531   C536    1.403   .     A
C531   F556    1.357   .     S
C532   F557    1.359   .     S
C532   C537    1.404   .     A
C533   F558    1.357   .     S
C533   C537    1.403   .     A
C534   O571    1.291   .     A
C534   C540    1.413   .     S
C534   O572    1.291   .     A
C535   F559    1.359   .     S
C535   C536    1.404   .     A
C536   C542    1.441   .     S
C537   C543    1.440   .     S
C539   C16     1.437   1_556 S
C541   C548    1.397   .     A
C542   O574    1.299   .     A
C542   O577    1.298   .     A
C543   O575    1.298   .     A
C543   O576    1.299   .     A
C544   O578    1.376   .     S
C544   N566    1.378   .     A
C544   C895    1.415   1_545 S
C545   O568    1.375   .     S
C545   N565    1.378   .     A
C545   C720    1.415   .     S
C546   N566    1.378   .     A
C546   O569    1.375   .     S
C546   C893    1.415   1_545 S
C547   N565    1.378   .     A
C547   O570    1.374   .     S
C547   C718    1.415   .     S
C548   F560    1.358   .     S
C548   C641    1.374   1_455 S
H561   O578    0.979   .     S
H562   O568    0.979   .     S
H563   O569    0.979   .     S
H564   O570    0.978   .     S
N565   Zn579   2.036   .     S
N566   Zn580   2.036   .     S
O567   Zn579   1.989   .     S
O571   Zn580   1.989   .     S
O572   Zn579   1.992   .     S
O573   Zn580   1.992   .     S
O574   Zn579   2.000   .     S
O575   Zn580   2.000   .     S
O576   Zn579   2.000   .     S
O577   Zn580   2.000   .     S
C581   O631    1.291   .     A
C581   O625    1.291   .     A
C581   C599    1.413   .     S
C582   C598    1.397   .     A
C582   F608    1.358   .     S
C582   C642    1.374   .     S
C583   F609    1.359   .     S
C583   C598    1.397   .     A
C583   C664    1.374   .     S
C584   F610    1.359   .     S
C584   C599    1.397   .     A
C585   C589    1.382   .     A
C585   C596    1.397   .     A
C585   F607    1.359   .     S
C586   C590    1.383   .     A
C586   F611    1.359   .     S
C586   C597    1.397   .     A
C587   C591    1.382   .     A
C587   F612    1.359   .     S
C587   C597    1.397   .     A
C588   C593    1.383   .     A
C588   F613    1.358   .     S
C588   C596    1.397   .     A
C589   C594    1.403   .     A
C589   F614    1.357   .     S
C590   F615    1.359   .     S
C590   C595    1.404   .     A
C591   F616    1.357   .     S
C591   C595    1.403   .     A
C592   O629    1.291   .     A
C592   C598    1.413   .     S
C592   O630    1.291   .     A
C593   F617    1.359   .     S
C593   C594    1.404   .     A
C594   C600    1.441   .     S
C595   C601    1.440   .     S
C597   C74     1.437   1_556 S
C599   C606    1.397   .     A
C600   O632    1.299   .     A
C600   O635    1.298   .     A
C601   O633    1.298   .     A
C601   O634    1.299   .     A
C602   O636    1.376   .     S
C602   N624    1.378   .     A
C602   C953    1.415   1_545 S
C603   O626    1.375   .     S
C603   N623    1.378   .     A
C603   C778    1.415   .     S
C604   N624    1.378   .     A
C604   O627    1.375   .     S
C604   C951    1.415   1_545 S
C605   N623    1.378   .     A
C605   O628    1.374   .     S
C605   C776    1.415   .     S
C606   F618    1.358   .     S
H619   O636    0.979   .     S
H620   O626    0.979   .     S
H621   O627    0.979   .     S
H622   O628    0.978   .     S
N623   Zn637   2.036   .     S
N624   Zn638   2.036   .     S
O625   Zn637   1.989   .     S
O629   Zn638   1.989   .     S
O630   Zn637   1.992   .     S
O631   Zn638   1.992   .     S
O632   Zn637   2.000   .     S
O633   Zn638   2.000   .     S
O634   Zn637   2.000   .     S
O635   Zn638   2.000   .     S
C639   O689    1.291   .     A
C639   O683    1.291   .     A
C639   C657    1.413   .     S
C640   C656    1.397   .     A
C640   F666    1.358   .     S
C640   C526    1.374   1_655 S
C641   F667    1.359   .     S
C641   C656    1.397   .     A
C641   C548    1.374   1_655 S
C642   F668    1.359   .     S
C642   C657    1.397   .     A
C643   C647    1.382   .     A
C643   C654    1.397   .     A
C643   F665    1.359   .     S
C644   C648    1.383   .     A
C644   F669    1.359   .     S
C644   C655    1.397   .     A
C645   C649    1.382   .     A
C645   F670    1.359   .     S
C645   C655    1.397   .     A
C646   C651    1.383   .     A
C646   F671    1.358   .     S
C646   C654    1.397   .     A
C647   C652    1.403   .     A
C647   F672    1.357   .     S
C648   F673    1.359   .     S
C648   C653    1.404   .     A
C649   F674    1.357   .     S
C649   C653    1.403   .     A
C650   O687    1.291   .     A
C650   C656    1.413   .     S
C650   O688    1.291   .     A
C651   F675    1.359   .     S
C651   C652    1.404   .     A
C652   C658    1.441   .     S
C653   C659    1.440   .     S
C655   C132    1.437   1_556 S
C657   C664    1.397   .     A
C658   O690    1.299   .     A
C658   O693    1.298   .     A
C659   O691    1.298   .     A
C659   O692    1.299   .     A
C660   O694    1.376   .     S
C660   N682    1.378   .     A
C660   C1011   1.415   1_545 S
C661   O684    1.375   .     S
C661   N681    1.378   .     A
C661   C836    1.415   .     S
C662   N682    1.378   .     A
C662   O685    1.375   .     S
C662   C1009   1.415   1_545 S
C663   N681    1.378   .     A
C663   O686    1.374   .     S
C663   C834    1.415   .     S
C664   F676    1.358   .     S
H677   O694    0.979   .     S
H678   O684    0.979   .     S
H679   O685    0.979   .     S
H680   O686    0.978   .     S
N681   Zn695   2.036   .     S
N682   Zn696   2.036   .     S
O683   Zn695   1.989   .     S
O687   Zn696   1.989   .     S
O688   Zn695   1.992   .     S
O689   Zn696   1.992   .     S
O690   Zn695   2.000   .     S
O691   Zn696   2.000   .     S
O692   Zn695   2.000   .     S
O693   Zn696   2.000   .     S
C697   O747    1.291   .     A
C697   O741    1.291   .     A
C697   C715    1.413   .     S
C698   C714    1.397   .     A
C698   F724    1.358   .     S
C698   C758    1.374   .     S
C699   F725    1.359   .     S
C699   C714    1.397   .     A
C699   C780    1.374   .     S
C700   F726    1.359   .     S
C700   C715    1.397   .     A
C700   C814    1.374   1_455 S
C701   C705    1.382   .     A
C701   C712    1.397   .     A
C701   F723    1.359   .     S
C702   C706    1.383   .     A
C702   F727    1.359   .     S
C702   C713    1.397   .     A
C703   C707    1.382   .     A
C703   F728    1.359   .     S
C703   C713    1.397   .     A
C704   C709    1.383   .     A
C704   F729    1.358   .     S
C704   C712    1.397   .     A
C705   C710    1.403   .     A
C705   F730    1.357   .     S
C706   F731    1.359   .     S
C706   C711    1.404   .     A
C707   F732    1.357   .     S
C707   C711    1.403   .     A
C708   O745    1.291   .     A
C708   C714    1.413   .     S
C708   O746    1.291   .     A
C709   F733    1.359   .     S
C709   C710    1.404   .     A
C710   C716    1.441   .     S
C711   C717    1.440   .     S
C713   C190    1.437   1_556 S
C715   C722    1.397   .     A
C716   O748    1.299   .     A
C716   O751    1.298   .     A
C717   O749    1.298   .     A
C717   O750    1.299   .     A
C718   O752    1.376   .     S
C718   N740    1.378   .     A
C719   O742    1.375   .     S
C719   N739    1.378   .     A
C719   C894    1.415   .     S
C720   N740    1.378   .     A
C720   O743    1.375   .     S
C721   N739    1.378   .     A
C721   O744    1.374   .     S
C721   C892    1.415   .     S
C722   F734    1.358   .     S
C722   C815    1.374   1_455 S
H735   O752    0.979   .     S
H736   O742    0.979   .     S
H737   O743    0.979   .     S
H738   O744    0.978   .     S
N739   Zn753   2.036   .     S
N740   Zn754   2.036   .     S
O741   Zn753   1.989   .     S
O745   Zn754   1.989   .     S
O746   Zn753   1.992   .     S
O747   Zn754   1.992   .     S
O748   Zn753   2.000   .     S
O749   Zn754   2.000   .     S
O750   Zn753   2.000   .     S
O751   Zn754   2.000   .     S
C755   O805    1.291   .     A
C755   O799    1.291   .     A
C755   C773    1.413   .     S
C756   C772    1.397   .     A
C756   F782    1.358   .     S
C756   C816    1.374   .     S
C757   F783    1.359   .     S
C757   C772    1.397   .     A
C757   C838    1.374   .     S
C758   F784    1.359   .     S
C758   C773    1.397   .     A
C759   C763    1.382   .     A
C759   C770    1.397   .     A
C759   F781    1.359   .     S
C760   C764    1.383   .     A
C760   F785    1.359   .     S
C760   C771    1.397   .     A
C761   C765    1.382   .     A
C761   F786    1.359   .     S
C761   C771    1.397   .     A
C762   C767    1.383   .     A
C762   F787    1.358   .     S
C762   C770    1.397   .     A
C763   C768    1.403   .     A
C763   F788    1.357   .     S
C764   F789    1.359   .     S
C764   C769    1.404   .     A
C765   F790    1.357   .     S
C765   C769    1.403   .     A
C766   O803    1.291   .     A
C766   C772    1.413   .     S
C766   O804    1.291   .     A
C767   F791    1.359   .     S
C767   C768    1.404   .     A
C768   C774    1.441   .     S
C769   C775    1.440   .     S
C771   C248    1.437   1_556 S
C773   C780    1.397   .     A
C774   O806    1.299   .     A
C774   O809    1.298   .     A
C775   O807    1.298   .     A
C775   O808    1.299   .     A
C776   O810    1.376   .     S
C776   N798    1.378   .     A
C777   O800    1.375   .     S
C777   N797    1.378   .     A
C777   C952    1.415   .     S
C778   N798    1.378   .     A
C778   O801    1.375   .     S
C779   N797    1.378   .     A
C779   O802    1.374   .     S
C779   C950    1.415   .     S
C780   F792    1.358   .     S
H793   O810    0.979   .     S
H794   O800    0.979   .     S
H795   O801    0.979   .     S
H796   O802    0.978   .     S
N797   Zn811   2.036   .     S
N798   Zn812   2.036   .     S
O799   Zn811   1.989   .     S
O803   Zn812   1.989   .     S
O804   Zn811   1.992   .     S
O805   Zn812   1.992   .     S
O806   Zn811   2.000   .     S
O807   Zn812   2.000   .     S
O808   Zn811   2.000   .     S
O809   Zn812   2.000   .     S
C813   O863    1.291   .     A
C813   O857    1.291   .     A
C813   C831    1.413   .     S
C814   C830    1.397   .     A
C814   F840    1.358   .     S
C814   C700    1.374   1_655 S
C815   F841    1.359   .     S
C815   C830    1.397   .     A
C815   C722    1.374   1_655 S
C816   F842    1.359   .     S
C816   C831    1.397   .     A
C817   C821    1.382   .     A
C817   C828    1.397   .     A
C817   F839    1.359   .     S
C818   C822    1.383   .     A
C818   F843    1.359   .     S
C818   C829    1.397   .     A
C819   C823    1.382   .     A
C819   F844    1.359   .     S
C819   C829    1.397   .     A
C820   C825    1.383   .     A
C820   F845    1.358   .     S
C820   C828    1.397   .     A
C821   C826    1.403   .     A
C821   F846    1.357   .     S
C822   F847    1.359   .     S
C822   C827    1.404   .     A
C823   F848    1.357   .     S
C823   C827    1.403   .     A
C824   O861    1.291   .     A
C824   C830    1.413   .     S
C824   O862    1.291   .     A
C825   F849    1.359   .     S
C825   C826    1.404   .     A
C826   C832    1.441   .     S
C827   C833    1.440   .     S
C829   C306    1.437   1_556 S
C831   C838    1.397   .     A
C832   O864    1.299   .     A
C832   O867    1.298   .     A
C833   O865    1.298   .     A
C833   O866    1.299   .     A
C834   O868    1.376   .     S
C834   N856    1.378   .     A
C835   O858    1.375   .     S
C835   N855    1.378   .     A
C835   C1010   1.415   .     S
C836   N856    1.378   .     A
C836   O859    1.375   .     S
C837   N855    1.378   .     A
C837   O860    1.374   .     S
C837   C1008   1.415   .     S
C838   F850    1.358   .     S
H851   O868    0.979   .     S
H852   O858    0.979   .     S
H853   O859    0.979   .     S
H854   O860    0.978   .     S
N855   Zn869   2.036   .     S
N856   Zn870   2.036   .     S
O857   Zn869   1.989   .     S
O861   Zn870   1.989   .     S
O862   Zn869   1.992   .     S
O863   Zn870   1.992   .     S
O864   Zn869   2.000   .     S
O865   Zn870   2.000   .     S
O866   Zn869   2.000   .     S
O867   Zn870   2.000   .     S
C871   O921    1.291   .     A
C871   O915    1.291   .     A
C871   C889    1.413   .     S
C872   C888    1.397   .     A
C872   F898    1.358   .     S
C872   C932    1.374   .     S
C873   F899    1.359   .     S
C873   C888    1.397   .     A
C873   C954    1.374   .     S
C874   F900    1.359   .     S
C874   C889    1.397   .     A
C874   C988    1.374   1_455 S
C875   C879    1.382   .     A
C875   C886    1.397   .     A
C875   F897    1.359   .     S
C876   C880    1.383   .     A
C876   F901    1.359   .     S
C876   C887    1.397   .     A
C877   C881    1.382   .     A
C877   F902    1.359   .     S
C877   C887    1.397   .     A
C878   C883    1.383   .     A
C878   F903    1.358   .     S
C878   C886    1.397   .     A
C879   C884    1.403   .     A
C879   F904    1.357   .     S
C880   F905    1.359   .     S
C880   C885    1.404   .     A
C881   F906    1.357   .     S
C881   C885    1.403   .     A
C882   O919    1.291   .     A
C882   C888    1.413   .     S
C882   O920    1.291   .     A
C883   F907    1.359   .     S
C883   C884    1.404   .     A
C884   C890    1.441   .     S
C885   C891    1.440   .     S
C887   C364    1.437   1_556 S
C889   C896    1.397   .     A
C890   O922    1.299   .     A
C890   O925    1.298   .     A
C891   O923    1.298   .     A
C891   O924    1.299   .     A
C892   O926    1.376   .     S
C892   N914    1.378   .     A
C893   O916    1.375   .     S
C893   N913    1.378   .     A
C893   C546    1.415   1_565 S
C894   N914    1.378   .     A
C894   O917    1.375   .     S
C895   N913    1.378   .     A
C895   O918    1.374   .     S
C895   C544    1.415   1_565 S
C896   F908    1.358   .     S
C896   C989    1.374   1_455 S
H909   O926    0.979   .     S
H910   O916    0.979   .     S
H911   O917    0.979   .     S
H912   O918    0.978   .     S
N913   Zn927   2.036   .     S
N914   Zn928   2.036   .     S
O915   Zn927   1.989   .     S
O919   Zn928   1.989   .     S
O920   Zn927   1.992   .     S
O921   Zn928   1.992   .     S
O922   Zn927   2.000   .     S
O923   Zn928   2.000   .     S
O924   Zn927   2.000   .     S
O925   Zn928   2.000   .     S
C929   O979    1.291   .     A
C929   O973    1.291   .     A
C929   C947    1.413   .     S
C930   C946    1.397   .     A
C930   F956    1.358   .     S
C930   C990    1.374   .     S
C931   F957    1.359   .     S
C931   C946    1.397   .     A
C931   C1012   1.374   .     S
C932   F958    1.359   .     S
C932   C947    1.397   .     A
C933   C937    1.382   .     A
C933   C944    1.397   .     A
C933   F955    1.359   .     S
C934   C938    1.383   .     A
C934   F959    1.359   .     S
C934   C945    1.397   .     A
C935   C939    1.382   .     A
C935   F960    1.359   .     S
C935   C945    1.397   .     A
C936   C941    1.383   .     A
C936   F961    1.358   .     S
C936   C944    1.397   .     A
C937   C942    1.403   .     A
C937   F962    1.357   .     S
C938   F963    1.359   .     S
C938   C943    1.404   .     A
C939   F964    1.357   .     S
C939   C943    1.403   .     A
C940   O977    1.291   .     A
C940   C946    1.413   .     S
C940   O978    1.291   .     A
C941   F965    1.359   .     S
C941   C942    1.404   .     A
C942   C948    1.441   .     S
C943   C949    1.440   .     S
C945   C422    1.437   1_556 S
C947   C954    1.397   .     A
C948   O980    1.299   .     A
C948   O983    1.298   .     A
C949   O981    1.298   .     A
C949   O982    1.299   .     A
C950   O984    1.376   .     S
C950   N972    1.378   .     A
C951   O974    1.375   .     S
C951   N971    1.378   .     A
C951   C604    1.415   1_565 S
C952   N972    1.378   .     A
C952   O975    1.375   .     S
C953   N971    1.378   .     A
C953   O976    1.374   .     S
C953   C602    1.415   1_565 S
C954   F966    1.358   .     S
H967   O984    0.979   .     S
H968   O974    0.979   .     S
H969   O975    0.979   .     S
H970   O976    0.978   .     S
N971   Zn985   2.036   .     S
N972   Zn986   2.036   .     S
O973   Zn985   1.989   .     S
O977   Zn986   1.989   .     S
O978   Zn985   1.992   .     S
O979   Zn986   1.992   .     S
O980   Zn985   2.000   .     S
O981   Zn986   2.000   .     S
O982   Zn985   2.000   .     S
O983   Zn986   2.000   .     S
C987   O1037   1.291   .     A
C987   O1031   1.291   .     A
C987   C1005   1.413   .     S
C988   C1004   1.397   .     A
C988   F1014   1.358   .     S
C988   C874    1.374   1_655 S
C989   F1015   1.359   .     S
C989   C1004   1.397   .     A
C989   C896    1.374   1_655 S
C990   F1016   1.359   .     S
C990   C1005   1.397   .     A
C991   C995    1.382   .     A
C991   C1002   1.397   .     A
C991   F1013   1.359   .     S
C992   C996    1.383   .     A
C992   F1017   1.359   .     S
C992   C1003   1.397   .     A
C993   C997    1.382   .     A
C993   F1018   1.359   .     S
C993   C1003   1.397   .     A
C994   C999    1.383   .     A
C994   F1019   1.358   .     S
C994   C1002   1.397   .     A
C995   C1000   1.403   .     A
C995   F1020   1.357   .     S
C996   F1021   1.359   .     S
C996   C1001   1.404   .     A
C997   F1022   1.357   .     S
C997   C1001   1.403   .     A
C998   O1035   1.291   .     A
C998   C1004   1.413   .     S
C998   O1036   1.291   .     A
C999   F1023   1.359   .     S
C999   C1000   1.404   .     A
C1000  C1006   1.441   .     S
C1001  C1007   1.440   .     S
C1003  C480    1.437   1_556 S
C1005  C1012   1.397   .     A
C1006  O1038   1.299   .     A
C1006  O1041   1.298   .     A
C1007  O1039   1.298   .     A
C1007  O1040   1.299   .     A
C1008  O1042   1.376   .     S
C1008  N1030   1.378   .     A
C1009  O1032   1.375   .     S
C1009  N1029   1.378   .     A
C1009  C662    1.415   1_565 S
C1010  N1030   1.378   .     A
C1010  O1033   1.375   .     S
C1011  N1029   1.378   .     A
C1011  O1034   1.374   .     S
C1011  C660    1.415   1_565 S
C1012  F1024   1.358   .     S
H1025  O1042   0.979   .     S
H1026  O1032   0.979   .     S
H1027  O1033   0.979   .     S
H1028  O1034   0.978   .     S
N1029  Zn1043  2.036   .     S
N1030  Zn1044  2.036   .     S
O1031  Zn1043  1.989   .     S
O1035  Zn1044  1.989   .     S
O1036  Zn1043  1.992   .     S
O1037  Zn1044  1.992   .     S
O1038  Zn1043  2.000   .     S
O1039  Zn1044  2.000   .     S
O1040  Zn1043  2.000   .     S
O1041  Zn1044  2.000   .     S
