data_str_m2_o1_o10_pcu_sym.152
_audit_creation_date              2020-01-03
_audit_creation_method            'Materials Studio'
_symmetry_space_group_name_H-M    'P1'
_symmetry_Int_Tables_number       1
_symmetry_cell_setting            triclinic
loop_
_symmetry_equiv_pos_as_xyz
  x,y,z
_cell_length_a                    26.2012
_cell_length_b                    32.3929
_cell_length_c                    28.5892
_cell_angle_alpha                 90.1460
_cell_angle_beta                  97.9536
_cell_angle_gamma                 90.1096
loop_
_atom_site_label
_atom_site_type_symbol
_atom_site_fract_x
_atom_site_fract_y
_atom_site_fract_z
_atom_site_U_iso_or_equiv
_atom_site_adp_type
_atom_site_occupancy
C1     C     0.16512   0.08745   0.16640   0.00000  Uiso   1.00
C2     C     0.16821   0.24588   0.16694   0.00000  Uiso   1.00
C3     C     0.06792   0.16666   0.15457   0.00000  Uiso   1.00
C4     C     0.26541   0.16667   0.17876   0.00000  Uiso   1.00
C5     C     0.01263   0.16670   0.14792   0.00000  Uiso   1.00
C6     C     0.32070   0.16664   0.18541   0.00000  Uiso   1.00
C7     C     0.19539   0.02233   0.13771   0.00000  Uiso   1.00
C8     C     0.13794   0.31100   0.19563   0.00000  Uiso   1.00
C9     C     0.19938   0.31302   0.13869   0.00000  Uiso   1.00
C10    C     0.13395   0.02031   0.19464   0.00000  Uiso   1.00
C11    C     0.16946   0.29052   0.16739   0.00000  Uiso   1.00
C12    C     0.16388   0.04282   0.16595   0.00000  Uiso   1.00
C13    C     0.13292   0.14246   0.02043   0.00000  Uiso   1.00
C14    C     0.20041   0.19088   0.31290   0.00000  Uiso   1.00
C15    C     0.13293   0.14247   0.30418   0.00000  Uiso   1.00
C16    C     0.20041   0.19087   0.02915   0.00000  Uiso   1.00
Cu17   Cu    0.16667   0.16667   0.21355   0.00000  Uiso   1.00
Cu18   Cu    0.16667   0.16666   0.11978   0.00000  Uiso   1.00
H19    H     0.32597   0.16679   0.11197   0.00000  Uiso   1.00
H20    H     0.00736   0.16654   0.22137   0.00000  Uiso   1.00
H21    H     0.21881   0.03970   0.11619   0.00000  Uiso   1.00
H22    H     0.11452   0.29363   0.21714   0.00000  Uiso   1.00
H23    H     0.10593   0.12300   0.03560   0.00000  Uiso   1.00
H24    H     0.22741   0.21033   0.29773   0.00000  Uiso   1.00
H25    H     0.10592   0.12303   0.28204   0.00000  Uiso   1.00
H26    H     0.22741   0.21031   0.05129   0.00000  Uiso   1.00
N27    N     0.16668   0.16668   0.28403   0.00000  Uiso   1.00
N28    N     0.16665   0.16666   0.04931   0.00000  Uiso   1.00
O29    O     0.16666   0.10655   0.20625   0.00000  Uiso   1.00
O30    O     0.16667   0.22678   0.12709   0.00000  Uiso   1.00
O31    O     0.16666   0.10654   0.12706   0.00000  Uiso   1.00
O32    O     0.16667   0.22679   0.20628   0.00000  Uiso   1.00
O33    O     0.09161   0.16667   0.19712   0.00000  Uiso   1.00
O34    O     0.24172   0.16666   0.13621   0.00000  Uiso   1.00
O35    O     0.09161   0.16666   0.11793   0.00000  Uiso   1.00
O36    O     0.24172   0.16667   0.21540   0.00000  Uiso   1.00
O37    O     0.23379   0.29501   0.11236   0.00000  Uiso   1.00
H38    H     0.24445   0.26785   0.12611   0.00000  Uiso   1.00
O39    O     0.09954   0.03832   0.22097   0.00000  Uiso   1.00
H40    H     0.08888   0.06549   0.20722   0.00000  Uiso   1.00
C41    C     0.49846   0.08745   0.16640   0.00000  Uiso   1.00
C42    C     0.50154   0.24588   0.16694   0.00000  Uiso   1.00
C43    C     0.40125   0.16666   0.15457   0.00000  Uiso   1.00
C44    C     0.59875   0.16667   0.17876   0.00000  Uiso   1.00
C45    C     0.34597   0.16670   0.14792   0.00000  Uiso   1.00
C46    C     0.65403   0.16664   0.18541   0.00000  Uiso   1.00
C47    C     0.52873   0.02233   0.13771   0.00000  Uiso   1.00
C48    C     0.47127   0.31100   0.19563   0.00000  Uiso   1.00
C49    C     0.53272   0.31302   0.13869   0.00000  Uiso   1.00
C50    C     0.46728   0.02031   0.19464   0.00000  Uiso   1.00
C51    C     0.50279   0.29052   0.16739   0.00000  Uiso   1.00
C52    C     0.49721   0.04282   0.16595   0.00000  Uiso   1.00
C53    C     0.46625   0.14246   0.02043   0.00000  Uiso   1.00
C54    C     0.53375   0.19088   0.31290   0.00000  Uiso   1.00
C55    C     0.46626   0.14247   0.30418   0.00000  Uiso   1.00
C56    C     0.53374   0.19087   0.02915   0.00000  Uiso   1.00
Cu57   Cu    0.50000   0.16667   0.21355   0.00000  Uiso   1.00
Cu58   Cu    0.50000   0.16666   0.11978   0.00000  Uiso   1.00
H59    H     0.65931   0.16679   0.11197   0.00000  Uiso   1.00
H60    H     0.34069   0.16654   0.22137   0.00000  Uiso   1.00
H61    H     0.55215   0.03970   0.11619   0.00000  Uiso   1.00
H62    H     0.44785   0.29363   0.21714   0.00000  Uiso   1.00
H63    H     0.43926   0.12300   0.03560   0.00000  Uiso   1.00
H64    H     0.56074   0.21033   0.29773   0.00000  Uiso   1.00
H65    H     0.43926   0.12303   0.28204   0.00000  Uiso   1.00
H66    H     0.56074   0.21031   0.05129   0.00000  Uiso   1.00
N67    N     0.50001   0.16668   0.28403   0.00000  Uiso   1.00
N68    N     0.49999   0.16666   0.04931   0.00000  Uiso   1.00
O69    O     0.50000   0.10655   0.20625   0.00000  Uiso   1.00
O70    O     0.50000   0.22678   0.12709   0.00000  Uiso   1.00
O71    O     0.50000   0.10654   0.12706   0.00000  Uiso   1.00
O72    O     0.50000   0.22679   0.20628   0.00000  Uiso   1.00
O73    O     0.42495   0.16667   0.19712   0.00000  Uiso   1.00
O74    O     0.57505   0.16666   0.13621   0.00000  Uiso   1.00
O75    O     0.42494   0.16666   0.11793   0.00000  Uiso   1.00
O76    O     0.57506   0.16667   0.21540   0.00000  Uiso   1.00
O77    O     0.56713   0.29501   0.11236   0.00000  Uiso   1.00
H78    H     0.57778   0.26785   0.12611   0.00000  Uiso   1.00
O79    O     0.43287   0.03832   0.22097   0.00000  Uiso   1.00
H80    H     0.42222   0.06549   0.20722   0.00000  Uiso   1.00
C81    C     0.83179   0.08745   0.16640   0.00000  Uiso   1.00
C82    C     0.83488   0.24588   0.16694   0.00000  Uiso   1.00
C83    C     0.73459   0.16666   0.15457   0.00000  Uiso   1.00
C84    C     0.93208   0.16667   0.17876   0.00000  Uiso   1.00
C85    C     0.67930   0.16670   0.14792   0.00000  Uiso   1.00
C86    C     0.98737   0.16664   0.18541   0.00000  Uiso   1.00
C87    C     0.86206   0.02233   0.13771   0.00000  Uiso   1.00
C88    C     0.80461   0.31100   0.19563   0.00000  Uiso   1.00
C89    C     0.86605   0.31302   0.13869   0.00000  Uiso   1.00
C90    C     0.80062   0.02031   0.19464   0.00000  Uiso   1.00
C91    C     0.83612   0.29052   0.16739   0.00000  Uiso   1.00
C92    C     0.83054   0.04282   0.16595   0.00000  Uiso   1.00
C93    C     0.79959   0.14246   0.02043   0.00000  Uiso   1.00
C94    C     0.86708   0.19088   0.31290   0.00000  Uiso   1.00
C95    C     0.79959   0.14247   0.30418   0.00000  Uiso   1.00
C96    C     0.86707   0.19087   0.02915   0.00000  Uiso   1.00
Cu97   Cu    0.83333   0.16667   0.21355   0.00000  Uiso   1.00
Cu98   Cu    0.83333   0.16666   0.11978   0.00000  Uiso   1.00
H99    H     0.99264   0.16679   0.11197   0.00000  Uiso   1.00
H100   H     0.67403   0.16654   0.22137   0.00000  Uiso   1.00
H101   H     0.88548   0.03970   0.11619   0.00000  Uiso   1.00
H102   H     0.78119   0.29363   0.21714   0.00000  Uiso   1.00
H103   H     0.77259   0.12300   0.03560   0.00000  Uiso   1.00
H104   H     0.89407   0.21033   0.29773   0.00000  Uiso   1.00
H105   H     0.77259   0.12303   0.28204   0.00000  Uiso   1.00
H106   H     0.89407   0.21031   0.05129   0.00000  Uiso   1.00
N107   N     0.83335   0.16668   0.28403   0.00000  Uiso   1.00
N108   N     0.83332   0.16666   0.04931   0.00000  Uiso   1.00
O109   O     0.83333   0.10655   0.20625   0.00000  Uiso   1.00
O110   O     0.83334   0.22678   0.12709   0.00000  Uiso   1.00
O111   O     0.83333   0.10654   0.12706   0.00000  Uiso   1.00
O112   O     0.83334   0.22679   0.20628   0.00000  Uiso   1.00
O113   O     0.75828   0.16667   0.19712   0.00000  Uiso   1.00
O114   O     0.90839   0.16666   0.13621   0.00000  Uiso   1.00
O115   O     0.75828   0.16666   0.11793   0.00000  Uiso   1.00
O116   O     0.90839   0.16667   0.21540   0.00000  Uiso   1.00
O117   O     0.90046   0.29501   0.11236   0.00000  Uiso   1.00
H118   H     0.91112   0.26785   0.12611   0.00000  Uiso   1.00
O119   O     0.76620   0.03832   0.22097   0.00000  Uiso   1.00
H120   H     0.75555   0.06549   0.20722   0.00000  Uiso   1.00
C121   C     0.16512   0.42078   0.16640   0.00000  Uiso   1.00
C122   C     0.16821   0.57922   0.16694   0.00000  Uiso   1.00
C123   C     0.06792   0.49999   0.15457   0.00000  Uiso   1.00
C124   C     0.26541   0.50001   0.17876   0.00000  Uiso   1.00
C125   C     0.01263   0.50003   0.14792   0.00000  Uiso   1.00
C126   C     0.32070   0.49997   0.18541   0.00000  Uiso   1.00
C127   C     0.19539   0.35567   0.13771   0.00000  Uiso   1.00
C128   C     0.13794   0.64433   0.19563   0.00000  Uiso   1.00
C129   C     0.19938   0.64635   0.13869   0.00000  Uiso   1.00
C130   C     0.13395   0.35365   0.19464   0.00000  Uiso   1.00
C131   C     0.16946   0.62385   0.16739   0.00000  Uiso   1.00
C132   C     0.16388   0.37615   0.16595   0.00000  Uiso   1.00
C133   C     0.13292   0.47579   0.02043   0.00000  Uiso   1.00
C134   C     0.20041   0.52421   0.31290   0.00000  Uiso   1.00
C135   C     0.13293   0.47580   0.30418   0.00000  Uiso   1.00
C136   C     0.20041   0.52420   0.02915   0.00000  Uiso   1.00
Cu137  Cu    0.16667   0.50001   0.21355   0.00000  Uiso   1.00
Cu138  Cu    0.16667   0.49999   0.11978   0.00000  Uiso   1.00
H139   H     0.32597   0.50013   0.11197   0.00000  Uiso   1.00
H140   H     0.00736   0.49987   0.22137   0.00000  Uiso   1.00
H141   H     0.21881   0.37303   0.11619   0.00000  Uiso   1.00
H142   H     0.11452   0.62697   0.21714   0.00000  Uiso   1.00
H143   H     0.10593   0.45633   0.03560   0.00000  Uiso   1.00
H144   H     0.22741   0.54367   0.29773   0.00000  Uiso   1.00
H145   H     0.10592   0.45636   0.28204   0.00000  Uiso   1.00
H146   H     0.22741   0.54364   0.05129   0.00000  Uiso   1.00
N147   N     0.16668   0.50001   0.28403   0.00000  Uiso   1.00
N148   N     0.16665   0.49999   0.04931   0.00000  Uiso   1.00
O149   O     0.16666   0.43989   0.20625   0.00000  Uiso   1.00
O150   O     0.16667   0.56011   0.12709   0.00000  Uiso   1.00
O151   O     0.16666   0.43988   0.12706   0.00000  Uiso   1.00
O152   O     0.16667   0.56012   0.20628   0.00000  Uiso   1.00
O153   O     0.09161   0.50000   0.19712   0.00000  Uiso   1.00
O154   O     0.24172   0.50000   0.13621   0.00000  Uiso   1.00
O155   O     0.09161   0.49999   0.11793   0.00000  Uiso   1.00
O156   O     0.24172   0.50001   0.21540   0.00000  Uiso   1.00
O157   O     0.23379   0.62834   0.11236   0.00000  Uiso   1.00
H158   H     0.24445   0.60118   0.12611   0.00000  Uiso   1.00
O159   O     0.09954   0.37166   0.22097   0.00000  Uiso   1.00
H160   H     0.08888   0.39882   0.20722   0.00000  Uiso   1.00
C161   C     0.49846   0.42078   0.16640   0.00000  Uiso   1.00
C162   C     0.50154   0.57922   0.16694   0.00000  Uiso   1.00
C163   C     0.40125   0.49999   0.15457   0.00000  Uiso   1.00
C164   C     0.59875   0.50001   0.17876   0.00000  Uiso   1.00
C165   C     0.34597   0.50003   0.14792   0.00000  Uiso   1.00
C166   C     0.65403   0.49997   0.18541   0.00000  Uiso   1.00
C167   C     0.52873   0.35567   0.13771   0.00000  Uiso   1.00
C168   C     0.47127   0.64433   0.19563   0.00000  Uiso   1.00
C169   C     0.53272   0.64635   0.13869   0.00000  Uiso   1.00
C170   C     0.46728   0.35365   0.19464   0.00000  Uiso   1.00
C171   C     0.50279   0.62385   0.16739   0.00000  Uiso   1.00
C172   C     0.49721   0.37615   0.16595   0.00000  Uiso   1.00
C173   C     0.46625   0.47579   0.02043   0.00000  Uiso   1.00
C174   C     0.53375   0.52421   0.31290   0.00000  Uiso   1.00
C175   C     0.46626   0.47580   0.30418   0.00000  Uiso   1.00
C176   C     0.53374   0.52420   0.02915   0.00000  Uiso   1.00
Cu177  Cu    0.50000   0.50001   0.21355   0.00000  Uiso   1.00
Cu178  Cu    0.50000   0.49999   0.11978   0.00000  Uiso   1.00
H179   H     0.65931   0.50013   0.11197   0.00000  Uiso   1.00
H180   H     0.34069   0.49987   0.22137   0.00000  Uiso   1.00
H181   H     0.55215   0.37303   0.11619   0.00000  Uiso   1.00
H182   H     0.44785   0.62697   0.21714   0.00000  Uiso   1.00
H183   H     0.43926   0.45633   0.03560   0.00000  Uiso   1.00
H184   H     0.56074   0.54367   0.29773   0.00000  Uiso   1.00
H185   H     0.43926   0.45636   0.28204   0.00000  Uiso   1.00
H186   H     0.56074   0.54364   0.05129   0.00000  Uiso   1.00
N187   N     0.50001   0.50001   0.28403   0.00000  Uiso   1.00
N188   N     0.49999   0.49999   0.04931   0.00000  Uiso   1.00
O189   O     0.50000   0.43989   0.20625   0.00000  Uiso   1.00
O190   O     0.50000   0.56011   0.12709   0.00000  Uiso   1.00
O191   O     0.50000   0.43988   0.12706   0.00000  Uiso   1.00
O192   O     0.50000   0.56012   0.20628   0.00000  Uiso   1.00
O193   O     0.42495   0.50000   0.19712   0.00000  Uiso   1.00
O194   O     0.57505   0.50000   0.13621   0.00000  Uiso   1.00
O195   O     0.42494   0.49999   0.11793   0.00000  Uiso   1.00
O196   O     0.57506   0.50001   0.21540   0.00000  Uiso   1.00
O197   O     0.56713   0.62834   0.11236   0.00000  Uiso   1.00
H198   H     0.57778   0.60118   0.12611   0.00000  Uiso   1.00
O199   O     0.43287   0.37166   0.22097   0.00000  Uiso   1.00
H200   H     0.42222   0.39882   0.20722   0.00000  Uiso   1.00
C201   C     0.83179   0.42078   0.16640   0.00000  Uiso   1.00
C202   C     0.83488   0.57922   0.16694   0.00000  Uiso   1.00
C203   C     0.73459   0.49999   0.15457   0.00000  Uiso   1.00
C204   C     0.93208   0.50001   0.17876   0.00000  Uiso   1.00
C205   C     0.67930   0.50003   0.14792   0.00000  Uiso   1.00
C206   C     0.98737   0.49997   0.18541   0.00000  Uiso   1.00
C207   C     0.86206   0.35567   0.13771   0.00000  Uiso   1.00
C208   C     0.80461   0.64433   0.19563   0.00000  Uiso   1.00
C209   C     0.86605   0.64635   0.13869   0.00000  Uiso   1.00
C210   C     0.80062   0.35365   0.19464   0.00000  Uiso   1.00
C211   C     0.83612   0.62385   0.16739   0.00000  Uiso   1.00
C212   C     0.83054   0.37615   0.16595   0.00000  Uiso   1.00
C213   C     0.79959   0.47579   0.02043   0.00000  Uiso   1.00
C214   C     0.86708   0.52421   0.31290   0.00000  Uiso   1.00
C215   C     0.79959   0.47580   0.30418   0.00000  Uiso   1.00
C216   C     0.86707   0.52420   0.02915   0.00000  Uiso   1.00
Cu217  Cu    0.83333   0.50001   0.21355   0.00000  Uiso   1.00
Cu218  Cu    0.83333   0.49999   0.11978   0.00000  Uiso   1.00
H219   H     0.99264   0.50013   0.11197   0.00000  Uiso   1.00
H220   H     0.67403   0.49987   0.22137   0.00000  Uiso   1.00
H221   H     0.88548   0.37303   0.11619   0.00000  Uiso   1.00
H222   H     0.78119   0.62697   0.21714   0.00000  Uiso   1.00
H223   H     0.77259   0.45633   0.03560   0.00000  Uiso   1.00
H224   H     0.89407   0.54367   0.29773   0.00000  Uiso   1.00
H225   H     0.77259   0.45636   0.28204   0.00000  Uiso   1.00
H226   H     0.89407   0.54364   0.05129   0.00000  Uiso   1.00
N227   N     0.83335   0.50001   0.28403   0.00000  Uiso   1.00
N228   N     0.83332   0.49999   0.04931   0.00000  Uiso   1.00
O229   O     0.83333   0.43989   0.20625   0.00000  Uiso   1.00
O230   O     0.83334   0.56011   0.12709   0.00000  Uiso   1.00
O231   O     0.83333   0.43988   0.12706   0.00000  Uiso   1.00
O232   O     0.83334   0.56012   0.20628   0.00000  Uiso   1.00
O233   O     0.75828   0.50000   0.19712   0.00000  Uiso   1.00
O234   O     0.90839   0.50000   0.13621   0.00000  Uiso   1.00
O235   O     0.75828   0.49999   0.11793   0.00000  Uiso   1.00
O236   O     0.90839   0.50001   0.21540   0.00000  Uiso   1.00
O237   O     0.90046   0.62834   0.11236   0.00000  Uiso   1.00
H238   H     0.91112   0.60118   0.12611   0.00000  Uiso   1.00
O239   O     0.76620   0.37166   0.22097   0.00000  Uiso   1.00
H240   H     0.75555   0.39882   0.20722   0.00000  Uiso   1.00
C241   C     0.16512   0.75412   0.16640   0.00000  Uiso   1.00
C242   C     0.16821   0.91255   0.16694   0.00000  Uiso   1.00
C243   C     0.06792   0.83333   0.15457   0.00000  Uiso   1.00
C244   C     0.26541   0.83334   0.17876   0.00000  Uiso   1.00
C245   C     0.01263   0.83336   0.14792   0.00000  Uiso   1.00
C246   C     0.32070   0.83330   0.18541   0.00000  Uiso   1.00
C247   C     0.19539   0.68900   0.13771   0.00000  Uiso   1.00
C248   C     0.13794   0.97767   0.19563   0.00000  Uiso   1.00
C249   C     0.19938   0.97969   0.13869   0.00000  Uiso   1.00
C250   C     0.13395   0.68698   0.19464   0.00000  Uiso   1.00
C251   C     0.16946   0.95718   0.16739   0.00000  Uiso   1.00
C252   C     0.16388   0.70948   0.16595   0.00000  Uiso   1.00
C253   C     0.13292   0.80912   0.02043   0.00000  Uiso   1.00
C254   C     0.20041   0.85755   0.31290   0.00000  Uiso   1.00
C255   C     0.13293   0.80913   0.30418   0.00000  Uiso   1.00
C256   C     0.20041   0.85753   0.02915   0.00000  Uiso   1.00
Cu257  Cu    0.16667   0.83334   0.21355   0.00000  Uiso   1.00
Cu258  Cu    0.16667   0.83333   0.11978   0.00000  Uiso   1.00
H259   H     0.32597   0.83346   0.11197   0.00000  Uiso   1.00
H260   H     0.00736   0.83321   0.22137   0.00000  Uiso   1.00
H261   H     0.21881   0.70637   0.11619   0.00000  Uiso   1.00
H262   H     0.11452   0.96030   0.21714   0.00000  Uiso   1.00
H263   H     0.10593   0.78967   0.03560   0.00000  Uiso   1.00
H264   H     0.22741   0.87700   0.29773   0.00000  Uiso   1.00
H265   H     0.10592   0.78969   0.28204   0.00000  Uiso   1.00
H266   H     0.22741   0.87697   0.05129   0.00000  Uiso   1.00
N267   N     0.16668   0.83334   0.28403   0.00000  Uiso   1.00
N268   N     0.16665   0.83332   0.04931   0.00000  Uiso   1.00
O269   O     0.16666   0.77322   0.20625   0.00000  Uiso   1.00
O270   O     0.16667   0.89345   0.12709   0.00000  Uiso   1.00
O271   O     0.16666   0.77321   0.12706   0.00000  Uiso   1.00
O272   O     0.16667   0.89346   0.20628   0.00000  Uiso   1.00
O273   O     0.09161   0.83334   0.19712   0.00000  Uiso   1.00
O274   O     0.24172   0.83333   0.13621   0.00000  Uiso   1.00
O275   O     0.09161   0.83333   0.11793   0.00000  Uiso   1.00
O276   O     0.24172   0.83334   0.21540   0.00000  Uiso   1.00
O277   O     0.23379   0.96168   0.11236   0.00000  Uiso   1.00
H278   H     0.24445   0.93451   0.12611   0.00000  Uiso   1.00
O279   O     0.09954   0.70499   0.22097   0.00000  Uiso   1.00
H280   H     0.08888   0.73215   0.20722   0.00000  Uiso   1.00
C281   C     0.49846   0.75412   0.16640   0.00000  Uiso   1.00
C282   C     0.50154   0.91255   0.16694   0.00000  Uiso   1.00
C283   C     0.40125   0.83333   0.15457   0.00000  Uiso   1.00
C284   C     0.59875   0.83334   0.17876   0.00000  Uiso   1.00
C285   C     0.34597   0.83336   0.14792   0.00000  Uiso   1.00
C286   C     0.65403   0.83330   0.18541   0.00000  Uiso   1.00
C287   C     0.52873   0.68900   0.13771   0.00000  Uiso   1.00
C288   C     0.47127   0.97767   0.19563   0.00000  Uiso   1.00
C289   C     0.53272   0.97969   0.13869   0.00000  Uiso   1.00
C290   C     0.46728   0.68698   0.19464   0.00000  Uiso   1.00
C291   C     0.50279   0.95718   0.16739   0.00000  Uiso   1.00
C292   C     0.49721   0.70948   0.16595   0.00000  Uiso   1.00
C293   C     0.46625   0.80912   0.02043   0.00000  Uiso   1.00
C294   C     0.53375   0.85755   0.31290   0.00000  Uiso   1.00
C295   C     0.46626   0.80913   0.30418   0.00000  Uiso   1.00
C296   C     0.53374   0.85753   0.02915   0.00000  Uiso   1.00
Cu297  Cu    0.50000   0.83334   0.21355   0.00000  Uiso   1.00
Cu298  Cu    0.50000   0.83333   0.11978   0.00000  Uiso   1.00
H299   H     0.65931   0.83346   0.11197   0.00000  Uiso   1.00
H300   H     0.34069   0.83321   0.22137   0.00000  Uiso   1.00
H301   H     0.55215   0.70637   0.11619   0.00000  Uiso   1.00
H302   H     0.44785   0.96030   0.21714   0.00000  Uiso   1.00
H303   H     0.43926   0.78967   0.03560   0.00000  Uiso   1.00
H304   H     0.56074   0.87700   0.29773   0.00000  Uiso   1.00
H305   H     0.43926   0.78969   0.28204   0.00000  Uiso   1.00
H306   H     0.56074   0.87697   0.05129   0.00000  Uiso   1.00
N307   N     0.50001   0.83334   0.28403   0.00000  Uiso   1.00
N308   N     0.49999   0.83332   0.04931   0.00000  Uiso   1.00
O309   O     0.50000   0.77322   0.20625   0.00000  Uiso   1.00
O310   O     0.50000   0.89345   0.12709   0.00000  Uiso   1.00
O311   O     0.50000   0.77321   0.12706   0.00000  Uiso   1.00
O312   O     0.50000   0.89346   0.20628   0.00000  Uiso   1.00
O313   O     0.42495   0.83334   0.19712   0.00000  Uiso   1.00
O314   O     0.57505   0.83333   0.13621   0.00000  Uiso   1.00
O315   O     0.42494   0.83333   0.11793   0.00000  Uiso   1.00
O316   O     0.57506   0.83334   0.21540   0.00000  Uiso   1.00
O317   O     0.56713   0.96168   0.11236   0.00000  Uiso   1.00
H318   H     0.57778   0.93451   0.12611   0.00000  Uiso   1.00
O319   O     0.43287   0.70499   0.22097   0.00000  Uiso   1.00
H320   H     0.42222   0.73215   0.20722   0.00000  Uiso   1.00
C321   C     0.83179   0.75412   0.16640   0.00000  Uiso   1.00
C322   C     0.83488   0.91255   0.16694   0.00000  Uiso   1.00
C323   C     0.73459   0.83333   0.15457   0.00000  Uiso   1.00
C324   C     0.93208   0.83334   0.17876   0.00000  Uiso   1.00
C325   C     0.67930   0.83336   0.14792   0.00000  Uiso   1.00
C326   C     0.98737   0.83330   0.18541   0.00000  Uiso   1.00
C327   C     0.86206   0.68900   0.13771   0.00000  Uiso   1.00
C328   C     0.80461   0.97767   0.19563   0.00000  Uiso   1.00
C329   C     0.86605   0.97969   0.13869   0.00000  Uiso   1.00
C330   C     0.80062   0.68698   0.19464   0.00000  Uiso   1.00
C331   C     0.83612   0.95718   0.16739   0.00000  Uiso   1.00
C332   C     0.83054   0.70948   0.16595   0.00000  Uiso   1.00
C333   C     0.79959   0.80912   0.02043   0.00000  Uiso   1.00
C334   C     0.86708   0.85755   0.31290   0.00000  Uiso   1.00
C335   C     0.79959   0.80913   0.30418   0.00000  Uiso   1.00
C336   C     0.86707   0.85753   0.02915   0.00000  Uiso   1.00
Cu337  Cu    0.83333   0.83334   0.21355   0.00000  Uiso   1.00
Cu338  Cu    0.83333   0.83333   0.11978   0.00000  Uiso   1.00
H339   H     0.99264   0.83346   0.11197   0.00000  Uiso   1.00
H340   H     0.67403   0.83321   0.22137   0.00000  Uiso   1.00
H341   H     0.88548   0.70637   0.11619   0.00000  Uiso   1.00
H342   H     0.78119   0.96030   0.21714   0.00000  Uiso   1.00
H343   H     0.77259   0.78967   0.03560   0.00000  Uiso   1.00
H344   H     0.89407   0.87700   0.29773   0.00000  Uiso   1.00
H345   H     0.77259   0.78969   0.28204   0.00000  Uiso   1.00
H346   H     0.89407   0.87697   0.05129   0.00000  Uiso   1.00
N347   N     0.83335   0.83334   0.28403   0.00000  Uiso   1.00
N348   N     0.83332   0.83332   0.04931   0.00000  Uiso   1.00
O349   O     0.83333   0.77322   0.20625   0.00000  Uiso   1.00
O350   O     0.83334   0.89345   0.12709   0.00000  Uiso   1.00
O351   O     0.83333   0.77321   0.12706   0.00000  Uiso   1.00
O352   O     0.83334   0.89346   0.20628   0.00000  Uiso   1.00
O353   O     0.75828   0.83334   0.19712   0.00000  Uiso   1.00
O354   O     0.90839   0.83333   0.13621   0.00000  Uiso   1.00
O355   O     0.75828   0.83333   0.11793   0.00000  Uiso   1.00
O356   O     0.90839   0.83334   0.21540   0.00000  Uiso   1.00
O357   O     0.90046   0.96168   0.11236   0.00000  Uiso   1.00
H358   H     0.91112   0.93451   0.12611   0.00000  Uiso   1.00
O359   O     0.76620   0.70499   0.22097   0.00000  Uiso   1.00
H360   H     0.75555   0.73215   0.20722   0.00000  Uiso   1.00
C361   C     0.16512   0.08745   0.49973   0.00000  Uiso   1.00
C362   C     0.16821   0.24588   0.50027   0.00000  Uiso   1.00
C363   C     0.06792   0.16666   0.48791   0.00000  Uiso   1.00
C364   C     0.26541   0.16667   0.51209   0.00000  Uiso   1.00
C365   C     0.01263   0.16670   0.48126   0.00000  Uiso   1.00
C366   C     0.32070   0.16664   0.51874   0.00000  Uiso   1.00
C367   C     0.19539   0.02233   0.47104   0.00000  Uiso   1.00
C368   C     0.13794   0.31100   0.52896   0.00000  Uiso   1.00
C369   C     0.19938   0.31302   0.47202   0.00000  Uiso   1.00
C370   C     0.13395   0.02031   0.52798   0.00000  Uiso   1.00
C371   C     0.16946   0.29052   0.50072   0.00000  Uiso   1.00
C372   C     0.16388   0.04282   0.49928   0.00000  Uiso   1.00
C373   C     0.13292   0.14246   0.35376   0.00000  Uiso   1.00
C374   C     0.20041   0.19088   0.64624   0.00000  Uiso   1.00
C375   C     0.13293   0.14247   0.63752   0.00000  Uiso   1.00
C376   C     0.20041   0.19087   0.36248   0.00000  Uiso   1.00
Cu377  Cu    0.16667   0.16667   0.54689   0.00000  Uiso   1.00
Cu378  Cu    0.16667   0.16666   0.45311   0.00000  Uiso   1.00
H379   H     0.32597   0.16679   0.44530   0.00000  Uiso   1.00
H380   H     0.00736   0.16654   0.55470   0.00000  Uiso   1.00
H381   H     0.21881   0.03970   0.44953   0.00000  Uiso   1.00
H382   H     0.11452   0.29363   0.55047   0.00000  Uiso   1.00
H383   H     0.10593   0.12300   0.36893   0.00000  Uiso   1.00
H384   H     0.22741   0.21033   0.63107   0.00000  Uiso   1.00
H385   H     0.10592   0.12303   0.61537   0.00000  Uiso   1.00
H386   H     0.22741   0.21031   0.38463   0.00000  Uiso   1.00
N387   N     0.16668   0.16668   0.61736   0.00000  Uiso   1.00
N388   N     0.16665   0.16666   0.38264   0.00000  Uiso   1.00
O389   O     0.16666   0.10655   0.53958   0.00000  Uiso   1.00
O390   O     0.16667   0.22678   0.46042   0.00000  Uiso   1.00
O391   O     0.16666   0.10654   0.46039   0.00000  Uiso   1.00
O392   O     0.16667   0.22679   0.53961   0.00000  Uiso   1.00
O393   O     0.09161   0.16667   0.53046   0.00000  Uiso   1.00
O394   O     0.24172   0.16666   0.46954   0.00000  Uiso   1.00
O395   O     0.09161   0.16666   0.45127   0.00000  Uiso   1.00
O396   O     0.24172   0.16667   0.54873   0.00000  Uiso   1.00
O397   O     0.23379   0.29501   0.44569   0.00000  Uiso   1.00
H398   H     0.24445   0.26785   0.45944   0.00000  Uiso   1.00
O399   O     0.09954   0.03832   0.55430   0.00000  Uiso   1.00
H400   H     0.08888   0.06549   0.54055   0.00000  Uiso   1.00
C401   C     0.49846   0.08745   0.49973   0.00000  Uiso   1.00
C402   C     0.50154   0.24588   0.50027   0.00000  Uiso   1.00
C403   C     0.40125   0.16666   0.48791   0.00000  Uiso   1.00
C404   C     0.59875   0.16667   0.51209   0.00000  Uiso   1.00
C405   C     0.34597   0.16670   0.48126   0.00000  Uiso   1.00
C406   C     0.65403   0.16664   0.51874   0.00000  Uiso   1.00
C407   C     0.52873   0.02233   0.47104   0.00000  Uiso   1.00
C408   C     0.47127   0.31100   0.52896   0.00000  Uiso   1.00
C409   C     0.53272   0.31302   0.47202   0.00000  Uiso   1.00
C410   C     0.46728   0.02031   0.52798   0.00000  Uiso   1.00
C411   C     0.50279   0.29052   0.50072   0.00000  Uiso   1.00
C412   C     0.49721   0.04282   0.49928   0.00000  Uiso   1.00
C413   C     0.46625   0.14246   0.35376   0.00000  Uiso   1.00
C414   C     0.53375   0.19088   0.64624   0.00000  Uiso   1.00
C415   C     0.46626   0.14247   0.63752   0.00000  Uiso   1.00
C416   C     0.53374   0.19087   0.36248   0.00000  Uiso   1.00
Cu417  Cu    0.50000   0.16667   0.54689   0.00000  Uiso   1.00
Cu418  Cu    0.50000   0.16666   0.45311   0.00000  Uiso   1.00
H419   H     0.65931   0.16679   0.44530   0.00000  Uiso   1.00
H420   H     0.34069   0.16654   0.55470   0.00000  Uiso   1.00
H421   H     0.55215   0.03970   0.44953   0.00000  Uiso   1.00
H422   H     0.44785   0.29363   0.55047   0.00000  Uiso   1.00
H423   H     0.43926   0.12300   0.36893   0.00000  Uiso   1.00
H424   H     0.56074   0.21033   0.63107   0.00000  Uiso   1.00
H425   H     0.43926   0.12303   0.61537   0.00000  Uiso   1.00
H426   H     0.56074   0.21031   0.38463   0.00000  Uiso   1.00
N427   N     0.50001   0.16668   0.61736   0.00000  Uiso   1.00
N428   N     0.49999   0.16666   0.38264   0.00000  Uiso   1.00
O429   O     0.50000   0.10655   0.53958   0.00000  Uiso   1.00
O430   O     0.50000   0.22678   0.46042   0.00000  Uiso   1.00
O431   O     0.50000   0.10654   0.46039   0.00000  Uiso   1.00
O432   O     0.50000   0.22679   0.53961   0.00000  Uiso   1.00
O433   O     0.42495   0.16667   0.53046   0.00000  Uiso   1.00
O434   O     0.57505   0.16666   0.46954   0.00000  Uiso   1.00
O435   O     0.42494   0.16666   0.45127   0.00000  Uiso   1.00
O436   O     0.57506   0.16667   0.54873   0.00000  Uiso   1.00
O437   O     0.56713   0.29501   0.44569   0.00000  Uiso   1.00
H438   H     0.57778   0.26785   0.45944   0.00000  Uiso   1.00
O439   O     0.43287   0.03832   0.55430   0.00000  Uiso   1.00
H440   H     0.42222   0.06549   0.54055   0.00000  Uiso   1.00
C441   C     0.83179   0.08745   0.49973   0.00000  Uiso   1.00
C442   C     0.83488   0.24588   0.50027   0.00000  Uiso   1.00
C443   C     0.73459   0.16666   0.48791   0.00000  Uiso   1.00
C444   C     0.93208   0.16667   0.51209   0.00000  Uiso   1.00
C445   C     0.67930   0.16670   0.48126   0.00000  Uiso   1.00
C446   C     0.98737   0.16664   0.51874   0.00000  Uiso   1.00
C447   C     0.86206   0.02233   0.47104   0.00000  Uiso   1.00
C448   C     0.80461   0.31100   0.52896   0.00000  Uiso   1.00
C449   C     0.86605   0.31302   0.47202   0.00000  Uiso   1.00
C450   C     0.80062   0.02031   0.52798   0.00000  Uiso   1.00
C451   C     0.83612   0.29052   0.50072   0.00000  Uiso   1.00
C452   C     0.83054   0.04282   0.49928   0.00000  Uiso   1.00
C453   C     0.79959   0.14246   0.35376   0.00000  Uiso   1.00
C454   C     0.86708   0.19088   0.64624   0.00000  Uiso   1.00
C455   C     0.79959   0.14247   0.63752   0.00000  Uiso   1.00
C456   C     0.86707   0.19087   0.36248   0.00000  Uiso   1.00
Cu457  Cu    0.83333   0.16667   0.54689   0.00000  Uiso   1.00
Cu458  Cu    0.83333   0.16666   0.45311   0.00000  Uiso   1.00
H459   H     0.99264   0.16679   0.44530   0.00000  Uiso   1.00
H460   H     0.67403   0.16654   0.55470   0.00000  Uiso   1.00
H461   H     0.88548   0.03970   0.44953   0.00000  Uiso   1.00
H462   H     0.78119   0.29363   0.55047   0.00000  Uiso   1.00
H463   H     0.77259   0.12300   0.36893   0.00000  Uiso   1.00
H464   H     0.89407   0.21033   0.63107   0.00000  Uiso   1.00
H465   H     0.77259   0.12303   0.61537   0.00000  Uiso   1.00
H466   H     0.89407   0.21031   0.38463   0.00000  Uiso   1.00
N467   N     0.83335   0.16668   0.61736   0.00000  Uiso   1.00
N468   N     0.83332   0.16666   0.38264   0.00000  Uiso   1.00
O469   O     0.83333   0.10655   0.53958   0.00000  Uiso   1.00
O470   O     0.83334   0.22678   0.46042   0.00000  Uiso   1.00
O471   O     0.83333   0.10654   0.46039   0.00000  Uiso   1.00
O472   O     0.83334   0.22679   0.53961   0.00000  Uiso   1.00
O473   O     0.75828   0.16667   0.53046   0.00000  Uiso   1.00
O474   O     0.90839   0.16666   0.46954   0.00000  Uiso   1.00
O475   O     0.75828   0.16666   0.45127   0.00000  Uiso   1.00
O476   O     0.90839   0.16667   0.54873   0.00000  Uiso   1.00
O477   O     0.90046   0.29501   0.44569   0.00000  Uiso   1.00
H478   H     0.91112   0.26785   0.45944   0.00000  Uiso   1.00
O479   O     0.76620   0.03832   0.55430   0.00000  Uiso   1.00
H480   H     0.75555   0.06549   0.54055   0.00000  Uiso   1.00
C481   C     0.16512   0.42078   0.49973   0.00000  Uiso   1.00
C482   C     0.16821   0.57922   0.50027   0.00000  Uiso   1.00
C483   C     0.06792   0.49999   0.48791   0.00000  Uiso   1.00
C484   C     0.26541   0.50001   0.51209   0.00000  Uiso   1.00
C485   C     0.01263   0.50003   0.48126   0.00000  Uiso   1.00
C486   C     0.32070   0.49997   0.51874   0.00000  Uiso   1.00
C487   C     0.19539   0.35567   0.47104   0.00000  Uiso   1.00
C488   C     0.13794   0.64433   0.52896   0.00000  Uiso   1.00
C489   C     0.19938   0.64635   0.47202   0.00000  Uiso   1.00
C490   C     0.13395   0.35365   0.52798   0.00000  Uiso   1.00
C491   C     0.16946   0.62385   0.50072   0.00000  Uiso   1.00
C492   C     0.16388   0.37615   0.49928   0.00000  Uiso   1.00
C493   C     0.13292   0.47579   0.35376   0.00000  Uiso   1.00
C494   C     0.20041   0.52421   0.64624   0.00000  Uiso   1.00
C495   C     0.13293   0.47580   0.63752   0.00000  Uiso   1.00
C496   C     0.20041   0.52420   0.36248   0.00000  Uiso   1.00
Cu497  Cu    0.16667   0.50001   0.54689   0.00000  Uiso   1.00
Cu498  Cu    0.16667   0.49999   0.45311   0.00000  Uiso   1.00
H499   H     0.32597   0.50013   0.44530   0.00000  Uiso   1.00
H500   H     0.00736   0.49987   0.55470   0.00000  Uiso   1.00
H501   H     0.21881   0.37303   0.44953   0.00000  Uiso   1.00
H502   H     0.11452   0.62697   0.55047   0.00000  Uiso   1.00
H503   H     0.10593   0.45633   0.36893   0.00000  Uiso   1.00
H504   H     0.22741   0.54367   0.63107   0.00000  Uiso   1.00
H505   H     0.10592   0.45636   0.61537   0.00000  Uiso   1.00
H506   H     0.22741   0.54364   0.38463   0.00000  Uiso   1.00
N507   N     0.16668   0.50001   0.61736   0.00000  Uiso   1.00
N508   N     0.16665   0.49999   0.38264   0.00000  Uiso   1.00
O509   O     0.16666   0.43989   0.53958   0.00000  Uiso   1.00
O510   O     0.16667   0.56011   0.46042   0.00000  Uiso   1.00
O511   O     0.16666   0.43988   0.46039   0.00000  Uiso   1.00
O512   O     0.16667   0.56012   0.53961   0.00000  Uiso   1.00
O513   O     0.09161   0.50000   0.53046   0.00000  Uiso   1.00
O514   O     0.24172   0.50000   0.46954   0.00000  Uiso   1.00
O515   O     0.09161   0.49999   0.45127   0.00000  Uiso   1.00
O516   O     0.24172   0.50001   0.54873   0.00000  Uiso   1.00
O517   O     0.23379   0.62834   0.44569   0.00000  Uiso   1.00
H518   H     0.24445   0.60118   0.45944   0.00000  Uiso   1.00
O519   O     0.09954   0.37166   0.55430   0.00000  Uiso   1.00
H520   H     0.08888   0.39882   0.54055   0.00000  Uiso   1.00
C521   C     0.49846   0.42078   0.49973   0.00000  Uiso   1.00
C522   C     0.50154   0.57922   0.50027   0.00000  Uiso   1.00
C523   C     0.40125   0.49999   0.48791   0.00000  Uiso   1.00
C524   C     0.59875   0.50001   0.51209   0.00000  Uiso   1.00
C525   C     0.34597   0.50003   0.48126   0.00000  Uiso   1.00
C526   C     0.65403   0.49997   0.51874   0.00000  Uiso   1.00
C527   C     0.52873   0.35567   0.47104   0.00000  Uiso   1.00
C528   C     0.47127   0.64433   0.52896   0.00000  Uiso   1.00
C529   C     0.53272   0.64635   0.47202   0.00000  Uiso   1.00
C530   C     0.46728   0.35365   0.52798   0.00000  Uiso   1.00
C531   C     0.50279   0.62385   0.50072   0.00000  Uiso   1.00
C532   C     0.49721   0.37615   0.49928   0.00000  Uiso   1.00
C533   C     0.46625   0.47579   0.35376   0.00000  Uiso   1.00
C534   C     0.53375   0.52421   0.64624   0.00000  Uiso   1.00
C535   C     0.46626   0.47580   0.63752   0.00000  Uiso   1.00
C536   C     0.53374   0.52420   0.36248   0.00000  Uiso   1.00
Cu537  Cu    0.50000   0.50001   0.54689   0.00000  Uiso   1.00
Cu538  Cu    0.50000   0.49999   0.45311   0.00000  Uiso   1.00
H539   H     0.65931   0.50013   0.44530   0.00000  Uiso   1.00
H540   H     0.34069   0.49987   0.55470   0.00000  Uiso   1.00
H541   H     0.55215   0.37303   0.44953   0.00000  Uiso   1.00
H542   H     0.44785   0.62697   0.55047   0.00000  Uiso   1.00
H543   H     0.43926   0.45633   0.36893   0.00000  Uiso   1.00
H544   H     0.56074   0.54367   0.63107   0.00000  Uiso   1.00
H545   H     0.43926   0.45636   0.61537   0.00000  Uiso   1.00
H546   H     0.56074   0.54364   0.38463   0.00000  Uiso   1.00
N547   N     0.50001   0.50001   0.61736   0.00000  Uiso   1.00
N548   N     0.49999   0.49999   0.38264   0.00000  Uiso   1.00
O549   O     0.50000   0.43989   0.53958   0.00000  Uiso   1.00
O550   O     0.50000   0.56011   0.46042   0.00000  Uiso   1.00
O551   O     0.50000   0.43988   0.46039   0.00000  Uiso   1.00
O552   O     0.50000   0.56012   0.53961   0.00000  Uiso   1.00
O553   O     0.42495   0.50000   0.53046   0.00000  Uiso   1.00
O554   O     0.57505   0.50000   0.46954   0.00000  Uiso   1.00
O555   O     0.42494   0.49999   0.45127   0.00000  Uiso   1.00
O556   O     0.57506   0.50001   0.54873   0.00000  Uiso   1.00
O557   O     0.56713   0.62834   0.44569   0.00000  Uiso   1.00
H558   H     0.57778   0.60118   0.45944   0.00000  Uiso   1.00
O559   O     0.43287   0.37166   0.55430   0.00000  Uiso   1.00
H560   H     0.42222   0.39882   0.54055   0.00000  Uiso   1.00
C561   C     0.83179   0.42078   0.49973   0.00000  Uiso   1.00
C562   C     0.83488   0.57922   0.50027   0.00000  Uiso   1.00
C563   C     0.73459   0.49999   0.48791   0.00000  Uiso   1.00
C564   C     0.93208   0.50001   0.51209   0.00000  Uiso   1.00
C565   C     0.67930   0.50003   0.48126   0.00000  Uiso   1.00
C566   C     0.98737   0.49997   0.51874   0.00000  Uiso   1.00
C567   C     0.86206   0.35567   0.47104   0.00000  Uiso   1.00
C568   C     0.80461   0.64433   0.52896   0.00000  Uiso   1.00
C569   C     0.86605   0.64635   0.47202   0.00000  Uiso   1.00
C570   C     0.80062   0.35365   0.52798   0.00000  Uiso   1.00
C571   C     0.83612   0.62385   0.50072   0.00000  Uiso   1.00
C572   C     0.83054   0.37615   0.49928   0.00000  Uiso   1.00
C573   C     0.79959   0.47579   0.35376   0.00000  Uiso   1.00
C574   C     0.86708   0.52421   0.64624   0.00000  Uiso   1.00
C575   C     0.79959   0.47580   0.63752   0.00000  Uiso   1.00
C576   C     0.86707   0.52420   0.36248   0.00000  Uiso   1.00
Cu577  Cu    0.83333   0.50001   0.54689   0.00000  Uiso   1.00
Cu578  Cu    0.83333   0.49999   0.45311   0.00000  Uiso   1.00
H579   H     0.99264   0.50013   0.44530   0.00000  Uiso   1.00
H580   H     0.67403   0.49987   0.55470   0.00000  Uiso   1.00
H581   H     0.88548   0.37303   0.44953   0.00000  Uiso   1.00
H582   H     0.78119   0.62697   0.55047   0.00000  Uiso   1.00
H583   H     0.77259   0.45633   0.36893   0.00000  Uiso   1.00
H584   H     0.89407   0.54367   0.63107   0.00000  Uiso   1.00
H585   H     0.77259   0.45636   0.61537   0.00000  Uiso   1.00
H586   H     0.89407   0.54364   0.38463   0.00000  Uiso   1.00
N587   N     0.83335   0.50001   0.61736   0.00000  Uiso   1.00
N588   N     0.83332   0.49999   0.38264   0.00000  Uiso   1.00
O589   O     0.83333   0.43989   0.53958   0.00000  Uiso   1.00
O590   O     0.83334   0.56011   0.46042   0.00000  Uiso   1.00
O591   O     0.83333   0.43988   0.46039   0.00000  Uiso   1.00
O592   O     0.83334   0.56012   0.53961   0.00000  Uiso   1.00
O593   O     0.75828   0.50000   0.53046   0.00000  Uiso   1.00
O594   O     0.90839   0.50000   0.46954   0.00000  Uiso   1.00
O595   O     0.75828   0.49999   0.45127   0.00000  Uiso   1.00
O596   O     0.90839   0.50001   0.54873   0.00000  Uiso   1.00
O597   O     0.90046   0.62834   0.44569   0.00000  Uiso   1.00
H598   H     0.91112   0.60118   0.45944   0.00000  Uiso   1.00
O599   O     0.76620   0.37166   0.55430   0.00000  Uiso   1.00
H600   H     0.75555   0.39882   0.54055   0.00000  Uiso   1.00
C601   C     0.16512   0.75412   0.49973   0.00000  Uiso   1.00
C602   C     0.16821   0.91255   0.50027   0.00000  Uiso   1.00
C603   C     0.06792   0.83333   0.48791   0.00000  Uiso   1.00
C604   C     0.26541   0.83334   0.51209   0.00000  Uiso   1.00
C605   C     0.01263   0.83336   0.48126   0.00000  Uiso   1.00
C606   C     0.32070   0.83330   0.51874   0.00000  Uiso   1.00
C607   C     0.19539   0.68900   0.47104   0.00000  Uiso   1.00
C608   C     0.13794   0.97767   0.52896   0.00000  Uiso   1.00
C609   C     0.19938   0.97969   0.47202   0.00000  Uiso   1.00
C610   C     0.13395   0.68698   0.52798   0.00000  Uiso   1.00
C611   C     0.16946   0.95718   0.50072   0.00000  Uiso   1.00
C612   C     0.16388   0.70948   0.49928   0.00000  Uiso   1.00
C613   C     0.13292   0.80912   0.35376   0.00000  Uiso   1.00
C614   C     0.20041   0.85755   0.64624   0.00000  Uiso   1.00
C615   C     0.13293   0.80913   0.63752   0.00000  Uiso   1.00
C616   C     0.20041   0.85753   0.36248   0.00000  Uiso   1.00
Cu617  Cu    0.16667   0.83334   0.54689   0.00000  Uiso   1.00
Cu618  Cu    0.16667   0.83333   0.45311   0.00000  Uiso   1.00
H619   H     0.32597   0.83346   0.44530   0.00000  Uiso   1.00
H620   H     0.00736   0.83321   0.55470   0.00000  Uiso   1.00
H621   H     0.21881   0.70637   0.44953   0.00000  Uiso   1.00
H622   H     0.11452   0.96030   0.55047   0.00000  Uiso   1.00
H623   H     0.10593   0.78967   0.36893   0.00000  Uiso   1.00
H624   H     0.22741   0.87700   0.63107   0.00000  Uiso   1.00
H625   H     0.10592   0.78969   0.61537   0.00000  Uiso   1.00
H626   H     0.22741   0.87697   0.38463   0.00000  Uiso   1.00
N627   N     0.16668   0.83334   0.61736   0.00000  Uiso   1.00
N628   N     0.16665   0.83332   0.38264   0.00000  Uiso   1.00
O629   O     0.16666   0.77322   0.53958   0.00000  Uiso   1.00
O630   O     0.16667   0.89345   0.46042   0.00000  Uiso   1.00
O631   O     0.16666   0.77321   0.46039   0.00000  Uiso   1.00
O632   O     0.16667   0.89346   0.53961   0.00000  Uiso   1.00
O633   O     0.09161   0.83334   0.53046   0.00000  Uiso   1.00
O634   O     0.24172   0.83333   0.46954   0.00000  Uiso   1.00
O635   O     0.09161   0.83333   0.45127   0.00000  Uiso   1.00
O636   O     0.24172   0.83334   0.54873   0.00000  Uiso   1.00
O637   O     0.23379   0.96168   0.44569   0.00000  Uiso   1.00
H638   H     0.24445   0.93451   0.45944   0.00000  Uiso   1.00
O639   O     0.09954   0.70499   0.55430   0.00000  Uiso   1.00
H640   H     0.08888   0.73215   0.54055   0.00000  Uiso   1.00
C641   C     0.49846   0.75412   0.49973   0.00000  Uiso   1.00
C642   C     0.50154   0.91255   0.50027   0.00000  Uiso   1.00
C643   C     0.40125   0.83333   0.48791   0.00000  Uiso   1.00
C644   C     0.59875   0.83334   0.51209   0.00000  Uiso   1.00
C645   C     0.34597   0.83336   0.48126   0.00000  Uiso   1.00
C646   C     0.65403   0.83330   0.51874   0.00000  Uiso   1.00
C647   C     0.52873   0.68900   0.47104   0.00000  Uiso   1.00
C648   C     0.47127   0.97767   0.52896   0.00000  Uiso   1.00
C649   C     0.53272   0.97969   0.47202   0.00000  Uiso   1.00
C650   C     0.46728   0.68698   0.52798   0.00000  Uiso   1.00
C651   C     0.50279   0.95718   0.50072   0.00000  Uiso   1.00
C652   C     0.49721   0.70948   0.49928   0.00000  Uiso   1.00
C653   C     0.46625   0.80912   0.35376   0.00000  Uiso   1.00
C654   C     0.53375   0.85755   0.64624   0.00000  Uiso   1.00
C655   C     0.46626   0.80913   0.63752   0.00000  Uiso   1.00
C656   C     0.53374   0.85753   0.36248   0.00000  Uiso   1.00
Cu657  Cu    0.50000   0.83334   0.54689   0.00000  Uiso   1.00
Cu658  Cu    0.50000   0.83333   0.45311   0.00000  Uiso   1.00
H659   H     0.65931   0.83346   0.44530   0.00000  Uiso   1.00
H660   H     0.34069   0.83321   0.55470   0.00000  Uiso   1.00
H661   H     0.55215   0.70637   0.44953   0.00000  Uiso   1.00
H662   H     0.44785   0.96030   0.55047   0.00000  Uiso   1.00
H663   H     0.43926   0.78967   0.36893   0.00000  Uiso   1.00
H664   H     0.56074   0.87700   0.63107   0.00000  Uiso   1.00
H665   H     0.43926   0.78969   0.61537   0.00000  Uiso   1.00
H666   H     0.56074   0.87697   0.38463   0.00000  Uiso   1.00
N667   N     0.50001   0.83334   0.61736   0.00000  Uiso   1.00
N668   N     0.49999   0.83332   0.38264   0.00000  Uiso   1.00
O669   O     0.50000   0.77322   0.53958   0.00000  Uiso   1.00
O670   O     0.50000   0.89345   0.46042   0.00000  Uiso   1.00
O671   O     0.50000   0.77321   0.46039   0.00000  Uiso   1.00
O672   O     0.50000   0.89346   0.53961   0.00000  Uiso   1.00
O673   O     0.42495   0.83334   0.53046   0.00000  Uiso   1.00
O674   O     0.57505   0.83333   0.46954   0.00000  Uiso   1.00
O675   O     0.42494   0.83333   0.45127   0.00000  Uiso   1.00
O676   O     0.57506   0.83334   0.54873   0.00000  Uiso   1.00
O677   O     0.56713   0.96168   0.44569   0.00000  Uiso   1.00
H678   H     0.57778   0.93451   0.45944   0.00000  Uiso   1.00
O679   O     0.43287   0.70499   0.55430   0.00000  Uiso   1.00
H680   H     0.42222   0.73215   0.54055   0.00000  Uiso   1.00
C681   C     0.83179   0.75412   0.49973   0.00000  Uiso   1.00
C682   C     0.83488   0.91255   0.50027   0.00000  Uiso   1.00
C683   C     0.73459   0.83333   0.48791   0.00000  Uiso   1.00
C684   C     0.93208   0.83334   0.51209   0.00000  Uiso   1.00
C685   C     0.67930   0.83336   0.48126   0.00000  Uiso   1.00
C686   C     0.98737   0.83330   0.51874   0.00000  Uiso   1.00
C687   C     0.86206   0.68900   0.47104   0.00000  Uiso   1.00
C688   C     0.80461   0.97767   0.52896   0.00000  Uiso   1.00
C689   C     0.86605   0.97969   0.47202   0.00000  Uiso   1.00
C690   C     0.80062   0.68698   0.52798   0.00000  Uiso   1.00
C691   C     0.83612   0.95718   0.50072   0.00000  Uiso   1.00
C692   C     0.83054   0.70948   0.49928   0.00000  Uiso   1.00
C693   C     0.79959   0.80912   0.35376   0.00000  Uiso   1.00
C694   C     0.86708   0.85755   0.64624   0.00000  Uiso   1.00
C695   C     0.79959   0.80913   0.63752   0.00000  Uiso   1.00
C696   C     0.86707   0.85753   0.36248   0.00000  Uiso   1.00
Cu697  Cu    0.83333   0.83334   0.54689   0.00000  Uiso   1.00
Cu698  Cu    0.83333   0.83333   0.45311   0.00000  Uiso   1.00
H699   H     0.99264   0.83346   0.44530   0.00000  Uiso   1.00
H700   H     0.67403   0.83321   0.55470   0.00000  Uiso   1.00
H701   H     0.88548   0.70637   0.44953   0.00000  Uiso   1.00
H702   H     0.78119   0.96030   0.55047   0.00000  Uiso   1.00
H703   H     0.77259   0.78967   0.36893   0.00000  Uiso   1.00
H704   H     0.89407   0.87700   0.63107   0.00000  Uiso   1.00
H705   H     0.77259   0.78969   0.61537   0.00000  Uiso   1.00
H706   H     0.89407   0.87697   0.38463   0.00000  Uiso   1.00
N707   N     0.83335   0.83334   0.61736   0.00000  Uiso   1.00
N708   N     0.83332   0.83332   0.38264   0.00000  Uiso   1.00
O709   O     0.83333   0.77322   0.53958   0.00000  Uiso   1.00
O710   O     0.83334   0.89345   0.46042   0.00000  Uiso   1.00
O711   O     0.83333   0.77321   0.46039   0.00000  Uiso   1.00
O712   O     0.83334   0.89346   0.53961   0.00000  Uiso   1.00
O713   O     0.75828   0.83334   0.53046   0.00000  Uiso   1.00
O714   O     0.90839   0.83333   0.46954   0.00000  Uiso   1.00
O715   O     0.75828   0.83333   0.45127   0.00000  Uiso   1.00
O716   O     0.90839   0.83334   0.54873   0.00000  Uiso   1.00
O717   O     0.90046   0.96168   0.44569   0.00000  Uiso   1.00
H718   H     0.91112   0.93451   0.45944   0.00000  Uiso   1.00
O719   O     0.76620   0.70499   0.55430   0.00000  Uiso   1.00
H720   H     0.75555   0.73215   0.54055   0.00000  Uiso   1.00
C721   C     0.16512   0.08745   0.83306   0.00000  Uiso   1.00
C722   C     0.16821   0.24588   0.83360   0.00000  Uiso   1.00
C723   C     0.06792   0.16666   0.82124   0.00000  Uiso   1.00
C724   C     0.26541   0.16667   0.84543   0.00000  Uiso   1.00
C725   C     0.01263   0.16670   0.81459   0.00000  Uiso   1.00
C726   C     0.32070   0.16664   0.85208   0.00000  Uiso   1.00
C727   C     0.19539   0.02233   0.80437   0.00000  Uiso   1.00
C728   C     0.13794   0.31100   0.86229   0.00000  Uiso   1.00
C729   C     0.19938   0.31302   0.80536   0.00000  Uiso   1.00
C730   C     0.13395   0.02031   0.86131   0.00000  Uiso   1.00
C731   C     0.16946   0.29052   0.83405   0.00000  Uiso   1.00
C732   C     0.16388   0.04282   0.83261   0.00000  Uiso   1.00
C733   C     0.13292   0.14246   0.68710   0.00000  Uiso   1.00
C734   C     0.20041   0.19088   0.97957   0.00000  Uiso   1.00
C735   C     0.13293   0.14247   0.97085   0.00000  Uiso   1.00
C736   C     0.20041   0.19087   0.69582   0.00000  Uiso   1.00
Cu737  Cu    0.16667   0.16667   0.88022   0.00000  Uiso   1.00
Cu738  Cu    0.16667   0.16666   0.78645   0.00000  Uiso   1.00
H739   H     0.32597   0.16679   0.77863   0.00000  Uiso   1.00
H740   H     0.00736   0.16654   0.88804   0.00000  Uiso   1.00
H741   H     0.21881   0.03970   0.78286   0.00000  Uiso   1.00
H742   H     0.11452   0.29363   0.88381   0.00000  Uiso   1.00
H743   H     0.10593   0.12300   0.70227   0.00000  Uiso   1.00
H744   H     0.22741   0.21033   0.96440   0.00000  Uiso   1.00
H745   H     0.10592   0.12303   0.94871   0.00000  Uiso   1.00
H746   H     0.22741   0.21031   0.71796   0.00000  Uiso   1.00
N747   N     0.16668   0.16668   0.95069   0.00000  Uiso   1.00
N748   N     0.16665   0.16666   0.71597   0.00000  Uiso   1.00
O749   O     0.16666   0.10655   0.87291   0.00000  Uiso   1.00
O750   O     0.16667   0.22678   0.79375   0.00000  Uiso   1.00
O751   O     0.16666   0.10654   0.79372   0.00000  Uiso   1.00
O752   O     0.16667   0.22679   0.87294   0.00000  Uiso   1.00
O753   O     0.09161   0.16667   0.86379   0.00000  Uiso   1.00
O754   O     0.24172   0.16666   0.80288   0.00000  Uiso   1.00
O755   O     0.09161   0.16666   0.78460   0.00000  Uiso   1.00
O756   O     0.24172   0.16667   0.88207   0.00000  Uiso   1.00
O757   O     0.23379   0.29501   0.77903   0.00000  Uiso   1.00
H758   H     0.24445   0.26785   0.79278   0.00000  Uiso   1.00
O759   O     0.09954   0.03832   0.88764   0.00000  Uiso   1.00
H760   H     0.08888   0.06549   0.87389   0.00000  Uiso   1.00
C761   C     0.49846   0.08745   0.83306   0.00000  Uiso   1.00
C762   C     0.50154   0.24588   0.83360   0.00000  Uiso   1.00
C763   C     0.40125   0.16666   0.82124   0.00000  Uiso   1.00
C764   C     0.59875   0.16667   0.84543   0.00000  Uiso   1.00
C765   C     0.34597   0.16670   0.81459   0.00000  Uiso   1.00
C766   C     0.65403   0.16664   0.85208   0.00000  Uiso   1.00
C767   C     0.52873   0.02233   0.80437   0.00000  Uiso   1.00
C768   C     0.47127   0.31100   0.86229   0.00000  Uiso   1.00
C769   C     0.53272   0.31302   0.80536   0.00000  Uiso   1.00
C770   C     0.46728   0.02031   0.86131   0.00000  Uiso   1.00
C771   C     0.50279   0.29052   0.83405   0.00000  Uiso   1.00
C772   C     0.49721   0.04282   0.83261   0.00000  Uiso   1.00
C773   C     0.46625   0.14246   0.68710   0.00000  Uiso   1.00
C774   C     0.53375   0.19088   0.97957   0.00000  Uiso   1.00
C775   C     0.46626   0.14247   0.97085   0.00000  Uiso   1.00
C776   C     0.53374   0.19087   0.69582   0.00000  Uiso   1.00
Cu777  Cu    0.50000   0.16667   0.88022   0.00000  Uiso   1.00
Cu778  Cu    0.50000   0.16666   0.78645   0.00000  Uiso   1.00
H779   H     0.65931   0.16679   0.77863   0.00000  Uiso   1.00
H780   H     0.34069   0.16654   0.88804   0.00000  Uiso   1.00
H781   H     0.55215   0.03970   0.78286   0.00000  Uiso   1.00
H782   H     0.44785   0.29363   0.88381   0.00000  Uiso   1.00
H783   H     0.43926   0.12300   0.70227   0.00000  Uiso   1.00
H784   H     0.56074   0.21033   0.96440   0.00000  Uiso   1.00
H785   H     0.43926   0.12303   0.94871   0.00000  Uiso   1.00
H786   H     0.56074   0.21031   0.71796   0.00000  Uiso   1.00
N787   N     0.50001   0.16668   0.95069   0.00000  Uiso   1.00
N788   N     0.49999   0.16666   0.71597   0.00000  Uiso   1.00
O789   O     0.50000   0.10655   0.87291   0.00000  Uiso   1.00
O790   O     0.50000   0.22678   0.79375   0.00000  Uiso   1.00
O791   O     0.50000   0.10654   0.79372   0.00000  Uiso   1.00
O792   O     0.50000   0.22679   0.87294   0.00000  Uiso   1.00
O793   O     0.42495   0.16667   0.86379   0.00000  Uiso   1.00
O794   O     0.57505   0.16666   0.80288   0.00000  Uiso   1.00
O795   O     0.42494   0.16666   0.78460   0.00000  Uiso   1.00
O796   O     0.57506   0.16667   0.88207   0.00000  Uiso   1.00
O797   O     0.56713   0.29501   0.77903   0.00000  Uiso   1.00
H798   H     0.57778   0.26785   0.79278   0.00000  Uiso   1.00
O799   O     0.43287   0.03832   0.88764   0.00000  Uiso   1.00
H800   H     0.42222   0.06549   0.87389   0.00000  Uiso   1.00
C801   C     0.83179   0.08745   0.83306   0.00000  Uiso   1.00
C802   C     0.83488   0.24588   0.83360   0.00000  Uiso   1.00
C803   C     0.73459   0.16666   0.82124   0.00000  Uiso   1.00
C804   C     0.93208   0.16667   0.84543   0.00000  Uiso   1.00
C805   C     0.67930   0.16670   0.81459   0.00000  Uiso   1.00
C806   C     0.98737   0.16664   0.85208   0.00000  Uiso   1.00
C807   C     0.86206   0.02233   0.80437   0.00000  Uiso   1.00
C808   C     0.80461   0.31100   0.86229   0.00000  Uiso   1.00
C809   C     0.86605   0.31302   0.80536   0.00000  Uiso   1.00
C810   C     0.80062   0.02031   0.86131   0.00000  Uiso   1.00
C811   C     0.83612   0.29052   0.83405   0.00000  Uiso   1.00
C812   C     0.83054   0.04282   0.83261   0.00000  Uiso   1.00
C813   C     0.79959   0.14246   0.68710   0.00000  Uiso   1.00
C814   C     0.86708   0.19088   0.97957   0.00000  Uiso   1.00
C815   C     0.79959   0.14247   0.97085   0.00000  Uiso   1.00
C816   C     0.86707   0.19087   0.69582   0.00000  Uiso   1.00
Cu817  Cu    0.83333   0.16667   0.88022   0.00000  Uiso   1.00
Cu818  Cu    0.83333   0.16666   0.78645   0.00000  Uiso   1.00
H819   H     0.99264   0.16679   0.77863   0.00000  Uiso   1.00
H820   H     0.67403   0.16654   0.88804   0.00000  Uiso   1.00
H821   H     0.88548   0.03970   0.78286   0.00000  Uiso   1.00
H822   H     0.78119   0.29363   0.88381   0.00000  Uiso   1.00
H823   H     0.77259   0.12300   0.70227   0.00000  Uiso   1.00
H824   H     0.89407   0.21033   0.96440   0.00000  Uiso   1.00
H825   H     0.77259   0.12303   0.94871   0.00000  Uiso   1.00
H826   H     0.89407   0.21031   0.71796   0.00000  Uiso   1.00
N827   N     0.83335   0.16668   0.95069   0.00000  Uiso   1.00
N828   N     0.83332   0.16666   0.71597   0.00000  Uiso   1.00
O829   O     0.83333   0.10655   0.87291   0.00000  Uiso   1.00
O830   O     0.83334   0.22678   0.79375   0.00000  Uiso   1.00
O831   O     0.83333   0.10654   0.79372   0.00000  Uiso   1.00
O832   O     0.83334   0.22679   0.87294   0.00000  Uiso   1.00
O833   O     0.75828   0.16667   0.86379   0.00000  Uiso   1.00
O834   O     0.90839   0.16666   0.80288   0.00000  Uiso   1.00
O835   O     0.75828   0.16666   0.78460   0.00000  Uiso   1.00
O836   O     0.90839   0.16667   0.88207   0.00000  Uiso   1.00
O837   O     0.90046   0.29501   0.77903   0.00000  Uiso   1.00
H838   H     0.91112   0.26785   0.79278   0.00000  Uiso   1.00
O839   O     0.76620   0.03832   0.88764   0.00000  Uiso   1.00
H840   H     0.75555   0.06549   0.87389   0.00000  Uiso   1.00
C841   C     0.16512   0.42078   0.83306   0.00000  Uiso   1.00
C842   C     0.16821   0.57922   0.83360   0.00000  Uiso   1.00
C843   C     0.06792   0.49999   0.82124   0.00000  Uiso   1.00
C844   C     0.26541   0.50001   0.84543   0.00000  Uiso   1.00
C845   C     0.01263   0.50003   0.81459   0.00000  Uiso   1.00
C846   C     0.32070   0.49997   0.85208   0.00000  Uiso   1.00
C847   C     0.19539   0.35567   0.80437   0.00000  Uiso   1.00
C848   C     0.13794   0.64433   0.86229   0.00000  Uiso   1.00
C849   C     0.19938   0.64635   0.80536   0.00000  Uiso   1.00
C850   C     0.13395   0.35365   0.86131   0.00000  Uiso   1.00
C851   C     0.16946   0.62385   0.83405   0.00000  Uiso   1.00
C852   C     0.16388   0.37615   0.83261   0.00000  Uiso   1.00
C853   C     0.13292   0.47579   0.68710   0.00000  Uiso   1.00
C854   C     0.20041   0.52421   0.97957   0.00000  Uiso   1.00
C855   C     0.13293   0.47580   0.97085   0.00000  Uiso   1.00
C856   C     0.20041   0.52420   0.69582   0.00000  Uiso   1.00
Cu857  Cu    0.16667   0.50001   0.88022   0.00000  Uiso   1.00
Cu858  Cu    0.16667   0.49999   0.78645   0.00000  Uiso   1.00
H859   H     0.32597   0.50013   0.77863   0.00000  Uiso   1.00
H860   H     0.00736   0.49987   0.88804   0.00000  Uiso   1.00
H861   H     0.21881   0.37303   0.78286   0.00000  Uiso   1.00
H862   H     0.11452   0.62697   0.88381   0.00000  Uiso   1.00
H863   H     0.10593   0.45633   0.70227   0.00000  Uiso   1.00
H864   H     0.22741   0.54367   0.96440   0.00000  Uiso   1.00
H865   H     0.10592   0.45636   0.94871   0.00000  Uiso   1.00
H866   H     0.22741   0.54364   0.71796   0.00000  Uiso   1.00
N867   N     0.16668   0.50001   0.95069   0.00000  Uiso   1.00
N868   N     0.16665   0.49999   0.71597   0.00000  Uiso   1.00
O869   O     0.16666   0.43989   0.87291   0.00000  Uiso   1.00
O870   O     0.16667   0.56011   0.79375   0.00000  Uiso   1.00
O871   O     0.16666   0.43988   0.79372   0.00000  Uiso   1.00
O872   O     0.16667   0.56012   0.87294   0.00000  Uiso   1.00
O873   O     0.09161   0.50000   0.86379   0.00000  Uiso   1.00
O874   O     0.24172   0.50000   0.80288   0.00000  Uiso   1.00
O875   O     0.09161   0.49999   0.78460   0.00000  Uiso   1.00
O876   O     0.24172   0.50001   0.88207   0.00000  Uiso   1.00
O877   O     0.23379   0.62834   0.77903   0.00000  Uiso   1.00
H878   H     0.24445   0.60118   0.79278   0.00000  Uiso   1.00
O879   O     0.09954   0.37166   0.88764   0.00000  Uiso   1.00
H880   H     0.08888   0.39882   0.87389   0.00000  Uiso   1.00
C881   C     0.49846   0.42078   0.83306   0.00000  Uiso   1.00
C882   C     0.50154   0.57922   0.83360   0.00000  Uiso   1.00
C883   C     0.40125   0.49999   0.82124   0.00000  Uiso   1.00
C884   C     0.59875   0.50001   0.84543   0.00000  Uiso   1.00
C885   C     0.34597   0.50003   0.81459   0.00000  Uiso   1.00
C886   C     0.65403   0.49997   0.85208   0.00000  Uiso   1.00
C887   C     0.52873   0.35567   0.80437   0.00000  Uiso   1.00
C888   C     0.47127   0.64433   0.86229   0.00000  Uiso   1.00
C889   C     0.53272   0.64635   0.80536   0.00000  Uiso   1.00
C890   C     0.46728   0.35365   0.86131   0.00000  Uiso   1.00
C891   C     0.50279   0.62385   0.83405   0.00000  Uiso   1.00
C892   C     0.49721   0.37615   0.83261   0.00000  Uiso   1.00
C893   C     0.46625   0.47579   0.68710   0.00000  Uiso   1.00
C894   C     0.53375   0.52421   0.97957   0.00000  Uiso   1.00
C895   C     0.46626   0.47580   0.97085   0.00000  Uiso   1.00
C896   C     0.53374   0.52420   0.69582   0.00000  Uiso   1.00
Cu897  Cu    0.50000   0.50001   0.88022   0.00000  Uiso   1.00
Cu898  Cu    0.50000   0.49999   0.78645   0.00000  Uiso   1.00
H899   H     0.65931   0.50013   0.77863   0.00000  Uiso   1.00
H900   H     0.34069   0.49987   0.88804   0.00000  Uiso   1.00
H901   H     0.55215   0.37303   0.78286   0.00000  Uiso   1.00
H902   H     0.44785   0.62697   0.88381   0.00000  Uiso   1.00
H903   H     0.43926   0.45633   0.70227   0.00000  Uiso   1.00
H904   H     0.56074   0.54367   0.96440   0.00000  Uiso   1.00
H905   H     0.43926   0.45636   0.94871   0.00000  Uiso   1.00
H906   H     0.56074   0.54364   0.71796   0.00000  Uiso   1.00
N907   N     0.50001   0.50001   0.95069   0.00000  Uiso   1.00
N908   N     0.49999   0.49999   0.71597   0.00000  Uiso   1.00
O909   O     0.50000   0.43989   0.87291   0.00000  Uiso   1.00
O910   O     0.50000   0.56011   0.79375   0.00000  Uiso   1.00
O911   O     0.50000   0.43988   0.79372   0.00000  Uiso   1.00
O912   O     0.50000   0.56012   0.87294   0.00000  Uiso   1.00
O913   O     0.42495   0.50000   0.86379   0.00000  Uiso   1.00
O914   O     0.57505   0.50000   0.80288   0.00000  Uiso   1.00
O915   O     0.42494   0.49999   0.78460   0.00000  Uiso   1.00
O916   O     0.57506   0.50001   0.88207   0.00000  Uiso   1.00
O917   O     0.56713   0.62834   0.77903   0.00000  Uiso   1.00
H918   H     0.57778   0.60118   0.79278   0.00000  Uiso   1.00
O919   O     0.43287   0.37166   0.88764   0.00000  Uiso   1.00
H920   H     0.42222   0.39882   0.87389   0.00000  Uiso   1.00
C921   C     0.83179   0.42078   0.83306   0.00000  Uiso   1.00
C922   C     0.83488   0.57922   0.83360   0.00000  Uiso   1.00
C923   C     0.73459   0.49999   0.82124   0.00000  Uiso   1.00
C924   C     0.93208   0.50001   0.84543   0.00000  Uiso   1.00
C925   C     0.67930   0.50003   0.81459   0.00000  Uiso   1.00
C926   C     0.98737   0.49997   0.85208   0.00000  Uiso   1.00
C927   C     0.86206   0.35567   0.80437   0.00000  Uiso   1.00
C928   C     0.80461   0.64433   0.86229   0.00000  Uiso   1.00
C929   C     0.86605   0.64635   0.80536   0.00000  Uiso   1.00
C930   C     0.80062   0.35365   0.86131   0.00000  Uiso   1.00
C931   C     0.83612   0.62385   0.83405   0.00000  Uiso   1.00
C932   C     0.83054   0.37615   0.83261   0.00000  Uiso   1.00
C933   C     0.79959   0.47579   0.68710   0.00000  Uiso   1.00
C934   C     0.86708   0.52421   0.97957   0.00000  Uiso   1.00
C935   C     0.79959   0.47580   0.97085   0.00000  Uiso   1.00
C936   C     0.86707   0.52420   0.69582   0.00000  Uiso   1.00
Cu937  Cu    0.83333   0.50001   0.88022   0.00000  Uiso   1.00
Cu938  Cu    0.83333   0.49999   0.78645   0.00000  Uiso   1.00
H939   H     0.99264   0.50013   0.77863   0.00000  Uiso   1.00
H940   H     0.67403   0.49987   0.88804   0.00000  Uiso   1.00
H941   H     0.88548   0.37303   0.78286   0.00000  Uiso   1.00
H942   H     0.78119   0.62697   0.88381   0.00000  Uiso   1.00
H943   H     0.77259   0.45633   0.70227   0.00000  Uiso   1.00
H944   H     0.89407   0.54367   0.96440   0.00000  Uiso   1.00
H945   H     0.77259   0.45636   0.94871   0.00000  Uiso   1.00
H946   H     0.89407   0.54364   0.71796   0.00000  Uiso   1.00
N947   N     0.83335   0.50001   0.95069   0.00000  Uiso   1.00
N948   N     0.83332   0.49999   0.71597   0.00000  Uiso   1.00
O949   O     0.83333   0.43989   0.87291   0.00000  Uiso   1.00
O950   O     0.83334   0.56011   0.79375   0.00000  Uiso   1.00
O951   O     0.83333   0.43988   0.79372   0.00000  Uiso   1.00
O952   O     0.83334   0.56012   0.87294   0.00000  Uiso   1.00
O953   O     0.75828   0.50000   0.86379   0.00000  Uiso   1.00
O954   O     0.90839   0.50000   0.80288   0.00000  Uiso   1.00
O955   O     0.75828   0.49999   0.78460   0.00000  Uiso   1.00
O956   O     0.90839   0.50001   0.88207   0.00000  Uiso   1.00
O957   O     0.90046   0.62834   0.77903   0.00000  Uiso   1.00
H958   H     0.91112   0.60118   0.79278   0.00000  Uiso   1.00
O959   O     0.76620   0.37166   0.88764   0.00000  Uiso   1.00
H960   H     0.75555   0.39882   0.87389   0.00000  Uiso   1.00
C961   C     0.16512   0.75412   0.83306   0.00000  Uiso   1.00
C962   C     0.16821   0.91255   0.83360   0.00000  Uiso   1.00
C963   C     0.06792   0.83333   0.82124   0.00000  Uiso   1.00
C964   C     0.26541   0.83334   0.84543   0.00000  Uiso   1.00
C965   C     0.01263   0.83336   0.81459   0.00000  Uiso   1.00
C966   C     0.32070   0.83330   0.85208   0.00000  Uiso   1.00
C967   C     0.19539   0.68900   0.80437   0.00000  Uiso   1.00
C968   C     0.13794   0.97767   0.86229   0.00000  Uiso   1.00
C969   C     0.19938   0.97969   0.80536   0.00000  Uiso   1.00
C970   C     0.13395   0.68698   0.86131   0.00000  Uiso   1.00
C971   C     0.16946   0.95718   0.83405   0.00000  Uiso   1.00
C972   C     0.16388   0.70948   0.83261   0.00000  Uiso   1.00
C973   C     0.13292   0.80912   0.68710   0.00000  Uiso   1.00
C974   C     0.20041   0.85755   0.97957   0.00000  Uiso   1.00
C975   C     0.13293   0.80913   0.97085   0.00000  Uiso   1.00
C976   C     0.20041   0.85753   0.69582   0.00000  Uiso   1.00
Cu977  Cu    0.16667   0.83334   0.88022   0.00000  Uiso   1.00
Cu978  Cu    0.16667   0.83333   0.78645   0.00000  Uiso   1.00
H979   H     0.32597   0.83346   0.77863   0.00000  Uiso   1.00
H980   H     0.00736   0.83321   0.88804   0.00000  Uiso   1.00
H981   H     0.21881   0.70637   0.78286   0.00000  Uiso   1.00
H982   H     0.11452   0.96030   0.88381   0.00000  Uiso   1.00
H983   H     0.10593   0.78967   0.70227   0.00000  Uiso   1.00
H984   H     0.22741   0.87700   0.96440   0.00000  Uiso   1.00
H985   H     0.10592   0.78969   0.94871   0.00000  Uiso   1.00
H986   H     0.22741   0.87697   0.71796   0.00000  Uiso   1.00
N987   N     0.16668   0.83334   0.95069   0.00000  Uiso   1.00
N988   N     0.16665   0.83332   0.71597   0.00000  Uiso   1.00
O989   O     0.16666   0.77322   0.87291   0.00000  Uiso   1.00
O990   O     0.16667   0.89345   0.79375   0.00000  Uiso   1.00
O991   O     0.16666   0.77321   0.79372   0.00000  Uiso   1.00
O992   O     0.16667   0.89346   0.87294   0.00000  Uiso   1.00
O993   O     0.09161   0.83334   0.86379   0.00000  Uiso   1.00
O994   O     0.24172   0.83333   0.80288   0.00000  Uiso   1.00
O995   O     0.09161   0.83333   0.78460   0.00000  Uiso   1.00
O996   O     0.24172   0.83334   0.88207   0.00000  Uiso   1.00
O997   O     0.23379   0.96168   0.77903   0.00000  Uiso   1.00
H998   H     0.24445   0.93451   0.79278   0.00000  Uiso   1.00
O999   O     0.09954   0.70499   0.88764   0.00000  Uiso   1.00
H1000  H     0.08888   0.73215   0.87389   0.00000  Uiso   1.00
C1001  C     0.49846   0.75412   0.83306   0.00000  Uiso   1.00
C1002  C     0.50154   0.91255   0.83360   0.00000  Uiso   1.00
C1003  C     0.40125   0.83333   0.82124   0.00000  Uiso   1.00
C1004  C     0.59875   0.83334   0.84543   0.00000  Uiso   1.00
C1005  C     0.34597   0.83336   0.81459   0.00000  Uiso   1.00
C1006  C     0.65403   0.83330   0.85208   0.00000  Uiso   1.00
C1007  C     0.52873   0.68900   0.80437   0.00000  Uiso   1.00
C1008  C     0.47127   0.97767   0.86229   0.00000  Uiso   1.00
C1009  C     0.53272   0.97969   0.80536   0.00000  Uiso   1.00
C1010  C     0.46728   0.68698   0.86131   0.00000  Uiso   1.00
C1011  C     0.50279   0.95718   0.83405   0.00000  Uiso   1.00
C1012  C     0.49721   0.70948   0.83261   0.00000  Uiso   1.00
C1013  C     0.46625   0.80912   0.68710   0.00000  Uiso   1.00
C1014  C     0.53375   0.85755   0.97957   0.00000  Uiso   1.00
C1015  C     0.46626   0.80913   0.97085   0.00000  Uiso   1.00
C1016  C     0.53374   0.85753   0.69582   0.00000  Uiso   1.00
Cu1017 Cu    0.50000   0.83334   0.88022   0.00000  Uiso   1.00
Cu1018 Cu    0.50000   0.83333   0.78645   0.00000  Uiso   1.00
H1019  H     0.65931   0.83346   0.77863   0.00000  Uiso   1.00
H1020  H     0.34069   0.83321   0.88804   0.00000  Uiso   1.00
H1021  H     0.55215   0.70637   0.78286   0.00000  Uiso   1.00
H1022  H     0.44785   0.96030   0.88381   0.00000  Uiso   1.00
H1023  H     0.43926   0.78967   0.70227   0.00000  Uiso   1.00
H1024  H     0.56074   0.87700   0.96440   0.00000  Uiso   1.00
H1025  H     0.43926   0.78969   0.94871   0.00000  Uiso   1.00
H1026  H     0.56074   0.87697   0.71796   0.00000  Uiso   1.00
N1027  N     0.50001   0.83334   0.95069   0.00000  Uiso   1.00
N1028  N     0.49999   0.83332   0.71597   0.00000  Uiso   1.00
O1029  O     0.50000   0.77322   0.87291   0.00000  Uiso   1.00
O1030  O     0.50000   0.89345   0.79375   0.00000  Uiso   1.00
O1031  O     0.50000   0.77321   0.79372   0.00000  Uiso   1.00
O1032  O     0.50000   0.89346   0.87294   0.00000  Uiso   1.00
O1033  O     0.42495   0.83334   0.86379   0.00000  Uiso   1.00
O1034  O     0.57505   0.83333   0.80288   0.00000  Uiso   1.00
O1035  O     0.42494   0.83333   0.78460   0.00000  Uiso   1.00
O1036  O     0.57506   0.83334   0.88207   0.00000  Uiso   1.00
O1037  O     0.56713   0.96168   0.77903   0.00000  Uiso   1.00
H1038  H     0.57778   0.93451   0.79278   0.00000  Uiso   1.00
O1039  O     0.43287   0.70499   0.88764   0.00000  Uiso   1.00
H1040  H     0.42222   0.73215   0.87389   0.00000  Uiso   1.00
C1041  C     0.83179   0.75412   0.83306   0.00000  Uiso   1.00
C1042  C     0.83488   0.91255   0.83360   0.00000  Uiso   1.00
C1043  C     0.73459   0.83333   0.82124   0.00000  Uiso   1.00
C1044  C     0.93208   0.83334   0.84543   0.00000  Uiso   1.00
C1045  C     0.67930   0.83336   0.81459   0.00000  Uiso   1.00
C1046  C     0.98737   0.83330   0.85208   0.00000  Uiso   1.00
C1047  C     0.86206   0.68900   0.80437   0.00000  Uiso   1.00
C1048  C     0.80461   0.97767   0.86229   0.00000  Uiso   1.00
C1049  C     0.86605   0.97969   0.80536   0.00000  Uiso   1.00
C1050  C     0.80062   0.68698   0.86131   0.00000  Uiso   1.00
C1051  C     0.83612   0.95718   0.83405   0.00000  Uiso   1.00
C1052  C     0.83054   0.70948   0.83261   0.00000  Uiso   1.00
C1053  C     0.79959   0.80912   0.68710   0.00000  Uiso   1.00
C1054  C     0.86708   0.85755   0.97957   0.00000  Uiso   1.00
C1055  C     0.79959   0.80913   0.97085   0.00000  Uiso   1.00
C1056  C     0.86707   0.85753   0.69582   0.00000  Uiso   1.00
Cu1057 Cu    0.83333   0.83334   0.88022   0.00000  Uiso   1.00
Cu1058 Cu    0.83333   0.83333   0.78645   0.00000  Uiso   1.00
H1059  H     0.99264   0.83346   0.77863   0.00000  Uiso   1.00
H1060  H     0.67403   0.83321   0.88804   0.00000  Uiso   1.00
H1061  H     0.88548   0.70637   0.78286   0.00000  Uiso   1.00
H1062  H     0.78119   0.96030   0.88381   0.00000  Uiso   1.00
H1063  H     0.77259   0.78967   0.70227   0.00000  Uiso   1.00
H1064  H     0.89407   0.87700   0.96440   0.00000  Uiso   1.00
H1065  H     0.77259   0.78969   0.94871   0.00000  Uiso   1.00
H1066  H     0.89407   0.87697   0.71796   0.00000  Uiso   1.00
N1067  N     0.83335   0.83334   0.95069   0.00000  Uiso   1.00
N1068  N     0.83332   0.83332   0.71597   0.00000  Uiso   1.00
O1069  O     0.83333   0.77322   0.87291   0.00000  Uiso   1.00
O1070  O     0.83334   0.89345   0.79375   0.00000  Uiso   1.00
O1071  O     0.83333   0.77321   0.79372   0.00000  Uiso   1.00
O1072  O     0.83334   0.89346   0.87294   0.00000  Uiso   1.00
O1073  O     0.75828   0.83334   0.86379   0.00000  Uiso   1.00
O1074  O     0.90839   0.83333   0.80288   0.00000  Uiso   1.00
O1075  O     0.75828   0.83333   0.78460   0.00000  Uiso   1.00
O1076  O     0.90839   0.83334   0.88207   0.00000  Uiso   1.00
O1077  O     0.90046   0.96168   0.77903   0.00000  Uiso   1.00
H1078  H     0.91112   0.93451   0.79278   0.00000  Uiso   1.00
O1079  O     0.76620   0.70499   0.88764   0.00000  Uiso   1.00
H1080  H     0.75555   0.73215   0.87389   0.00000  Uiso   1.00
loop_
_geom_bond_atom_site_label_1
_geom_bond_atom_site_label_2
_geom_bond_distance
_geom_bond_site_symmetry_2
_ccdc_geom_bond_type
C1     O29     1.291   .     A
C1     C12     1.446   .     S
C1     O31     1.290   .     A
C2     O30     1.291   .     A
C2     C11     1.446   .     S
C2     O32     1.290   .     A
C3     O35     1.289   .     A
C3     O33     1.287   .     A
C3     C5      1.435   .     S
C4     O36     1.289   .     A
C4     O34     1.287   .     A
C4     C6      1.435   .     S
C5     C86     1.335   1_455 S
C5     H99     1.087   1_455 S
C6     C45     1.335   .     S
C6     H60     1.087   .     S
C7     C12     1.399   .     A
C7     H21     1.085   .     S
C7     C249    1.386   1_545 S
C8     H22     1.085   .     S
C8     C11     1.399   .     A
C8     C130    1.386   .     S
C9     C11     1.414   .     A
C9     O37     1.381   .     S
C9     C127    1.386   .     S
C10    C12     1.414   .     A
C10    O39     1.381   .     S
C10    C248    1.386   1_545 S
C13    N28     1.367   .     A
C13    H23     1.082   .     S
C13    C735    1.418   1_554 S
C14    N27     1.367   .     A
C14    H24     1.082   .     S
C14    C376    1.418   .     S
C15    N27     1.367   .     A
C15    H25     1.082   .     S
C15    C373    1.418   .     S
C16    N28     1.367   .     A
C16    H26     1.082   .     S
C16    C734    1.418   1_554 S
Cu17   O36     1.960   .     S
Cu17   Cu18    2.681   .     S
Cu17   O33     1.958   .     S
Cu17   N27     2.015   .     S
Cu17   O29     1.958   .     S
Cu17   O32     1.959   .     S
Cu18   O35     1.960   .     S
Cu18   N28     2.015   .     S
Cu18   O30     1.958   .     S
Cu18   O34     1.958   .     S
Cu18   O31     1.959   .     S
H19    C45     1.087   .     S
H20    C86     1.087   1_455 S
O37    H38     0.989   .     S
O39    H40     0.990   .     S
C41    O69     1.291   .     A
C41    C52     1.446   .     S
C41    O71     1.290   .     A
C42    O70     1.291   .     A
C42    C51     1.446   .     S
C42    O72     1.290   .     A
C43    O75     1.289   .     A
C43    O73     1.287   .     A
C43    C45     1.435   .     S
C44    O76     1.289   .     A
C44    O74     1.287   .     A
C44    C46     1.435   .     S
C46    C85     1.335   .     S
C46    H100    1.087   .     S
C47    C52     1.399   .     A
C47    H61     1.085   .     S
C47    C289    1.386   1_545 S
C48    H62     1.085   .     S
C48    C51     1.399   .     A
C48    C170    1.386   .     S
C49    C51     1.414   .     A
C49    O77     1.381   .     S
C49    C167    1.386   .     S
C50    C52     1.414   .     A
C50    O79     1.381   .     S
C50    C288    1.386   1_545 S
C53    N68     1.367   .     A
C53    H63     1.082   .     S
C53    C775    1.418   1_554 S
C54    N67     1.367   .     A
C54    H64     1.082   .     S
C54    C416    1.418   .     S
C55    N67     1.367   .     A
C55    H65     1.082   .     S
C55    C413    1.418   .     S
C56    N68     1.367   .     A
C56    H66     1.082   .     S
C56    C774    1.418   1_554 S
Cu57   O76     1.960   .     S
Cu57   Cu58    2.681   .     S
Cu57   O73     1.958   .     S
Cu57   N67     2.015   .     S
Cu57   O69     1.958   .     S
Cu57   O72     1.959   .     S
Cu58   O75     1.960   .     S
Cu58   N68     2.015   .     S
Cu58   O70     1.958   .     S
Cu58   O74     1.958   .     S
Cu58   O71     1.959   .     S
H59    C85     1.087   .     S
O77    H78     0.989   .     S
O79    H80     0.990   .     S
C81    O109    1.291   .     A
C81    C92     1.446   .     S
C81    O111    1.290   .     A
C82    O110    1.291   .     A
C82    C91     1.446   .     S
C82    O112    1.290   .     A
C83    O115    1.289   .     A
C83    O113    1.287   .     A
C83    C85     1.435   .     S
C84    O116    1.289   .     A
C84    O114    1.287   .     A
C84    C86     1.435   .     S
C86    C5      1.335   1_655 S
C86    H20     1.087   1_655 S
C87    C92     1.399   .     A
C87    H101    1.085   .     S
C87    C329    1.386   1_545 S
C88    H102    1.085   .     S
C88    C91     1.399   .     A
C88    C210    1.386   .     S
C89    C91     1.414   .     A
C89    O117    1.381   .     S
C89    C207    1.386   .     S
C90    C92     1.414   .     A
C90    O119    1.381   .     S
C90    C328    1.386   1_545 S
C93    N108    1.367   .     A
C93    H103    1.082   .     S
C93    C815    1.418   1_554 S
C94    N107    1.367   .     A
C94    H104    1.082   .     S
C94    C456    1.418   .     S
C95    N107    1.367   .     A
C95    H105    1.082   .     S
C95    C453    1.418   .     S
C96    N108    1.367   .     A
C96    H106    1.082   .     S
C96    C814    1.418   1_554 S
Cu97   O116    1.960   .     S
Cu97   Cu98    2.681   .     S
Cu97   O113    1.958   .     S
Cu97   N107    2.015   .     S
Cu97   O109    1.958   .     S
Cu97   O112    1.959   .     S
Cu98   O115    1.960   .     S
Cu98   N108    2.015   .     S
Cu98   O110    1.958   .     S
Cu98   O114    1.958   .     S
Cu98   O111    1.959   .     S
H99    C5      1.087   1_655 S
O117   H118    0.989   .     S
O119   H120    0.990   .     S
C121   O149    1.291   .     A
C121   C132    1.446   .     S
C121   O151    1.290   .     A
C122   O150    1.291   .     A
C122   C131    1.446   .     S
C122   O152    1.290   .     A
C123   O155    1.289   .     A
C123   O153    1.287   .     A
C123   C125    1.435   .     S
C124   O156    1.289   .     A
C124   O154    1.287   .     A
C124   C126    1.435   .     S
C125   C206    1.335   1_455 S
C125   H219    1.087   1_455 S
C126   C165    1.335   .     S
C126   H180    1.087   .     S
C127   C132    1.399   .     A
C127   H141    1.085   .     S
C128   H142    1.085   .     S
C128   C131    1.399   .     A
C128   C250    1.386   .     S
C129   C131    1.414   .     A
C129   O157    1.381   .     S
C129   C247    1.386   .     S
C130   C132    1.414   .     A
C130   O159    1.381   .     S
C133   N148    1.367   .     A
C133   H143    1.082   .     S
C133   C855    1.418   1_554 S
C134   N147    1.367   .     A
C134   H144    1.082   .     S
C134   C496    1.418   .     S
C135   N147    1.367   .     A
C135   H145    1.082   .     S
C135   C493    1.418   .     S
C136   N148    1.367   .     A
C136   H146    1.082   .     S
C136   C854    1.418   1_554 S
Cu137  O156    1.960   .     S
Cu137  Cu138   2.681   .     S
Cu137  O153    1.958   .     S
Cu137  N147    2.015   .     S
Cu137  O149    1.958   .     S
Cu137  O152    1.959   .     S
Cu138  O155    1.960   .     S
Cu138  N148    2.015   .     S
Cu138  O150    1.958   .     S
Cu138  O154    1.958   .     S
Cu138  O151    1.959   .     S
H139   C165    1.087   .     S
H140   C206    1.087   1_455 S
O157   H158    0.989   .     S
O159   H160    0.990   .     S
C161   O189    1.291   .     A
C161   C172    1.446   .     S
C161   O191    1.290   .     A
C162   O190    1.291   .     A
C162   C171    1.446   .     S
C162   O192    1.290   .     A
C163   O195    1.289   .     A
C163   O193    1.287   .     A
C163   C165    1.435   .     S
C164   O196    1.289   .     A
C164   O194    1.287   .     A
C164   C166    1.435   .     S
C166   C205    1.335   .     S
C166   H220    1.087   .     S
C167   C172    1.399   .     A
C167   H181    1.085   .     S
C168   H182    1.085   .     S
C168   C171    1.399   .     A
C168   C290    1.386   .     S
C169   C171    1.414   .     A
C169   O197    1.381   .     S
C169   C287    1.386   .     S
C170   C172    1.414   .     A
C170   O199    1.381   .     S
C173   N188    1.367   .     A
C173   H183    1.082   .     S
C173   C895    1.418   1_554 S
C174   N187    1.367   .     A
C174   H184    1.082   .     S
C174   C536    1.418   .     S
C175   N187    1.367   .     A
C175   H185    1.082   .     S
C175   C533    1.418   .     S
C176   N188    1.367   .     A
C176   H186    1.082   .     S
C176   C894    1.418   1_554 S
Cu177  O196    1.960   .     S
Cu177  Cu178   2.681   .     S
Cu177  O193    1.958   .     S
Cu177  N187    2.015   .     S
Cu177  O189    1.958   .     S
Cu177  O192    1.959   .     S
Cu178  O195    1.960   .     S
Cu178  N188    2.015   .     S
Cu178  O190    1.958   .     S
Cu178  O194    1.958   .     S
Cu178  O191    1.959   .     S
H179   C205    1.087   .     S
O197   H198    0.989   .     S
O199   H200    0.990   .     S
C201   O229    1.291   .     A
C201   C212    1.446   .     S
C201   O231    1.290   .     A
C202   O230    1.291   .     A
C202   C211    1.446   .     S
C202   O232    1.290   .     A
C203   O235    1.289   .     A
C203   O233    1.287   .     A
C203   C205    1.435   .     S
C204   O236    1.289   .     A
C204   O234    1.287   .     A
C204   C206    1.435   .     S
C206   C125    1.335   1_655 S
C206   H140    1.087   1_655 S
C207   C212    1.399   .     A
C207   H221    1.085   .     S
C208   H222    1.085   .     S
C208   C211    1.399   .     A
C208   C330    1.386   .     S
C209   C211    1.414   .     A
C209   O237    1.381   .     S
C209   C327    1.386   .     S
C210   C212    1.414   .     A
C210   O239    1.381   .     S
C213   N228    1.367   .     A
C213   H223    1.082   .     S
C213   C935    1.418   1_554 S
C214   N227    1.367   .     A
C214   H224    1.082   .     S
C214   C576    1.418   .     S
C215   N227    1.367   .     A
C215   H225    1.082   .     S
C215   C573    1.418   .     S
C216   N228    1.367   .     A
C216   H226    1.082   .     S
C216   C934    1.418   1_554 S
Cu217  O236    1.960   .     S
Cu217  Cu218   2.681   .     S
Cu217  O233    1.958   .     S
Cu217  N227    2.015   .     S
Cu217  O229    1.958   .     S
Cu217  O232    1.959   .     S
Cu218  O235    1.960   .     S
Cu218  N228    2.015   .     S
Cu218  O230    1.958   .     S
Cu218  O234    1.958   .     S
Cu218  O231    1.959   .     S
H219   C125    1.087   1_655 S
O237   H238    0.989   .     S
O239   H240    0.990   .     S
C241   O269    1.291   .     A
C241   C252    1.446   .     S
C241   O271    1.290   .     A
C242   O270    1.291   .     A
C242   C251    1.446   .     S
C242   O272    1.290   .     A
C243   O275    1.289   .     A
C243   O273    1.287   .     A
C243   C245    1.435   .     S
C244   O276    1.289   .     A
C244   O274    1.287   .     A
C244   C246    1.435   .     S
C245   C326    1.335   1_455 S
C245   H339    1.087   1_455 S
C246   C285    1.335   .     S
C246   H300    1.087   .     S
C247   C252    1.399   .     A
C247   H261    1.085   .     S
C248   H262    1.085   .     S
C248   C251    1.399   .     A
C248   C10     1.386   1_565 S
C249   C251    1.414   .     A
C249   O277    1.381   .     S
C249   C7      1.386   1_565 S
C250   C252    1.414   .     A
C250   O279    1.381   .     S
C253   N268    1.367   .     A
C253   H263    1.082   .     S
C253   C975    1.418   1_554 S
C254   N267    1.367   .     A
C254   H264    1.082   .     S
C254   C616    1.418   .     S
C255   N267    1.367   .     A
C255   H265    1.082   .     S
C255   C613    1.418   .     S
C256   N268    1.367   .     A
C256   H266    1.082   .     S
C256   C974    1.418   1_554 S
Cu257  O276    1.960   .     S
Cu257  Cu258   2.681   .     S
Cu257  O273    1.958   .     S
Cu257  N267    2.015   .     S
Cu257  O269    1.958   .     S
Cu257  O272    1.959   .     S
Cu258  O275    1.960   .     S
Cu258  N268    2.015   .     S
Cu258  O270    1.958   .     S
Cu258  O274    1.958   .     S
Cu258  O271    1.959   .     S
H259   C285    1.087   .     S
H260   C326    1.087   1_455 S
O277   H278    0.989   .     S
O279   H280    0.990   .     S
C281   O309    1.291   .     A
C281   C292    1.446   .     S
C281   O311    1.290   .     A
C282   O310    1.291   .     A
C282   C291    1.446   .     S
C282   O312    1.290   .     A
C283   O315    1.289   .     A
C283   O313    1.287   .     A
C283   C285    1.435   .     S
C284   O316    1.289   .     A
C284   O314    1.287   .     A
C284   C286    1.435   .     S
C286   C325    1.335   .     S
C286   H340    1.087   .     S
C287   C292    1.399   .     A
C287   H301    1.085   .     S
C288   H302    1.085   .     S
C288   C291    1.399   .     A
C288   C50     1.386   1_565 S
C289   C291    1.414   .     A
C289   O317    1.381   .     S
C289   C47     1.386   1_565 S
C290   C292    1.414   .     A
C290   O319    1.381   .     S
C293   N308    1.367   .     A
C293   H303    1.082   .     S
C293   C1015   1.418   1_554 S
C294   N307    1.367   .     A
C294   H304    1.082   .     S
C294   C656    1.418   .     S
C295   N307    1.367   .     A
C295   H305    1.082   .     S
C295   C653    1.418   .     S
C296   N308    1.367   .     A
C296   H306    1.082   .     S
C296   C1014   1.418   1_554 S
Cu297  O316    1.960   .     S
Cu297  Cu298   2.681   .     S
Cu297  O313    1.958   .     S
Cu297  N307    2.015   .     S
Cu297  O309    1.958   .     S
Cu297  O312    1.959   .     S
Cu298  O315    1.960   .     S
Cu298  N308    2.015   .     S
Cu298  O310    1.958   .     S
Cu298  O314    1.958   .     S
Cu298  O311    1.959   .     S
H299   C325    1.087   .     S
O317   H318    0.989   .     S
O319   H320    0.990   .     S
C321   O349    1.291   .     A
C321   C332    1.446   .     S
C321   O351    1.290   .     A
C322   O350    1.291   .     A
C322   C331    1.446   .     S
C322   O352    1.290   .     A
C323   O355    1.289   .     A
C323   O353    1.287   .     A
C323   C325    1.435   .     S
C324   O356    1.289   .     A
C324   O354    1.287   .     A
C324   C326    1.435   .     S
C326   C245    1.335   1_655 S
C326   H260    1.087   1_655 S
C327   C332    1.399   .     A
C327   H341    1.085   .     S
C328   H342    1.085   .     S
C328   C331    1.399   .     A
C328   C90     1.386   1_565 S
C329   C331    1.414   .     A
C329   O357    1.381   .     S
C329   C87     1.386   1_565 S
C330   C332    1.414   .     A
C330   O359    1.381   .     S
C333   N348    1.367   .     A
C333   H343    1.082   .     S
C333   C1055   1.418   1_554 S
C334   N347    1.367   .     A
C334   H344    1.082   .     S
C334   C696    1.418   .     S
C335   N347    1.367   .     A
C335   H345    1.082   .     S
C335   C693    1.418   .     S
C336   N348    1.367   .     A
C336   H346    1.082   .     S
C336   C1054   1.418   1_554 S
Cu337  O356    1.960   .     S
Cu337  Cu338   2.681   .     S
Cu337  O353    1.958   .     S
Cu337  N347    2.015   .     S
Cu337  O349    1.958   .     S
Cu337  O352    1.959   .     S
Cu338  O355    1.960   .     S
Cu338  N348    2.015   .     S
Cu338  O350    1.958   .     S
Cu338  O354    1.958   .     S
Cu338  O351    1.959   .     S
H339   C245    1.087   1_655 S
O357   H358    0.989   .     S
O359   H360    0.990   .     S
C361   O389    1.291   .     A
C361   C372    1.446   .     S
C361   O391    1.290   .     A
C362   O390    1.291   .     A
C362   C371    1.446   .     S
C362   O392    1.290   .     A
C363   O395    1.289   .     A
C363   O393    1.287   .     A
C363   C365    1.435   .     S
C364   O396    1.289   .     A
C364   O394    1.287   .     A
C364   C366    1.435   .     S
C365   C446    1.335   1_455 S
C365   H459    1.087   1_455 S
C366   C405    1.335   .     S
C366   H420    1.087   .     S
C367   C372    1.399   .     A
C367   H381    1.085   .     S
C367   C609    1.386   1_545 S
C368   H382    1.085   .     S
C368   C371    1.399   .     A
C368   C490    1.386   .     S
C369   C371    1.414   .     A
C369   O397    1.381   .     S
C369   C487    1.386   .     S
C370   C372    1.414   .     A
C370   O399    1.381   .     S
C370   C608    1.386   1_545 S
C373   N388    1.367   .     A
C373   H383    1.082   .     S
C374   N387    1.367   .     A
C374   H384    1.082   .     S
C374   C736    1.418   .     S
C375   N387    1.367   .     A
C375   H385    1.082   .     S
C375   C733    1.418   .     S
C376   N388    1.367   .     A
C376   H386    1.082   .     S
Cu377  O396    1.960   .     S
Cu377  Cu378   2.681   .     S
Cu377  O393    1.958   .     S
Cu377  N387    2.015   .     S
Cu377  O389    1.958   .     S
Cu377  O392    1.959   .     S
Cu378  O395    1.960   .     S
Cu378  N388    2.015   .     S
Cu378  O390    1.958   .     S
Cu378  O394    1.958   .     S
Cu378  O391    1.959   .     S
H379   C405    1.087   .     S
H380   C446    1.087   1_455 S
O397   H398    0.989   .     S
O399   H400    0.990   .     S
C401   O429    1.291   .     A
C401   C412    1.446   .     S
C401   O431    1.290   .     A
C402   O430    1.291   .     A
C402   C411    1.446   .     S
C402   O432    1.290   .     A
C403   O435    1.289   .     A
C403   O433    1.287   .     A
C403   C405    1.435   .     S
C404   O436    1.289   .     A
C404   O434    1.287   .     A
C404   C406    1.435   .     S
C406   C445    1.335   .     S
C406   H460    1.087   .     S
C407   C412    1.399   .     A
C407   H421    1.085   .     S
C407   C649    1.386   1_545 S
C408   H422    1.085   .     S
C408   C411    1.399   .     A
C408   C530    1.386   .     S
C409   C411    1.414   .     A
C409   O437    1.381   .     S
C409   C527    1.386   .     S
C410   C412    1.414   .     A
C410   O439    1.381   .     S
C410   C648    1.386   1_545 S
C413   N428    1.367   .     A
C413   H423    1.082   .     S
C414   N427    1.367   .     A
C414   H424    1.082   .     S
C414   C776    1.418   .     S
C415   N427    1.367   .     A
C415   H425    1.082   .     S
C415   C773    1.418   .     S
C416   N428    1.367   .     A
C416   H426    1.082   .     S
Cu417  O436    1.960   .     S
Cu417  Cu418   2.681   .     S
Cu417  O433    1.958   .     S
Cu417  N427    2.015   .     S
Cu417  O429    1.958   .     S
Cu417  O432    1.959   .     S
Cu418  O435    1.960   .     S
Cu418  N428    2.015   .     S
Cu418  O430    1.958   .     S
Cu418  O434    1.958   .     S
Cu418  O431    1.959   .     S
H419   C445    1.087   .     S
O437   H438    0.989   .     S
O439   H440    0.990   .     S
C441   O469    1.291   .     A
C441   C452    1.446   .     S
C441   O471    1.290   .     A
C442   O470    1.291   .     A
C442   C451    1.446   .     S
C442   O472    1.290   .     A
C443   O475    1.289   .     A
C443   O473    1.287   .     A
C443   C445    1.435   .     S
C444   O476    1.289   .     A
C444   O474    1.287   .     A
C444   C446    1.435   .     S
C446   C365    1.335   1_655 S
C446   H380    1.087   1_655 S
C447   C452    1.399   .     A
C447   H461    1.085   .     S
C447   C689    1.386   1_545 S
C448   H462    1.085   .     S
C448   C451    1.399   .     A
C448   C570    1.386   .     S
C449   C451    1.414   .     A
C449   O477    1.381   .     S
C449   C567    1.386   .     S
C450   C452    1.414   .     A
C450   O479    1.381   .     S
C450   C688    1.386   1_545 S
C453   N468    1.367   .     A
C453   H463    1.082   .     S
C454   N467    1.367   .     A
C454   H464    1.082   .     S
C454   C816    1.418   .     S
C455   N467    1.367   .     A
C455   H465    1.082   .     S
C455   C813    1.418   .     S
C456   N468    1.367   .     A
C456   H466    1.082   .     S
Cu457  O476    1.960   .     S
Cu457  Cu458   2.681   .     S
Cu457  O473    1.958   .     S
Cu457  N467    2.015   .     S
Cu457  O469    1.958   .     S
Cu457  O472    1.959   .     S
Cu458  O475    1.960   .     S
Cu458  N468    2.015   .     S
Cu458  O470    1.958   .     S
Cu458  O474    1.958   .     S
Cu458  O471    1.959   .     S
H459   C365    1.087   1_655 S
O477   H478    0.989   .     S
O479   H480    0.990   .     S
C481   O509    1.291   .     A
C481   C492    1.446   .     S
C481   O511    1.290   .     A
C482   O510    1.291   .     A
C482   C491    1.446   .     S
C482   O512    1.290   .     A
C483   O515    1.289   .     A
C483   O513    1.287   .     A
C483   C485    1.435   .     S
C484   O516    1.289   .     A
C484   O514    1.287   .     A
C484   C486    1.435   .     S
C485   C566    1.335   1_455 S
C485   H579    1.087   1_455 S
C486   C525    1.335   .     S
C486   H540    1.087   .     S
C487   C492    1.399   .     A
C487   H501    1.085   .     S
C488   H502    1.085   .     S
C488   C491    1.399   .     A
C488   C610    1.386   .     S
C489   C491    1.414   .     A
C489   O517    1.381   .     S
C489   C607    1.386   .     S
C490   C492    1.414   .     A
C490   O519    1.381   .     S
C493   N508    1.367   .     A
C493   H503    1.082   .     S
C494   N507    1.367   .     A
C494   H504    1.082   .     S
C494   C856    1.418   .     S
C495   N507    1.367   .     A
C495   H505    1.082   .     S
C495   C853    1.418   .     S
C496   N508    1.367   .     A
C496   H506    1.082   .     S
Cu497  O516    1.960   .     S
Cu497  Cu498   2.681   .     S
Cu497  O513    1.958   .     S
Cu497  N507    2.015   .     S
Cu497  O509    1.958   .     S
Cu497  O512    1.959   .     S
Cu498  O515    1.960   .     S
Cu498  N508    2.015   .     S
Cu498  O510    1.958   .     S
Cu498  O514    1.958   .     S
Cu498  O511    1.959   .     S
H499   C525    1.087   .     S
H500   C566    1.087   1_455 S
O517   H518    0.989   .     S
O519   H520    0.990   .     S
C521   O549    1.291   .     A
C521   C532    1.446   .     S
C521   O551    1.290   .     A
C522   O550    1.291   .     A
C522   C531    1.446   .     S
C522   O552    1.290   .     A
C523   O555    1.289   .     A
C523   O553    1.287   .     A
C523   C525    1.435   .     S
C524   O556    1.289   .     A
C524   O554    1.287   .     A
C524   C526    1.435   .     S
C526   C565    1.335   .     S
C526   H580    1.087   .     S
C527   C532    1.399   .     A
C527   H541    1.085   .     S
C528   H542    1.085   .     S
C528   C531    1.399   .     A
C528   C650    1.386   .     S
C529   C531    1.414   .     A
C529   O557    1.381   .     S
C529   C647    1.386   .     S
C530   C532    1.414   .     A
C530   O559    1.381   .     S
C533   N548    1.367   .     A
C533   H543    1.082   .     S
C534   N547    1.367   .     A
C534   H544    1.082   .     S
C534   C896    1.418   .     S
C535   N547    1.367   .     A
C535   H545    1.082   .     S
C535   C893    1.418   .     S
C536   N548    1.367   .     A
C536   H546    1.082   .     S
Cu537  O556    1.960   .     S
Cu537  Cu538   2.681   .     S
Cu537  O553    1.958   .     S
Cu537  N547    2.015   .     S
Cu537  O549    1.958   .     S
Cu537  O552    1.959   .     S
Cu538  O555    1.960   .     S
Cu538  N548    2.015   .     S
Cu538  O550    1.958   .     S
Cu538  O554    1.958   .     S
Cu538  O551    1.959   .     S
H539   C565    1.087   .     S
O557   H558    0.989   .     S
O559   H560    0.990   .     S
C561   O589    1.291   .     A
C561   C572    1.446   .     S
C561   O591    1.290   .     A
C562   O590    1.291   .     A
C562   C571    1.446   .     S
C562   O592    1.290   .     A
C563   O595    1.289   .     A
C563   O593    1.287   .     A
C563   C565    1.435   .     S
C564   O596    1.289   .     A
C564   O594    1.287   .     A
C564   C566    1.435   .     S
C566   C485    1.335   1_655 S
C566   H500    1.087   1_655 S
C567   C572    1.399   .     A
C567   H581    1.085   .     S
C568   H582    1.085   .     S
C568   C571    1.399   .     A
C568   C690    1.386   .     S
C569   C571    1.414   .     A
C569   O597    1.381   .     S
C569   C687    1.386   .     S
C570   C572    1.414   .     A
C570   O599    1.381   .     S
C573   N588    1.367   .     A
C573   H583    1.082   .     S
C574   N587    1.367   .     A
C574   H584    1.082   .     S
C574   C936    1.418   .     S
C575   N587    1.367   .     A
C575   H585    1.082   .     S
C575   C933    1.418   .     S
C576   N588    1.367   .     A
C576   H586    1.082   .     S
Cu577  O596    1.960   .     S
Cu577  Cu578   2.681   .     S
Cu577  O593    1.958   .     S
Cu577  N587    2.015   .     S
Cu577  O589    1.958   .     S
Cu577  O592    1.959   .     S
Cu578  O595    1.960   .     S
Cu578  N588    2.015   .     S
Cu578  O590    1.958   .     S
Cu578  O594    1.958   .     S
Cu578  O591    1.959   .     S
H579   C485    1.087   1_655 S
O597   H598    0.989   .     S
O599   H600    0.990   .     S
C601   O629    1.291   .     A
C601   C612    1.446   .     S
C601   O631    1.290   .     A
C602   O630    1.291   .     A
C602   C611    1.446   .     S
C602   O632    1.290   .     A
C603   O635    1.289   .     A
C603   O633    1.287   .     A
C603   C605    1.435   .     S
C604   O636    1.289   .     A
C604   O634    1.287   .     A
C604   C606    1.435   .     S
C605   C686    1.335   1_455 S
C605   H699    1.087   1_455 S
C606   C645    1.335   .     S
C606   H660    1.087   .     S
C607   C612    1.399   .     A
C607   H621    1.085   .     S
C608   H622    1.085   .     S
C608   C611    1.399   .     A
C608   C370    1.386   1_565 S
C609   C611    1.414   .     A
C609   O637    1.381   .     S
C609   C367    1.386   1_565 S
C610   C612    1.414   .     A
C610   O639    1.381   .     S
C613   N628    1.367   .     A
C613   H623    1.082   .     S
C614   N627    1.367   .     A
C614   H624    1.082   .     S
C614   C976    1.418   .     S
C615   N627    1.367   .     A
C615   H625    1.082   .     S
C615   C973    1.418   .     S
C616   N628    1.367   .     A
C616   H626    1.082   .     S
Cu617  O636    1.960   .     S
Cu617  Cu618   2.681   .     S
Cu617  O633    1.958   .     S
Cu617  N627    2.015   .     S
Cu617  O629    1.958   .     S
Cu617  O632    1.959   .     S
Cu618  O635    1.960   .     S
Cu618  N628    2.015   .     S
Cu618  O630    1.958   .     S
Cu618  O634    1.958   .     S
Cu618  O631    1.959   .     S
H619   C645    1.087   .     S
H620   C686    1.087   1_455 S
O637   H638    0.989   .     S
O639   H640    0.990   .     S
C641   O669    1.291   .     A
C641   C652    1.446   .     S
C641   O671    1.290   .     A
C642   O670    1.291   .     A
C642   C651    1.446   .     S
C642   O672    1.290   .     A
C643   O675    1.289   .     A
C643   O673    1.287   .     A
C643   C645    1.435   .     S
C644   O676    1.289   .     A
C644   O674    1.287   .     A
C644   C646    1.435   .     S
C646   C685    1.335   .     S
C646   H700    1.087   .     S
C647   C652    1.399   .     A
C647   H661    1.085   .     S
C648   H662    1.085   .     S
C648   C651    1.399   .     A
C648   C410    1.386   1_565 S
C649   C651    1.414   .     A
C649   O677    1.381   .     S
C649   C407    1.386   1_565 S
C650   C652    1.414   .     A
C650   O679    1.381   .     S
C653   N668    1.367   .     A
C653   H663    1.082   .     S
C654   N667    1.367   .     A
C654   H664    1.082   .     S
C654   C1016   1.418   .     S
C655   N667    1.367   .     A
C655   H665    1.082   .     S
C655   C1013   1.418   .     S
C656   N668    1.367   .     A
C656   H666    1.082   .     S
Cu657  O676    1.960   .     S
Cu657  Cu658   2.681   .     S
Cu657  O673    1.958   .     S
Cu657  N667    2.015   .     S
Cu657  O669    1.958   .     S
Cu657  O672    1.959   .     S
Cu658  O675    1.960   .     S
Cu658  N668    2.015   .     S
Cu658  O670    1.958   .     S
Cu658  O674    1.958   .     S
Cu658  O671    1.959   .     S
H659   C685    1.087   .     S
O677   H678    0.989   .     S
O679   H680    0.990   .     S
C681   O709    1.291   .     A
C681   C692    1.446   .     S
C681   O711    1.290   .     A
C682   O710    1.291   .     A
C682   C691    1.446   .     S
C682   O712    1.290   .     A
C683   O715    1.289   .     A
C683   O713    1.287   .     A
C683   C685    1.435   .     S
C684   O716    1.289   .     A
C684   O714    1.287   .     A
C684   C686    1.435   .     S
C686   C605    1.335   1_655 S
C686   H620    1.087   1_655 S
C687   C692    1.399   .     A
C687   H701    1.085   .     S
C688   H702    1.085   .     S
C688   C691    1.399   .     A
C688   C450    1.386   1_565 S
C689   C691    1.414   .     A
C689   O717    1.381   .     S
C689   C447    1.386   1_565 S
C690   C692    1.414   .     A
C690   O719    1.381   .     S
C693   N708    1.367   .     A
C693   H703    1.082   .     S
C694   N707    1.367   .     A
C694   H704    1.082   .     S
C694   C1056   1.418   .     S
C695   N707    1.367   .     A
C695   H705    1.082   .     S
C695   C1053   1.418   .     S
C696   N708    1.367   .     A
C696   H706    1.082   .     S
Cu697  O716    1.960   .     S
Cu697  Cu698   2.681   .     S
Cu697  O713    1.958   .     S
Cu697  N707    2.015   .     S
Cu697  O709    1.958   .     S
Cu697  O712    1.959   .     S
Cu698  O715    1.960   .     S
Cu698  N708    2.015   .     S
Cu698  O710    1.958   .     S
Cu698  O714    1.958   .     S
Cu698  O711    1.959   .     S
H699   C605    1.087   1_655 S
O717   H718    0.989   .     S
O719   H720    0.990   .     S
C721   O749    1.291   .     A
C721   C732    1.446   .     S
C721   O751    1.290   .     A
C722   O750    1.291   .     A
C722   C731    1.446   .     S
C722   O752    1.290   .     A
C723   O755    1.289   .     A
C723   O753    1.287   .     A
C723   C725    1.435   .     S
C724   O756    1.289   .     A
C724   O754    1.287   .     A
C724   C726    1.435   .     S
C725   C806    1.335   1_455 S
C725   H819    1.087   1_455 S
C726   C765    1.335   .     S
C726   H780    1.087   .     S
C727   C732    1.399   .     A
C727   H741    1.085   .     S
C727   C969    1.386   1_545 S
C728   H742    1.085   .     S
C728   C731    1.399   .     A
C728   C850    1.386   .     S
C729   C731    1.414   .     A
C729   O757    1.381   .     S
C729   C847    1.386   .     S
C730   C732    1.414   .     A
C730   O759    1.381   .     S
C730   C968    1.386   1_545 S
C733   N748    1.367   .     A
C733   H743    1.082   .     S
C734   N747    1.367   .     A
C734   H744    1.082   .     S
C734   C16     1.418   1_556 S
C735   N747    1.367   .     A
C735   H745    1.082   .     S
C735   C13     1.418   1_556 S
C736   N748    1.367   .     A
C736   H746    1.082   .     S
Cu737  O756    1.960   .     S
Cu737  Cu738   2.681   .     S
Cu737  O753    1.958   .     S
Cu737  N747    2.015   .     S
Cu737  O749    1.958   .     S
Cu737  O752    1.959   .     S
Cu738  O755    1.960   .     S
Cu738  N748    2.015   .     S
Cu738  O750    1.958   .     S
Cu738  O754    1.958   .     S
Cu738  O751    1.959   .     S
H739   C765    1.087   .     S
H740   C806    1.087   1_455 S
O757   H758    0.989   .     S
O759   H760    0.990   .     S
C761   O789    1.291   .     A
C761   C772    1.446   .     S
C761   O791    1.290   .     A
C762   O790    1.291   .     A
C762   C771    1.446   .     S
C762   O792    1.290   .     A
C763   O795    1.289   .     A
C763   O793    1.287   .     A
C763   C765    1.435   .     S
C764   O796    1.289   .     A
C764   O794    1.287   .     A
C764   C766    1.435   .     S
C766   C805    1.335   .     S
C766   H820    1.087   .     S
C767   C772    1.399   .     A
C767   H781    1.085   .     S
C767   C1009   1.386   1_545 S
C768   H782    1.085   .     S
C768   C771    1.399   .     A
C768   C890    1.386   .     S
C769   C771    1.414   .     A
C769   O797    1.381   .     S
C769   C887    1.386   .     S
C770   C772    1.414   .     A
C770   O799    1.381   .     S
C770   C1008   1.386   1_545 S
C773   N788    1.367   .     A
C773   H783    1.082   .     S
C774   N787    1.367   .     A
C774   H784    1.082   .     S
C774   C56     1.418   1_556 S
C775   N787    1.367   .     A
C775   H785    1.082   .     S
C775   C53     1.418   1_556 S
C776   N788    1.367   .     A
C776   H786    1.082   .     S
Cu777  O796    1.960   .     S
Cu777  Cu778   2.681   .     S
Cu777  O793    1.958   .     S
Cu777  N787    2.015   .     S
Cu777  O789    1.958   .     S
Cu777  O792    1.959   .     S
Cu778  O795    1.960   .     S
Cu778  N788    2.015   .     S
Cu778  O790    1.958   .     S
Cu778  O794    1.958   .     S
Cu778  O791    1.959   .     S
H779   C805    1.087   .     S
O797   H798    0.989   .     S
O799   H800    0.990   .     S
C801   O829    1.291   .     A
C801   C812    1.446   .     S
C801   O831    1.290   .     A
C802   O830    1.291   .     A
C802   C811    1.446   .     S
C802   O832    1.290   .     A
C803   O835    1.289   .     A
C803   O833    1.287   .     A
C803   C805    1.435   .     S
C804   O836    1.289   .     A
C804   O834    1.287   .     A
C804   C806    1.435   .     S
C806   C725    1.335   1_655 S
C806   H740    1.087   1_655 S
C807   C812    1.399   .     A
C807   H821    1.085   .     S
C807   C1049   1.386   1_545 S
C808   H822    1.085   .     S
C808   C811    1.399   .     A
C808   C930    1.386   .     S
C809   C811    1.414   .     A
C809   O837    1.381   .     S
C809   C927    1.386   .     S
C810   C812    1.414   .     A
C810   O839    1.381   .     S
C810   C1048   1.386   1_545 S
C813   N828    1.367   .     A
C813   H823    1.082   .     S
C814   N827    1.367   .     A
C814   H824    1.082   .     S
C814   C96     1.418   1_556 S
C815   N827    1.367   .     A
C815   H825    1.082   .     S
C815   C93     1.418   1_556 S
C816   N828    1.367   .     A
C816   H826    1.082   .     S
Cu817  O836    1.960   .     S
Cu817  Cu818   2.681   .     S
Cu817  O833    1.958   .     S
Cu817  N827    2.015   .     S
Cu817  O829    1.958   .     S
Cu817  O832    1.959   .     S
Cu818  O835    1.960   .     S
Cu818  N828    2.015   .     S
Cu818  O830    1.958   .     S
Cu818  O834    1.958   .     S
Cu818  O831    1.959   .     S
H819   C725    1.087   1_655 S
O837   H838    0.989   .     S
O839   H840    0.990   .     S
C841   O869    1.291   .     A
C841   C852    1.446   .     S
C841   O871    1.290   .     A
C842   O870    1.291   .     A
C842   C851    1.446   .     S
C842   O872    1.290   .     A
C843   O875    1.289   .     A
C843   O873    1.287   .     A
C843   C845    1.435   .     S
C844   O876    1.289   .     A
C844   O874    1.287   .     A
C844   C846    1.435   .     S
C845   C926    1.335   1_455 S
C845   H939    1.087   1_455 S
C846   C885    1.335   .     S
C846   H900    1.087   .     S
C847   C852    1.399   .     A
C847   H861    1.085   .     S
C848   H862    1.085   .     S
C848   C851    1.399   .     A
C848   C970    1.386   .     S
C849   C851    1.414   .     A
C849   O877    1.381   .     S
C849   C967    1.386   .     S
C850   C852    1.414   .     A
C850   O879    1.381   .     S
C853   N868    1.367   .     A
C853   H863    1.082   .     S
C854   N867    1.367   .     A
C854   H864    1.082   .     S
C854   C136    1.418   1_556 S
C855   N867    1.367   .     A
C855   H865    1.082   .     S
C855   C133    1.418   1_556 S
C856   N868    1.367   .     A
C856   H866    1.082   .     S
Cu857  O876    1.960   .     S
Cu857  Cu858   2.681   .     S
Cu857  O873    1.958   .     S
Cu857  N867    2.015   .     S
Cu857  O869    1.958   .     S
Cu857  O872    1.959   .     S
Cu858  O875    1.960   .     S
Cu858  N868    2.015   .     S
Cu858  O870    1.958   .     S
Cu858  O874    1.958   .     S
Cu858  O871    1.959   .     S
H859   C885    1.087   .     S
H860   C926    1.087   1_455 S
O877   H878    0.989   .     S
O879   H880    0.990   .     S
C881   O909    1.291   .     A
C881   C892    1.446   .     S
C881   O911    1.290   .     A
C882   O910    1.291   .     A
C882   C891    1.446   .     S
C882   O912    1.290   .     A
C883   O915    1.289   .     A
C883   O913    1.287   .     A
C883   C885    1.435   .     S
C884   O916    1.289   .     A
C884   O914    1.287   .     A
C884   C886    1.435   .     S
C886   C925    1.335   .     S
C886   H940    1.087   .     S
C887   C892    1.399   .     A
C887   H901    1.085   .     S
C888   H902    1.085   .     S
C888   C891    1.399   .     A
C888   C1010   1.386   .     S
C889   C891    1.414   .     A
C889   O917    1.381   .     S
C889   C1007   1.386   .     S
C890   C892    1.414   .     A
C890   O919    1.381   .     S
C893   N908    1.367   .     A
C893   H903    1.082   .     S
C894   N907    1.367   .     A
C894   H904    1.082   .     S
C894   C176    1.418   1_556 S
C895   N907    1.367   .     A
C895   H905    1.082   .     S
C895   C173    1.418   1_556 S
C896   N908    1.367   .     A
C896   H906    1.082   .     S
Cu897  O916    1.960   .     S
Cu897  Cu898   2.681   .     S
Cu897  O913    1.958   .     S
Cu897  N907    2.015   .     S
Cu897  O909    1.958   .     S
Cu897  O912    1.959   .     S
Cu898  O915    1.960   .     S
Cu898  N908    2.015   .     S
Cu898  O910    1.958   .     S
Cu898  O914    1.958   .     S
Cu898  O911    1.959   .     S
H899   C925    1.087   .     S
O917   H918    0.989   .     S
O919   H920    0.990   .     S
C921   O949    1.291   .     A
C921   C932    1.446   .     S
C921   O951    1.290   .     A
C922   O950    1.291   .     A
C922   C931    1.446   .     S
C922   O952    1.290   .     A
C923   O955    1.289   .     A
C923   O953    1.287   .     A
C923   C925    1.435   .     S
C924   O956    1.289   .     A
C924   O954    1.287   .     A
C924   C926    1.435   .     S
C926   C845    1.335   1_655 S
C926   H860    1.087   1_655 S
C927   C932    1.399   .     A
C927   H941    1.085   .     S
C928   H942    1.085   .     S
C928   C931    1.399   .     A
C928   C1050   1.386   .     S
C929   C931    1.414   .     A
C929   O957    1.381   .     S
C929   C1047   1.386   .     S
C930   C932    1.414   .     A
C930   O959    1.381   .     S
C933   N948    1.367   .     A
C933   H943    1.082   .     S
C934   N947    1.367   .     A
C934   H944    1.082   .     S
C934   C216    1.418   1_556 S
C935   N947    1.367   .     A
C935   H945    1.082   .     S
C935   C213    1.418   1_556 S
C936   N948    1.367   .     A
C936   H946    1.082   .     S
Cu937  O956    1.960   .     S
Cu937  Cu938   2.681   .     S
Cu937  O953    1.958   .     S
Cu937  N947    2.015   .     S
Cu937  O949    1.958   .     S
Cu937  O952    1.959   .     S
Cu938  O955    1.960   .     S
Cu938  N948    2.015   .     S
Cu938  O950    1.958   .     S
Cu938  O954    1.958   .     S
Cu938  O951    1.959   .     S
H939   C845    1.087   1_655 S
O957   H958    0.989   .     S
O959   H960    0.990   .     S
C961   O989    1.291   .     A
C961   C972    1.446   .     S
C961   O991    1.290   .     A
C962   O990    1.291   .     A
C962   C971    1.446   .     S
C962   O992    1.290   .     A
C963   O995    1.289   .     A
C963   O993    1.287   .     A
C963   C965    1.435   .     S
C964   O996    1.289   .     A
C964   O994    1.287   .     A
C964   C966    1.435   .     S
C965   C1046   1.335   1_455 S
C965   H1059   1.087   1_455 S
C966   C1005   1.335   .     S
C966   H1020   1.087   .     S
C967   C972    1.399   .     A
C967   H981    1.085   .     S
C968   H982    1.085   .     S
C968   C971    1.399   .     A
C968   C730    1.386   1_565 S
C969   C971    1.414   .     A
C969   O997    1.381   .     S
C969   C727    1.386   1_565 S
C970   C972    1.414   .     A
C970   O999    1.381   .     S
C973   N988    1.367   .     A
C973   H983    1.082   .     S
C974   N987    1.367   .     A
C974   H984    1.082   .     S
C974   C256    1.418   1_556 S
C975   N987    1.367   .     A
C975   H985    1.082   .     S
C975   C253    1.418   1_556 S
C976   N988    1.367   .     A
C976   H986    1.082   .     S
Cu977  O996    1.960   .     S
Cu977  Cu978   2.681   .     S
Cu977  O993    1.958   .     S
Cu977  N987    2.015   .     S
Cu977  O989    1.958   .     S
Cu977  O992    1.959   .     S
Cu978  O995    1.960   .     S
Cu978  N988    2.015   .     S
Cu978  O990    1.958   .     S
Cu978  O994    1.958   .     S
Cu978  O991    1.959   .     S
H979   C1005   1.087   .     S
H980   C1046   1.087   1_455 S
O997   H998    0.989   .     S
O999   H1000   0.990   .     S
C1001  O1029   1.291   .     A
C1001  C1012   1.446   .     S
C1001  O1031   1.290   .     A
C1002  O1030   1.291   .     A
C1002  C1011   1.446   .     S
C1002  O1032   1.290   .     A
C1003  O1035   1.289   .     A
C1003  O1033   1.287   .     A
C1003  C1005   1.435   .     S
C1004  O1036   1.289   .     A
C1004  O1034   1.287   .     A
C1004  C1006   1.435   .     S
C1006  C1045   1.335   .     S
C1006  H1060   1.087   .     S
C1007  C1012   1.399   .     A
C1007  H1021   1.085   .     S
C1008  H1022   1.085   .     S
C1008  C1011   1.399   .     A
C1008  C770    1.386   1_565 S
C1009  C1011   1.414   .     A
C1009  O1037   1.381   .     S
C1009  C767    1.386   1_565 S
C1010  C1012   1.414   .     A
C1010  O1039   1.381   .     S
C1013  N1028   1.367   .     A
C1013  H1023   1.082   .     S
C1014  N1027   1.367   .     A
C1014  H1024   1.082   .     S
C1014  C296    1.418   1_556 S
C1015  N1027   1.367   .     A
C1015  H1025   1.082   .     S
C1015  C293    1.418   1_556 S
C1016  N1028   1.367   .     A
C1016  H1026   1.082   .     S
Cu1017 O1036   1.960   .     S
Cu1017 Cu1018  2.681   .     S
Cu1017 O1033   1.958   .     S
Cu1017 N1027   2.015   .     S
Cu1017 O1029   1.958   .     S
Cu1017 O1032   1.959   .     S
Cu1018 O1035   1.960   .     S
Cu1018 N1028   2.015   .     S
Cu1018 O1030   1.958   .     S
Cu1018 O1034   1.958   .     S
Cu1018 O1031   1.959   .     S
H1019  C1045   1.087   .     S
O1037  H1038   0.989   .     S
O1039  H1040   0.990   .     S
C1041  O1069   1.291   .     A
C1041  C1052   1.446   .     S
C1041  O1071   1.290   .     A
C1042  O1070   1.291   .     A
C1042  C1051   1.446   .     S
C1042  O1072   1.290   .     A
C1043  O1075   1.289   .     A
C1043  O1073   1.287   .     A
C1043  C1045   1.435   .     S
C1044  O1076   1.289   .     A
C1044  O1074   1.287   .     A
C1044  C1046   1.435   .     S
C1046  C965    1.335   1_655 S
C1046  H980    1.087   1_655 S
C1047  C1052   1.399   .     A
C1047  H1061   1.085   .     S
C1048  H1062   1.085   .     S
C1048  C1051   1.399   .     A
C1048  C810    1.386   1_565 S
C1049  C1051   1.414   .     A
C1049  O1077   1.381   .     S
C1049  C807    1.386   1_565 S
C1050  C1052   1.414   .     A
C1050  O1079   1.381   .     S
C1053  N1068   1.367   .     A
C1053  H1063   1.082   .     S
C1054  N1067   1.367   .     A
C1054  H1064   1.082   .     S
C1054  C336    1.418   1_556 S
C1055  N1067   1.367   .     A
C1055  H1065   1.082   .     S
C1055  C333    1.418   1_556 S
C1056  N1068   1.367   .     A
C1056  H1066   1.082   .     S
Cu1057 O1076   1.960   .     S
Cu1057 Cu1058  2.681   .     S
Cu1057 O1073   1.958   .     S
Cu1057 N1067   2.015   .     S
Cu1057 O1069   1.958   .     S
Cu1057 O1072   1.959   .     S
Cu1058 O1075   1.960   .     S
Cu1058 N1068   2.015   .     S
Cu1058 O1070   1.958   .     S
Cu1058 O1074   1.958   .     S
Cu1058 O1071   1.959   .     S
H1059  C965    1.087   1_655 S
O1077  H1078   0.989   .     S
O1079  H1080   0.990   .     S
