data_str_m3_o10_o17_pcu_sym.43
_audit_creation_date              2020-01-03
_audit_creation_method            'Materials Studio'
_symmetry_space_group_name_H-M    'P1'
_symmetry_Int_Tables_number       1
_symmetry_cell_setting            triclinic
loop_
_symmetry_equiv_pos_as_xyz
  x,y,z
_cell_length_a                    23.7104
_cell_length_b                    25.7621
_cell_length_c                    29.6987
_cell_angle_alpha                 91.3564
_cell_angle_beta                  84.5497
_cell_angle_gamma                 93.9649
loop_
_atom_site_label
_atom_site_type_symbol
_atom_site_fract_x
_atom_site_fract_y
_atom_site_fract_z
_atom_site_U_iso_or_equiv
_atom_site_adp_type
_atom_site_occupancy
C1     C     0.18182   0.26465   0.24714   0.00000  Uiso   1.00
C2     C     0.17324   0.21764   0.40822   0.00000  Uiso   1.00
C3     C     0.16808   0.16151   0.11617   0.00000  Uiso   1.00
C4     C     0.16763   0.17018   0.38389   0.00000  Uiso   1.00
C5     C     0.17537   0.20917   0.09499   0.00000  Uiso   1.00
C6     C     0.16043   0.12235   0.40506   0.00000  Uiso   1.00
C7     C     0.17635   0.21093   0.04857   0.00000  Uiso   1.00
C8     C     0.15948   0.12031   0.45148   0.00000  Uiso   1.00
C9     C     0.16968   0.16443   0.02330   0.00000  Uiso   1.00
C10    C     0.16895   0.16666   0.47646   0.00000  Uiso   1.00
C11    C     0.16183   0.11594   0.04503   0.00000  Uiso   1.00
C12    C     0.15148   0.06857   0.25046   0.00000  Uiso   1.00
C13    C     0.17501   0.21544   0.45497   0.00000  Uiso   1.00
C14    C     0.18069   0.25878   0.02752   0.00000  Uiso   1.00
C15    C     0.14758   0.07291   0.47339   0.00000  Uiso   1.00
C16    C     0.21315   0.05070   0.12375   0.00000  Uiso   1.00
C17    C     0.25934   0.04884   0.08336   0.00000  Uiso   1.00
C18    C     0.31319   0.02717   0.09755   0.00000  Uiso   1.00
C19    C     0.20681   0.28495   0.35963   0.00000  Uiso   1.00
C20    C     0.24319   0.32720   0.38277   0.00000  Uiso   1.00
C21    C     0.27775   0.02949   0.34840   0.00000  Uiso   1.00
C22    C     0.00107   0.19314   0.17106   0.00000  Uiso   1.00
C23    C     0.18043   0.26121   0.48105   0.00000  Uiso   1.00
C24    C     0.31798   0.18165   0.12287   0.00000  Uiso   1.00
C25    C     0.03472   0.17093   0.08925   0.00000  Uiso   1.00
C26    C     0.01435   0.22507   0.32902   0.00000  Uiso   1.00
C27    C     0.00069   0.18168   0.36395   0.00000  Uiso   1.00
C28    C     0.01514   0.19950   0.41108   0.00000  Uiso   1.00
C29    C     0.14900   0.07065   0.01990   0.00000  Uiso   1.00
C30    C     0.18954   0.31929   0.24413   0.00000  Uiso   1.00
C31    C     0.14365   0.01385   0.24958   0.00000  Uiso   1.00
C32    C     0.16710   0.16903   0.33617   0.00000  Uiso   1.00
C33    C     0.16625   0.16289   0.16395   0.00000  Uiso   1.00
C34    C     0.16529   0.11410   0.09166   0.00000  Uiso   1.00
H35    H     0.17907   0.24494   0.11494   0.00000  Uiso   1.00
H36    H     0.22908   0.07498   0.15163   0.00000  Uiso   1.00
H37    H     0.24405   0.02446   0.05543   0.00000  Uiso   1.00
H38    H     0.27048   0.08812   0.06942   0.00000  Uiso   1.00
H39    H     0.33000   0.05138   0.12537   0.00000  Uiso   1.00
H40    H     0.01279   0.02749   0.06833   0.00000  Uiso   1.00
H41    H     0.30413   0.31982   0.10909   0.00000  Uiso   1.00
H42    H     0.18697   0.30349   0.33250   0.00000  Uiso   1.00
H43    H     0.23393   0.25523   0.34333   0.00000  Uiso   1.00
H44    H     0.21556   0.01842   0.40507   0.00000  Uiso   1.00
H45    H     0.27215   0.30871   0.40390   0.00000  Uiso   1.00
H46    H     0.15403   0.08684   0.38520   0.00000  Uiso   1.00
H47    H     0.30323   0.00673   0.32273   0.00000  Uiso   1.00
H48    H     0.30688   0.05667   0.36620   0.00000  Uiso   1.00
H49    H     0.24897   0.05273   0.33084   0.00000  Uiso   1.00
H50    H     0.04118   0.21807   0.16964   0.00000  Uiso   1.00
H51    H     0.30217   0.21798   0.18814   0.00000  Uiso   1.00
H52    H     0.28782   0.14730   0.12288   0.00000  Uiso   1.00
H53    H     0.29707   0.21539   0.11089   0.00000  Uiso   1.00
H54    H     0.06428   0.20610   0.08627   0.00000  Uiso   1.00
H55    H     0.01979   0.16160   0.05548   0.00000  Uiso   1.00
H56    H     0.05581   0.13710   0.10040   0.00000  Uiso   1.00
H57    H     0.18270   0.29405   0.04747   0.00000  Uiso   1.00
H58    H     0.33050   0.26088   0.34422   0.00000  Uiso   1.00
H59    H     0.05975   0.23671   0.32144   0.00000  Uiso   1.00
H60    H     0.28809   0.16993   0.36643   0.00000  Uiso   1.00
H61    H     0.02337   0.14662   0.35322   0.00000  Uiso   1.00
H62    H     0.05937   0.21632   0.40995   0.00000  Uiso   1.00
H63    H     0.01005   0.16584   0.43414   0.00000  Uiso   1.00
H64    H     0.31952   0.22933   0.42481   0.00000  Uiso   1.00
H65    H     0.13610   0.03789   0.45461   0.00000  Uiso   1.00
H66    H     0.18430   0.29894   0.46588   0.00000  Uiso   1.00
H67    H     0.13869   0.03376   0.03621   0.00000  Uiso   1.00
H68    H     0.23284   0.00310   0.23907   0.00000  Uiso   1.00
H69    H     0.10034   0.33004   0.25454   0.00000  Uiso   1.00
H70    H     0.20559   0.01081   0.13745   0.00000  Uiso   1.00
N71    N     0.31678   0.15265   0.23783   0.00000  Uiso   1.00
N72    N     0.01656   0.18068   0.26217   0.00000  Uiso   1.00
O73    O     0.12975   0.24619   0.25298   0.00000  Uiso   1.00
O74    O     0.16158   0.26440   0.38977   0.00000  Uiso   1.00
O75    O     0.00642   0.14628   0.19472   0.00000  Uiso   1.00
O76    O     0.32004   0.21334   0.28992   0.00000  Uiso   1.00
O77    O     0.20358   0.08714   0.24701   0.00000  Uiso   1.00
O78    O     0.22613   0.23721   0.24518   0.00000  Uiso   1.00
O79    O     0.10720   0.09613   0.25481   0.00000  Uiso   1.00
O80    O     0.11847   0.17117   0.31997   0.00000  Uiso   1.00
O81    O     0.21486   0.16216   0.18002   0.00000  Uiso   1.00
O82    O     0.21485   0.16219   0.31217   0.00000  Uiso   1.00
O83    O     0.11848   0.17115   0.18782   0.00000  Uiso   1.00
O84    O     0.15977   0.06629   0.11285   0.00000  Uiso   1.00
Zn85   Zn    0.10231   0.17266   0.25521   0.00000  Uiso   1.00
Zn86   Zn    0.23102   0.16067   0.24479   0.00000  Uiso   1.00
C87    C     0.51515   0.26465   0.24714   0.00000  Uiso   1.00
C88    C     0.50657   0.21764   0.40822   0.00000  Uiso   1.00
C89    C     0.50142   0.16151   0.11617   0.00000  Uiso   1.00
C90    C     0.50096   0.17018   0.38389   0.00000  Uiso   1.00
C91    C     0.50871   0.20917   0.09499   0.00000  Uiso   1.00
C92    C     0.49376   0.12235   0.40506   0.00000  Uiso   1.00
C93    C     0.50968   0.21093   0.04857   0.00000  Uiso   1.00
C94    C     0.49281   0.12031   0.45148   0.00000  Uiso   1.00
C95    C     0.50302   0.16443   0.02330   0.00000  Uiso   1.00
C96    C     0.50228   0.16666   0.47646   0.00000  Uiso   1.00
C97    C     0.49516   0.11594   0.04503   0.00000  Uiso   1.00
C98    C     0.48481   0.06857   0.25046   0.00000  Uiso   1.00
C99    C     0.50834   0.21544   0.45497   0.00000  Uiso   1.00
C100   C     0.51402   0.25878   0.02752   0.00000  Uiso   1.00
C101   C     0.48091   0.07291   0.47339   0.00000  Uiso   1.00
C102   C     0.54648   0.05070   0.12375   0.00000  Uiso   1.00
C103   C     0.59268   0.04884   0.08336   0.00000  Uiso   1.00
C104   C     0.64652   0.02717   0.09755   0.00000  Uiso   1.00
C105   C     0.54014   0.28495   0.35963   0.00000  Uiso   1.00
C106   C     0.57653   0.32720   0.38277   0.00000  Uiso   1.00
C107   C     0.61108   0.02949   0.34840   0.00000  Uiso   1.00
C108   C     0.33441   0.19314   0.17106   0.00000  Uiso   1.00
C109   C     0.51376   0.26121   0.48105   0.00000  Uiso   1.00
C110   C     0.65132   0.18165   0.12287   0.00000  Uiso   1.00
C111   C     0.36805   0.17093   0.08925   0.00000  Uiso   1.00
C112   C     0.34769   0.22507   0.32902   0.00000  Uiso   1.00
C113   C     0.33402   0.18168   0.36395   0.00000  Uiso   1.00
C114   C     0.34848   0.19950   0.41108   0.00000  Uiso   1.00
C115   C     0.48233   0.07065   0.01990   0.00000  Uiso   1.00
C116   C     0.52288   0.31929   0.24413   0.00000  Uiso   1.00
C117   C     0.47698   0.01385   0.24958   0.00000  Uiso   1.00
C118   C     0.50043   0.16903   0.33617   0.00000  Uiso   1.00
C119   C     0.49959   0.16289   0.16395   0.00000  Uiso   1.00
C120   C     0.49862   0.11410   0.09166   0.00000  Uiso   1.00
H121   H     0.51240   0.24494   0.11494   0.00000  Uiso   1.00
H122   H     0.56241   0.07498   0.15163   0.00000  Uiso   1.00
H123   H     0.57738   0.02446   0.05543   0.00000  Uiso   1.00
H124   H     0.60381   0.08812   0.06942   0.00000  Uiso   1.00
H125   H     0.66333   0.05138   0.12537   0.00000  Uiso   1.00
H126   H     0.34612   0.02749   0.06833   0.00000  Uiso   1.00
H127   H     0.63746   0.31982   0.10909   0.00000  Uiso   1.00
H128   H     0.52030   0.30349   0.33250   0.00000  Uiso   1.00
H129   H     0.56726   0.25523   0.34333   0.00000  Uiso   1.00
H130   H     0.54890   0.01842   0.40507   0.00000  Uiso   1.00
H131   H     0.60548   0.30871   0.40390   0.00000  Uiso   1.00
H132   H     0.48736   0.08684   0.38520   0.00000  Uiso   1.00
H133   H     0.63656   0.00673   0.32273   0.00000  Uiso   1.00
H134   H     0.64021   0.05667   0.36620   0.00000  Uiso   1.00
H135   H     0.58231   0.05273   0.33084   0.00000  Uiso   1.00
H136   H     0.37451   0.21807   0.16964   0.00000  Uiso   1.00
H137   H     0.63551   0.21798   0.18814   0.00000  Uiso   1.00
H138   H     0.62115   0.14730   0.12288   0.00000  Uiso   1.00
H139   H     0.63041   0.21539   0.11089   0.00000  Uiso   1.00
H140   H     0.39761   0.20610   0.08627   0.00000  Uiso   1.00
H141   H     0.35312   0.16160   0.05548   0.00000  Uiso   1.00
H142   H     0.38914   0.13710   0.10040   0.00000  Uiso   1.00
H143   H     0.51603   0.29405   0.04747   0.00000  Uiso   1.00
H144   H     0.66383   0.26088   0.34422   0.00000  Uiso   1.00
H145   H     0.39308   0.23671   0.32144   0.00000  Uiso   1.00
H146   H     0.62143   0.16993   0.36643   0.00000  Uiso   1.00
H147   H     0.35670   0.14662   0.35322   0.00000  Uiso   1.00
H148   H     0.39271   0.21632   0.40995   0.00000  Uiso   1.00
H149   H     0.34338   0.16584   0.43414   0.00000  Uiso   1.00
H150   H     0.65285   0.22933   0.42481   0.00000  Uiso   1.00
H151   H     0.46943   0.03789   0.45461   0.00000  Uiso   1.00
H152   H     0.51763   0.29894   0.46588   0.00000  Uiso   1.00
H153   H     0.47202   0.03376   0.03621   0.00000  Uiso   1.00
H154   H     0.56617   0.00310   0.23907   0.00000  Uiso   1.00
H155   H     0.43368   0.33004   0.25454   0.00000  Uiso   1.00
H156   H     0.53893   0.01081   0.13745   0.00000  Uiso   1.00
N157   N     0.65011   0.15265   0.23783   0.00000  Uiso   1.00
N158   N     0.34989   0.18068   0.26217   0.00000  Uiso   1.00
O159   O     0.46308   0.24619   0.25298   0.00000  Uiso   1.00
O160   O     0.49492   0.26440   0.38977   0.00000  Uiso   1.00
O161   O     0.33975   0.14628   0.19472   0.00000  Uiso   1.00
O162   O     0.65337   0.21334   0.28992   0.00000  Uiso   1.00
O163   O     0.53692   0.08714   0.24701   0.00000  Uiso   1.00
O164   O     0.55946   0.23721   0.24518   0.00000  Uiso   1.00
O165   O     0.44054   0.09613   0.25481   0.00000  Uiso   1.00
O166   O     0.45181   0.17117   0.31997   0.00000  Uiso   1.00
O167   O     0.54819   0.16216   0.18002   0.00000  Uiso   1.00
O168   O     0.54819   0.16219   0.31217   0.00000  Uiso   1.00
O169   O     0.45181   0.17115   0.18782   0.00000  Uiso   1.00
O170   O     0.49311   0.06629   0.11285   0.00000  Uiso   1.00
Zn171  Zn    0.43565   0.17266   0.25521   0.00000  Uiso   1.00
Zn172  Zn    0.56435   0.16067   0.24479   0.00000  Uiso   1.00
C173   C     0.84848   0.26465   0.24714   0.00000  Uiso   1.00
C174   C     0.83990   0.21764   0.40822   0.00000  Uiso   1.00
C175   C     0.83475   0.16151   0.11617   0.00000  Uiso   1.00
C176   C     0.83429   0.17018   0.38389   0.00000  Uiso   1.00
C177   C     0.84204   0.20917   0.09499   0.00000  Uiso   1.00
C178   C     0.82710   0.12235   0.40506   0.00000  Uiso   1.00
C179   C     0.84301   0.21093   0.04857   0.00000  Uiso   1.00
C180   C     0.82614   0.12031   0.45148   0.00000  Uiso   1.00
C181   C     0.83635   0.16443   0.02330   0.00000  Uiso   1.00
C182   C     0.83561   0.16666   0.47646   0.00000  Uiso   1.00
C183   C     0.82850   0.11594   0.04503   0.00000  Uiso   1.00
C184   C     0.81815   0.06857   0.25046   0.00000  Uiso   1.00
C185   C     0.84168   0.21544   0.45497   0.00000  Uiso   1.00
C186   C     0.84735   0.25878   0.02752   0.00000  Uiso   1.00
C187   C     0.81425   0.07291   0.47339   0.00000  Uiso   1.00
C188   C     0.87982   0.05070   0.12375   0.00000  Uiso   1.00
C189   C     0.92601   0.04884   0.08336   0.00000  Uiso   1.00
C190   C     0.97985   0.02717   0.09755   0.00000  Uiso   1.00
C191   C     0.87347   0.28495   0.35963   0.00000  Uiso   1.00
C192   C     0.90986   0.32720   0.38277   0.00000  Uiso   1.00
C193   C     0.94441   0.02949   0.34840   0.00000  Uiso   1.00
C194   C     0.66774   0.19314   0.17106   0.00000  Uiso   1.00
C195   C     0.84710   0.26121   0.48105   0.00000  Uiso   1.00
C196   C     0.98465   0.18165   0.12287   0.00000  Uiso   1.00
C197   C     0.70139   0.17093   0.08925   0.00000  Uiso   1.00
C198   C     0.68102   0.22507   0.32902   0.00000  Uiso   1.00
C199   C     0.66736   0.18168   0.36395   0.00000  Uiso   1.00
C200   C     0.68181   0.19950   0.41108   0.00000  Uiso   1.00
C201   C     0.81566   0.07065   0.01990   0.00000  Uiso   1.00
C202   C     0.85621   0.31929   0.24413   0.00000  Uiso   1.00
C203   C     0.81032   0.01385   0.24958   0.00000  Uiso   1.00
C204   C     0.83376   0.16903   0.33617   0.00000  Uiso   1.00
C205   C     0.83292   0.16289   0.16395   0.00000  Uiso   1.00
C206   C     0.83196   0.11410   0.09166   0.00000  Uiso   1.00
H207   H     0.84573   0.24494   0.11494   0.00000  Uiso   1.00
H208   H     0.89575   0.07498   0.15163   0.00000  Uiso   1.00
H209   H     0.91071   0.02446   0.05543   0.00000  Uiso   1.00
H210   H     0.93714   0.08812   0.06942   0.00000  Uiso   1.00
H211   H     0.99666   0.05138   0.12537   0.00000  Uiso   1.00
H212   H     0.67946   0.02749   0.06833   0.00000  Uiso   1.00
H213   H     0.97080   0.31982   0.10909   0.00000  Uiso   1.00
H214   H     0.85364   0.30349   0.33250   0.00000  Uiso   1.00
H215   H     0.90059   0.25523   0.34333   0.00000  Uiso   1.00
H216   H     0.88223   0.01842   0.40507   0.00000  Uiso   1.00
H217   H     0.93881   0.30871   0.40390   0.00000  Uiso   1.00
H218   H     0.82070   0.08684   0.38520   0.00000  Uiso   1.00
H219   H     0.96989   0.00673   0.32273   0.00000  Uiso   1.00
H220   H     0.97355   0.05667   0.36620   0.00000  Uiso   1.00
H221   H     0.91564   0.05273   0.33084   0.00000  Uiso   1.00
H222   H     0.70784   0.21807   0.16964   0.00000  Uiso   1.00
H223   H     0.96884   0.21798   0.18814   0.00000  Uiso   1.00
H224   H     0.95449   0.14730   0.12288   0.00000  Uiso   1.00
H225   H     0.96374   0.21539   0.11089   0.00000  Uiso   1.00
H226   H     0.73095   0.20610   0.08627   0.00000  Uiso   1.00
H227   H     0.68646   0.16160   0.05548   0.00000  Uiso   1.00
H228   H     0.72248   0.13710   0.10040   0.00000  Uiso   1.00
H229   H     0.84937   0.29405   0.04747   0.00000  Uiso   1.00
H230   H     0.99716   0.26088   0.34422   0.00000  Uiso   1.00
H231   H     0.72641   0.23671   0.32144   0.00000  Uiso   1.00
H232   H     0.95476   0.16993   0.36643   0.00000  Uiso   1.00
H233   H     0.69003   0.14662   0.35322   0.00000  Uiso   1.00
H234   H     0.72604   0.21632   0.40995   0.00000  Uiso   1.00
H235   H     0.67671   0.16584   0.43414   0.00000  Uiso   1.00
H236   H     0.98618   0.22933   0.42481   0.00000  Uiso   1.00
H237   H     0.80276   0.03789   0.45461   0.00000  Uiso   1.00
H238   H     0.85097   0.29894   0.46588   0.00000  Uiso   1.00
H239   H     0.80536   0.03376   0.03621   0.00000  Uiso   1.00
H240   H     0.89950   0.00310   0.23907   0.00000  Uiso   1.00
H241   H     0.76701   0.33004   0.25454   0.00000  Uiso   1.00
H242   H     0.87226   0.01081   0.13745   0.00000  Uiso   1.00
N243   N     0.98344   0.15265   0.23783   0.00000  Uiso   1.00
N244   N     0.68322   0.18068   0.26217   0.00000  Uiso   1.00
O245   O     0.79642   0.24619   0.25298   0.00000  Uiso   1.00
O246   O     0.82825   0.26440   0.38977   0.00000  Uiso   1.00
O247   O     0.67308   0.14628   0.19472   0.00000  Uiso   1.00
O248   O     0.98671   0.21334   0.28992   0.00000  Uiso   1.00
O249   O     0.87025   0.08714   0.24701   0.00000  Uiso   1.00
O250   O     0.89280   0.23721   0.24518   0.00000  Uiso   1.00
O251   O     0.77387   0.09613   0.25481   0.00000  Uiso   1.00
O252   O     0.78514   0.17117   0.31997   0.00000  Uiso   1.00
O253   O     0.88153   0.16216   0.18002   0.00000  Uiso   1.00
O254   O     0.88152   0.16219   0.31217   0.00000  Uiso   1.00
O255   O     0.78515   0.17115   0.18782   0.00000  Uiso   1.00
O256   O     0.82644   0.06629   0.11285   0.00000  Uiso   1.00
Zn257  Zn    0.76898   0.17266   0.25521   0.00000  Uiso   1.00
Zn258  Zn    0.89769   0.16067   0.24479   0.00000  Uiso   1.00
C259   C     0.18182   0.59799   0.24714   0.00000  Uiso   1.00
C260   C     0.17324   0.55098   0.40822   0.00000  Uiso   1.00
C261   C     0.16808   0.49485   0.11617   0.00000  Uiso   1.00
C262   C     0.16763   0.50352   0.38389   0.00000  Uiso   1.00
C263   C     0.17537   0.54251   0.09499   0.00000  Uiso   1.00
C264   C     0.16043   0.45568   0.40506   0.00000  Uiso   1.00
C265   C     0.17635   0.54427   0.04857   0.00000  Uiso   1.00
C266   C     0.15948   0.45364   0.45148   0.00000  Uiso   1.00
C267   C     0.16968   0.49777   0.02330   0.00000  Uiso   1.00
C268   C     0.16895   0.49999   0.47646   0.00000  Uiso   1.00
C269   C     0.16183   0.44927   0.04503   0.00000  Uiso   1.00
C270   C     0.15148   0.40190   0.25046   0.00000  Uiso   1.00
C271   C     0.17501   0.54877   0.45497   0.00000  Uiso   1.00
C272   C     0.18069   0.59211   0.02752   0.00000  Uiso   1.00
C273   C     0.14758   0.40624   0.47339   0.00000  Uiso   1.00
C274   C     0.21315   0.38403   0.12375   0.00000  Uiso   1.00
C275   C     0.25934   0.38217   0.08336   0.00000  Uiso   1.00
C276   C     0.31319   0.36051   0.09755   0.00000  Uiso   1.00
C277   C     0.20681   0.61828   0.35963   0.00000  Uiso   1.00
C278   C     0.24319   0.66053   0.38277   0.00000  Uiso   1.00
C279   C     0.27775   0.36283   0.34840   0.00000  Uiso   1.00
C280   C     0.00107   0.52647   0.17106   0.00000  Uiso   1.00
C281   C     0.18043   0.59454   0.48105   0.00000  Uiso   1.00
C282   C     0.31798   0.51498   0.12287   0.00000  Uiso   1.00
C283   C     0.03472   0.50426   0.08925   0.00000  Uiso   1.00
C284   C     0.01435   0.55840   0.32902   0.00000  Uiso   1.00
C285   C     0.00069   0.51502   0.36395   0.00000  Uiso   1.00
C286   C     0.01514   0.53283   0.41108   0.00000  Uiso   1.00
C287   C     0.14900   0.40399   0.01990   0.00000  Uiso   1.00
C288   C     0.18954   0.65262   0.24413   0.00000  Uiso   1.00
C289   C     0.14365   0.34718   0.24958   0.00000  Uiso   1.00
C290   C     0.16710   0.50236   0.33617   0.00000  Uiso   1.00
C291   C     0.16625   0.49623   0.16395   0.00000  Uiso   1.00
C292   C     0.16529   0.44743   0.09166   0.00000  Uiso   1.00
H293   H     0.17907   0.57827   0.11494   0.00000  Uiso   1.00
H294   H     0.22908   0.40831   0.15163   0.00000  Uiso   1.00
H295   H     0.24405   0.35780   0.05543   0.00000  Uiso   1.00
H296   H     0.27048   0.42145   0.06942   0.00000  Uiso   1.00
H297   H     0.33000   0.38471   0.12537   0.00000  Uiso   1.00
H298   H     0.01279   0.36082   0.06833   0.00000  Uiso   1.00
H299   H     0.30413   0.65315   0.10909   0.00000  Uiso   1.00
H300   H     0.18697   0.63683   0.33250   0.00000  Uiso   1.00
H301   H     0.23393   0.58856   0.34333   0.00000  Uiso   1.00
H302   H     0.21556   0.35176   0.40507   0.00000  Uiso   1.00
H303   H     0.27215   0.64205   0.40390   0.00000  Uiso   1.00
H304   H     0.15403   0.42017   0.38520   0.00000  Uiso   1.00
H305   H     0.30323   0.34006   0.32273   0.00000  Uiso   1.00
H306   H     0.30688   0.39001   0.36620   0.00000  Uiso   1.00
H307   H     0.24897   0.38607   0.33084   0.00000  Uiso   1.00
H308   H     0.04118   0.55140   0.16964   0.00000  Uiso   1.00
H309   H     0.30217   0.55132   0.18814   0.00000  Uiso   1.00
H310   H     0.28782   0.48064   0.12288   0.00000  Uiso   1.00
H311   H     0.29707   0.54872   0.11089   0.00000  Uiso   1.00
H312   H     0.06428   0.53943   0.08627   0.00000  Uiso   1.00
H313   H     0.01979   0.49493   0.05548   0.00000  Uiso   1.00
H314   H     0.05581   0.47043   0.10040   0.00000  Uiso   1.00
H315   H     0.18270   0.62739   0.04747   0.00000  Uiso   1.00
H316   H     0.33050   0.59421   0.34422   0.00000  Uiso   1.00
H317   H     0.05975   0.57004   0.32144   0.00000  Uiso   1.00
H318   H     0.28809   0.50326   0.36643   0.00000  Uiso   1.00
H319   H     0.02337   0.47995   0.35322   0.00000  Uiso   1.00
H320   H     0.05937   0.54965   0.40995   0.00000  Uiso   1.00
H321   H     0.01005   0.49918   0.43414   0.00000  Uiso   1.00
H322   H     0.31952   0.56266   0.42481   0.00000  Uiso   1.00
H323   H     0.13610   0.37122   0.45461   0.00000  Uiso   1.00
H324   H     0.18430   0.63228   0.46588   0.00000  Uiso   1.00
H325   H     0.13869   0.36709   0.03621   0.00000  Uiso   1.00
H326   H     0.23284   0.33643   0.23907   0.00000  Uiso   1.00
H327   H     0.10034   0.66337   0.25454   0.00000  Uiso   1.00
H328   H     0.20559   0.34414   0.13745   0.00000  Uiso   1.00
N329   N     0.31678   0.48598   0.23783   0.00000  Uiso   1.00
N330   N     0.01656   0.51402   0.26217   0.00000  Uiso   1.00
O331   O     0.12975   0.57952   0.25298   0.00000  Uiso   1.00
O332   O     0.16158   0.59773   0.38977   0.00000  Uiso   1.00
O333   O     0.00642   0.47962   0.19472   0.00000  Uiso   1.00
O334   O     0.32004   0.54668   0.28992   0.00000  Uiso   1.00
O335   O     0.20358   0.42048   0.24701   0.00000  Uiso   1.00
O336   O     0.22613   0.57054   0.24518   0.00000  Uiso   1.00
O337   O     0.10720   0.42946   0.25481   0.00000  Uiso   1.00
O338   O     0.11847   0.50450   0.31997   0.00000  Uiso   1.00
O339   O     0.21486   0.49550   0.18002   0.00000  Uiso   1.00
O340   O     0.21485   0.49552   0.31217   0.00000  Uiso   1.00
O341   O     0.11848   0.50448   0.18782   0.00000  Uiso   1.00
O342   O     0.15977   0.39963   0.11285   0.00000  Uiso   1.00
Zn343  Zn    0.10231   0.50600   0.25521   0.00000  Uiso   1.00
Zn344  Zn    0.23102   0.49400   0.24479   0.00000  Uiso   1.00
C345   C     0.51515   0.59799   0.24714   0.00000  Uiso   1.00
C346   C     0.50657   0.55098   0.40822   0.00000  Uiso   1.00
C347   C     0.50142   0.49485   0.11617   0.00000  Uiso   1.00
C348   C     0.50096   0.50352   0.38389   0.00000  Uiso   1.00
C349   C     0.50871   0.54251   0.09499   0.00000  Uiso   1.00
C350   C     0.49376   0.45568   0.40506   0.00000  Uiso   1.00
C351   C     0.50968   0.54427   0.04857   0.00000  Uiso   1.00
C352   C     0.49281   0.45364   0.45148   0.00000  Uiso   1.00
C353   C     0.50302   0.49777   0.02330   0.00000  Uiso   1.00
C354   C     0.50228   0.49999   0.47646   0.00000  Uiso   1.00
C355   C     0.49516   0.44927   0.04503   0.00000  Uiso   1.00
C356   C     0.48481   0.40190   0.25046   0.00000  Uiso   1.00
C357   C     0.50834   0.54877   0.45497   0.00000  Uiso   1.00
C358   C     0.51402   0.59211   0.02752   0.00000  Uiso   1.00
C359   C     0.48091   0.40624   0.47339   0.00000  Uiso   1.00
C360   C     0.54648   0.38403   0.12375   0.00000  Uiso   1.00
C361   C     0.59268   0.38217   0.08336   0.00000  Uiso   1.00
C362   C     0.64652   0.36051   0.09755   0.00000  Uiso   1.00
C363   C     0.54014   0.61828   0.35963   0.00000  Uiso   1.00
C364   C     0.57653   0.66053   0.38277   0.00000  Uiso   1.00
C365   C     0.61108   0.36283   0.34840   0.00000  Uiso   1.00
C366   C     0.33441   0.52647   0.17106   0.00000  Uiso   1.00
C367   C     0.51376   0.59454   0.48105   0.00000  Uiso   1.00
C368   C     0.65132   0.51498   0.12287   0.00000  Uiso   1.00
C369   C     0.36805   0.50426   0.08925   0.00000  Uiso   1.00
C370   C     0.34769   0.55840   0.32902   0.00000  Uiso   1.00
C371   C     0.33402   0.51502   0.36395   0.00000  Uiso   1.00
C372   C     0.34848   0.53283   0.41108   0.00000  Uiso   1.00
C373   C     0.48233   0.40399   0.01990   0.00000  Uiso   1.00
C374   C     0.52288   0.65262   0.24413   0.00000  Uiso   1.00
C375   C     0.47698   0.34718   0.24958   0.00000  Uiso   1.00
C376   C     0.50043   0.50236   0.33617   0.00000  Uiso   1.00
C377   C     0.49959   0.49623   0.16395   0.00000  Uiso   1.00
C378   C     0.49862   0.44743   0.09166   0.00000  Uiso   1.00
H379   H     0.51240   0.57827   0.11494   0.00000  Uiso   1.00
H380   H     0.56241   0.40831   0.15163   0.00000  Uiso   1.00
H381   H     0.57738   0.35780   0.05543   0.00000  Uiso   1.00
H382   H     0.60381   0.42145   0.06942   0.00000  Uiso   1.00
H383   H     0.66333   0.38471   0.12537   0.00000  Uiso   1.00
H384   H     0.34612   0.36082   0.06833   0.00000  Uiso   1.00
H385   H     0.63746   0.65315   0.10909   0.00000  Uiso   1.00
H386   H     0.52030   0.63683   0.33250   0.00000  Uiso   1.00
H387   H     0.56726   0.58856   0.34333   0.00000  Uiso   1.00
H388   H     0.54890   0.35176   0.40507   0.00000  Uiso   1.00
H389   H     0.60548   0.64205   0.40390   0.00000  Uiso   1.00
H390   H     0.48736   0.42017   0.38520   0.00000  Uiso   1.00
H391   H     0.63656   0.34006   0.32273   0.00000  Uiso   1.00
H392   H     0.64021   0.39001   0.36620   0.00000  Uiso   1.00
H393   H     0.58231   0.38607   0.33084   0.00000  Uiso   1.00
H394   H     0.37451   0.55140   0.16964   0.00000  Uiso   1.00
H395   H     0.63551   0.55132   0.18814   0.00000  Uiso   1.00
H396   H     0.62115   0.48064   0.12288   0.00000  Uiso   1.00
H397   H     0.63041   0.54872   0.11089   0.00000  Uiso   1.00
H398   H     0.39761   0.53943   0.08627   0.00000  Uiso   1.00
H399   H     0.35312   0.49493   0.05548   0.00000  Uiso   1.00
H400   H     0.38914   0.47043   0.10040   0.00000  Uiso   1.00
H401   H     0.51603   0.62739   0.04747   0.00000  Uiso   1.00
H402   H     0.66383   0.59421   0.34422   0.00000  Uiso   1.00
H403   H     0.39308   0.57004   0.32144   0.00000  Uiso   1.00
H404   H     0.62143   0.50326   0.36643   0.00000  Uiso   1.00
H405   H     0.35670   0.47995   0.35322   0.00000  Uiso   1.00
H406   H     0.39271   0.54965   0.40995   0.00000  Uiso   1.00
H407   H     0.34338   0.49918   0.43414   0.00000  Uiso   1.00
H408   H     0.65285   0.56266   0.42481   0.00000  Uiso   1.00
H409   H     0.46943   0.37122   0.45461   0.00000  Uiso   1.00
H410   H     0.51763   0.63228   0.46588   0.00000  Uiso   1.00
H411   H     0.47202   0.36709   0.03621   0.00000  Uiso   1.00
H412   H     0.56617   0.33643   0.23907   0.00000  Uiso   1.00
H413   H     0.43368   0.66337   0.25454   0.00000  Uiso   1.00
H414   H     0.53893   0.34414   0.13745   0.00000  Uiso   1.00
N415   N     0.65011   0.48598   0.23783   0.00000  Uiso   1.00
N416   N     0.34989   0.51402   0.26217   0.00000  Uiso   1.00
O417   O     0.46308   0.57952   0.25298   0.00000  Uiso   1.00
O418   O     0.49492   0.59773   0.38977   0.00000  Uiso   1.00
O419   O     0.33975   0.47962   0.19472   0.00000  Uiso   1.00
O420   O     0.65337   0.54668   0.28992   0.00000  Uiso   1.00
O421   O     0.53692   0.42048   0.24701   0.00000  Uiso   1.00
O422   O     0.55946   0.57054   0.24518   0.00000  Uiso   1.00
O423   O     0.44054   0.42946   0.25481   0.00000  Uiso   1.00
O424   O     0.45181   0.50450   0.31997   0.00000  Uiso   1.00
O425   O     0.54819   0.49550   0.18002   0.00000  Uiso   1.00
O426   O     0.54819   0.49552   0.31217   0.00000  Uiso   1.00
O427   O     0.45181   0.50448   0.18782   0.00000  Uiso   1.00
O428   O     0.49311   0.39963   0.11285   0.00000  Uiso   1.00
Zn429  Zn    0.43565   0.50600   0.25521   0.00000  Uiso   1.00
Zn430  Zn    0.56435   0.49400   0.24479   0.00000  Uiso   1.00
C431   C     0.84848   0.59799   0.24714   0.00000  Uiso   1.00
C432   C     0.83990   0.55098   0.40822   0.00000  Uiso   1.00
C433   C     0.83475   0.49485   0.11617   0.00000  Uiso   1.00
C434   C     0.83429   0.50352   0.38389   0.00000  Uiso   1.00
C435   C     0.84204   0.54251   0.09499   0.00000  Uiso   1.00
C436   C     0.82710   0.45568   0.40506   0.00000  Uiso   1.00
C437   C     0.84301   0.54427   0.04857   0.00000  Uiso   1.00
C438   C     0.82614   0.45364   0.45148   0.00000  Uiso   1.00
C439   C     0.83635   0.49777   0.02330   0.00000  Uiso   1.00
C440   C     0.83561   0.49999   0.47646   0.00000  Uiso   1.00
C441   C     0.82850   0.44927   0.04503   0.00000  Uiso   1.00
C442   C     0.81815   0.40190   0.25046   0.00000  Uiso   1.00
C443   C     0.84168   0.54877   0.45497   0.00000  Uiso   1.00
C444   C     0.84735   0.59211   0.02752   0.00000  Uiso   1.00
C445   C     0.81425   0.40624   0.47339   0.00000  Uiso   1.00
C446   C     0.87982   0.38403   0.12375   0.00000  Uiso   1.00
C447   C     0.92601   0.38217   0.08336   0.00000  Uiso   1.00
C448   C     0.97985   0.36051   0.09755   0.00000  Uiso   1.00
C449   C     0.87347   0.61828   0.35963   0.00000  Uiso   1.00
C450   C     0.90986   0.66053   0.38277   0.00000  Uiso   1.00
C451   C     0.94441   0.36283   0.34840   0.00000  Uiso   1.00
C452   C     0.66774   0.52647   0.17106   0.00000  Uiso   1.00
C453   C     0.84710   0.59454   0.48105   0.00000  Uiso   1.00
C454   C     0.98465   0.51498   0.12287   0.00000  Uiso   1.00
C455   C     0.70139   0.50426   0.08925   0.00000  Uiso   1.00
C456   C     0.68102   0.55840   0.32902   0.00000  Uiso   1.00
C457   C     0.66736   0.51502   0.36395   0.00000  Uiso   1.00
C458   C     0.68181   0.53283   0.41108   0.00000  Uiso   1.00
C459   C     0.81566   0.40399   0.01990   0.00000  Uiso   1.00
C460   C     0.85621   0.65262   0.24413   0.00000  Uiso   1.00
C461   C     0.81032   0.34718   0.24958   0.00000  Uiso   1.00
C462   C     0.83376   0.50236   0.33617   0.00000  Uiso   1.00
C463   C     0.83292   0.49623   0.16395   0.00000  Uiso   1.00
C464   C     0.83196   0.44743   0.09166   0.00000  Uiso   1.00
H465   H     0.84573   0.57827   0.11494   0.00000  Uiso   1.00
H466   H     0.89575   0.40831   0.15163   0.00000  Uiso   1.00
H467   H     0.91071   0.35780   0.05543   0.00000  Uiso   1.00
H468   H     0.93714   0.42145   0.06942   0.00000  Uiso   1.00
H469   H     0.99666   0.38471   0.12537   0.00000  Uiso   1.00
H470   H     0.67946   0.36082   0.06833   0.00000  Uiso   1.00
H471   H     0.97080   0.65315   0.10909   0.00000  Uiso   1.00
H472   H     0.85364   0.63683   0.33250   0.00000  Uiso   1.00
H473   H     0.90059   0.58856   0.34333   0.00000  Uiso   1.00
H474   H     0.88223   0.35176   0.40507   0.00000  Uiso   1.00
H475   H     0.93881   0.64205   0.40390   0.00000  Uiso   1.00
H476   H     0.82070   0.42017   0.38520   0.00000  Uiso   1.00
H477   H     0.96989   0.34006   0.32273   0.00000  Uiso   1.00
H478   H     0.97355   0.39001   0.36620   0.00000  Uiso   1.00
H479   H     0.91564   0.38607   0.33084   0.00000  Uiso   1.00
H480   H     0.70784   0.55140   0.16964   0.00000  Uiso   1.00
H481   H     0.96884   0.55132   0.18814   0.00000  Uiso   1.00
H482   H     0.95449   0.48064   0.12288   0.00000  Uiso   1.00
H483   H     0.96374   0.54872   0.11089   0.00000  Uiso   1.00
H484   H     0.73095   0.53943   0.08627   0.00000  Uiso   1.00
H485   H     0.68646   0.49493   0.05548   0.00000  Uiso   1.00
H486   H     0.72248   0.47043   0.10040   0.00000  Uiso   1.00
H487   H     0.84937   0.62739   0.04747   0.00000  Uiso   1.00
H488   H     0.99716   0.59421   0.34422   0.00000  Uiso   1.00
H489   H     0.72641   0.57004   0.32144   0.00000  Uiso   1.00
H490   H     0.95476   0.50326   0.36643   0.00000  Uiso   1.00
H491   H     0.69003   0.47995   0.35322   0.00000  Uiso   1.00
H492   H     0.72604   0.54965   0.40995   0.00000  Uiso   1.00
H493   H     0.67671   0.49918   0.43414   0.00000  Uiso   1.00
H494   H     0.98618   0.56266   0.42481   0.00000  Uiso   1.00
H495   H     0.80276   0.37122   0.45461   0.00000  Uiso   1.00
H496   H     0.85097   0.63228   0.46588   0.00000  Uiso   1.00
H497   H     0.80536   0.36709   0.03621   0.00000  Uiso   1.00
H498   H     0.89950   0.33643   0.23907   0.00000  Uiso   1.00
H499   H     0.76701   0.66337   0.25454   0.00000  Uiso   1.00
H500   H     0.87226   0.34414   0.13745   0.00000  Uiso   1.00
N501   N     0.98344   0.48598   0.23783   0.00000  Uiso   1.00
N502   N     0.68322   0.51402   0.26217   0.00000  Uiso   1.00
O503   O     0.79642   0.57952   0.25298   0.00000  Uiso   1.00
O504   O     0.82825   0.59773   0.38977   0.00000  Uiso   1.00
O505   O     0.67308   0.47962   0.19472   0.00000  Uiso   1.00
O506   O     0.98671   0.54668   0.28992   0.00000  Uiso   1.00
O507   O     0.87025   0.42048   0.24701   0.00000  Uiso   1.00
O508   O     0.89280   0.57054   0.24518   0.00000  Uiso   1.00
O509   O     0.77387   0.42946   0.25481   0.00000  Uiso   1.00
O510   O     0.78514   0.50450   0.31997   0.00000  Uiso   1.00
O511   O     0.88153   0.49550   0.18002   0.00000  Uiso   1.00
O512   O     0.88152   0.49552   0.31217   0.00000  Uiso   1.00
O513   O     0.78515   0.50448   0.18782   0.00000  Uiso   1.00
O514   O     0.82644   0.39963   0.11285   0.00000  Uiso   1.00
Zn515  Zn    0.76898   0.50600   0.25521   0.00000  Uiso   1.00
Zn516  Zn    0.89769   0.49400   0.24479   0.00000  Uiso   1.00
C517   C     0.18182   0.93132   0.24714   0.00000  Uiso   1.00
C518   C     0.17324   0.88431   0.40822   0.00000  Uiso   1.00
C519   C     0.16808   0.82818   0.11617   0.00000  Uiso   1.00
C520   C     0.16763   0.83685   0.38389   0.00000  Uiso   1.00
C521   C     0.17537   0.87584   0.09499   0.00000  Uiso   1.00
C522   C     0.16043   0.78901   0.40506   0.00000  Uiso   1.00
C523   C     0.17635   0.87760   0.04857   0.00000  Uiso   1.00
C524   C     0.15948   0.78698   0.45148   0.00000  Uiso   1.00
C525   C     0.16968   0.83110   0.02330   0.00000  Uiso   1.00
C526   C     0.16895   0.83332   0.47646   0.00000  Uiso   1.00
C527   C     0.16183   0.78261   0.04503   0.00000  Uiso   1.00
C528   C     0.15148   0.73523   0.25046   0.00000  Uiso   1.00
C529   C     0.17501   0.88211   0.45497   0.00000  Uiso   1.00
C530   C     0.18069   0.92544   0.02752   0.00000  Uiso   1.00
C531   C     0.14758   0.73958   0.47339   0.00000  Uiso   1.00
C532   C     0.21315   0.71736   0.12375   0.00000  Uiso   1.00
C533   C     0.25934   0.71551   0.08336   0.00000  Uiso   1.00
C534   C     0.31319   0.69384   0.09755   0.00000  Uiso   1.00
C535   C     0.20681   0.95161   0.35963   0.00000  Uiso   1.00
C536   C     0.24319   0.99386   0.38277   0.00000  Uiso   1.00
C537   C     0.27775   0.69616   0.34840   0.00000  Uiso   1.00
C538   C     0.00107   0.85980   0.17106   0.00000  Uiso   1.00
C539   C     0.18043   0.92788   0.48105   0.00000  Uiso   1.00
C540   C     0.31798   0.84831   0.12287   0.00000  Uiso   1.00
C541   C     0.03472   0.83759   0.08925   0.00000  Uiso   1.00
C542   C     0.01435   0.89174   0.32902   0.00000  Uiso   1.00
C543   C     0.00069   0.84835   0.36395   0.00000  Uiso   1.00
C544   C     0.01514   0.86617   0.41108   0.00000  Uiso   1.00
C545   C     0.14900   0.73732   0.01990   0.00000  Uiso   1.00
C546   C     0.18954   0.98595   0.24413   0.00000  Uiso   1.00
C547   C     0.14365   0.68052   0.24958   0.00000  Uiso   1.00
C548   C     0.16710   0.83569   0.33617   0.00000  Uiso   1.00
C549   C     0.16625   0.82956   0.16395   0.00000  Uiso   1.00
C550   C     0.16529   0.78077   0.09166   0.00000  Uiso   1.00
H551   H     0.17907   0.91161   0.11494   0.00000  Uiso   1.00
H552   H     0.22908   0.74164   0.15163   0.00000  Uiso   1.00
H553   H     0.24405   0.69113   0.05543   0.00000  Uiso   1.00
H554   H     0.27048   0.75478   0.06942   0.00000  Uiso   1.00
H555   H     0.33000   0.71805   0.12537   0.00000  Uiso   1.00
H556   H     0.01279   0.69415   0.06833   0.00000  Uiso   1.00
H557   H     0.30413   0.98649   0.10909   0.00000  Uiso   1.00
H558   H     0.18697   0.97016   0.33250   0.00000  Uiso   1.00
H559   H     0.23393   0.92190   0.34333   0.00000  Uiso   1.00
H560   H     0.21556   0.68509   0.40507   0.00000  Uiso   1.00
H561   H     0.27215   0.97538   0.40390   0.00000  Uiso   1.00
H562   H     0.15403   0.75351   0.38520   0.00000  Uiso   1.00
H563   H     0.30323   0.67340   0.32273   0.00000  Uiso   1.00
H564   H     0.30688   0.72334   0.36620   0.00000  Uiso   1.00
H565   H     0.24897   0.71940   0.33084   0.00000  Uiso   1.00
H566   H     0.04118   0.88473   0.16964   0.00000  Uiso   1.00
H567   H     0.30217   0.88465   0.18814   0.00000  Uiso   1.00
H568   H     0.28782   0.81397   0.12288   0.00000  Uiso   1.00
H569   H     0.29707   0.88206   0.11089   0.00000  Uiso   1.00
H570   H     0.06428   0.87276   0.08627   0.00000  Uiso   1.00
H571   H     0.01979   0.82826   0.05548   0.00000  Uiso   1.00
H572   H     0.05581   0.80376   0.10040   0.00000  Uiso   1.00
H573   H     0.18270   0.96072   0.04747   0.00000  Uiso   1.00
H574   H     0.33050   0.92755   0.34422   0.00000  Uiso   1.00
H575   H     0.05975   0.90337   0.32144   0.00000  Uiso   1.00
H576   H     0.28809   0.83660   0.36643   0.00000  Uiso   1.00
H577   H     0.02337   0.81328   0.35322   0.00000  Uiso   1.00
H578   H     0.05937   0.88299   0.40995   0.00000  Uiso   1.00
H579   H     0.01005   0.83251   0.43414   0.00000  Uiso   1.00
H580   H     0.31952   0.89600   0.42481   0.00000  Uiso   1.00
H581   H     0.13610   0.70456   0.45461   0.00000  Uiso   1.00
H582   H     0.18430   0.96561   0.46588   0.00000  Uiso   1.00
H583   H     0.13869   0.70042   0.03621   0.00000  Uiso   1.00
H584   H     0.23284   0.66977   0.23907   0.00000  Uiso   1.00
H585   H     0.10034   0.99670   0.25454   0.00000  Uiso   1.00
H586   H     0.20559   0.67748   0.13745   0.00000  Uiso   1.00
N587   N     0.31678   0.81932   0.23783   0.00000  Uiso   1.00
N588   N     0.01656   0.84735   0.26217   0.00000  Uiso   1.00
O589   O     0.12975   0.91286   0.25298   0.00000  Uiso   1.00
O590   O     0.16158   0.93106   0.38977   0.00000  Uiso   1.00
O591   O     0.00642   0.81295   0.19472   0.00000  Uiso   1.00
O592   O     0.32004   0.88001   0.28992   0.00000  Uiso   1.00
O593   O     0.20358   0.75381   0.24701   0.00000  Uiso   1.00
O594   O     0.22613   0.90387   0.24518   0.00000  Uiso   1.00
O595   O     0.10720   0.76279   0.25481   0.00000  Uiso   1.00
O596   O     0.11847   0.83784   0.31997   0.00000  Uiso   1.00
O597   O     0.21486   0.82883   0.18002   0.00000  Uiso   1.00
O598   O     0.21485   0.82885   0.31217   0.00000  Uiso   1.00
O599   O     0.11848   0.83781   0.18782   0.00000  Uiso   1.00
O600   O     0.15977   0.73296   0.11285   0.00000  Uiso   1.00
Zn601  Zn    0.10231   0.83933   0.25521   0.00000  Uiso   1.00
Zn602  Zn    0.23102   0.82734   0.24479   0.00000  Uiso   1.00
C603   C     0.51515   0.93132   0.24714   0.00000  Uiso   1.00
C604   C     0.50657   0.88431   0.40822   0.00000  Uiso   1.00
C605   C     0.50142   0.82818   0.11617   0.00000  Uiso   1.00
C606   C     0.50096   0.83685   0.38389   0.00000  Uiso   1.00
C607   C     0.50871   0.87584   0.09499   0.00000  Uiso   1.00
C608   C     0.49376   0.78901   0.40506   0.00000  Uiso   1.00
C609   C     0.50968   0.87760   0.04857   0.00000  Uiso   1.00
C610   C     0.49281   0.78698   0.45148   0.00000  Uiso   1.00
C611   C     0.50302   0.83110   0.02330   0.00000  Uiso   1.00
C612   C     0.50228   0.83332   0.47646   0.00000  Uiso   1.00
C613   C     0.49516   0.78261   0.04503   0.00000  Uiso   1.00
C614   C     0.48481   0.73523   0.25046   0.00000  Uiso   1.00
C615   C     0.50834   0.88211   0.45497   0.00000  Uiso   1.00
C616   C     0.51402   0.92544   0.02752   0.00000  Uiso   1.00
C617   C     0.48091   0.73958   0.47339   0.00000  Uiso   1.00
C618   C     0.54648   0.71736   0.12375   0.00000  Uiso   1.00
C619   C     0.59268   0.71551   0.08336   0.00000  Uiso   1.00
C620   C     0.64652   0.69384   0.09755   0.00000  Uiso   1.00
C621   C     0.54014   0.95161   0.35963   0.00000  Uiso   1.00
C622   C     0.57653   0.99386   0.38277   0.00000  Uiso   1.00
C623   C     0.61108   0.69616   0.34840   0.00000  Uiso   1.00
C624   C     0.33441   0.85980   0.17106   0.00000  Uiso   1.00
C625   C     0.51376   0.92788   0.48105   0.00000  Uiso   1.00
C626   C     0.65132   0.84831   0.12287   0.00000  Uiso   1.00
C627   C     0.36805   0.83759   0.08925   0.00000  Uiso   1.00
C628   C     0.34769   0.89174   0.32902   0.00000  Uiso   1.00
C629   C     0.33402   0.84835   0.36395   0.00000  Uiso   1.00
C630   C     0.34848   0.86617   0.41108   0.00000  Uiso   1.00
C631   C     0.48233   0.73732   0.01990   0.00000  Uiso   1.00
C632   C     0.52288   0.98595   0.24413   0.00000  Uiso   1.00
C633   C     0.47698   0.68052   0.24958   0.00000  Uiso   1.00
C634   C     0.50043   0.83569   0.33617   0.00000  Uiso   1.00
C635   C     0.49959   0.82956   0.16395   0.00000  Uiso   1.00
C636   C     0.49862   0.78077   0.09166   0.00000  Uiso   1.00
H637   H     0.51240   0.91161   0.11494   0.00000  Uiso   1.00
H638   H     0.56241   0.74164   0.15163   0.00000  Uiso   1.00
H639   H     0.57738   0.69113   0.05543   0.00000  Uiso   1.00
H640   H     0.60381   0.75478   0.06942   0.00000  Uiso   1.00
H641   H     0.66333   0.71805   0.12537   0.00000  Uiso   1.00
H642   H     0.34612   0.69415   0.06833   0.00000  Uiso   1.00
H643   H     0.63746   0.98649   0.10909   0.00000  Uiso   1.00
H644   H     0.52030   0.97016   0.33250   0.00000  Uiso   1.00
H645   H     0.56726   0.92190   0.34333   0.00000  Uiso   1.00
H646   H     0.54890   0.68509   0.40507   0.00000  Uiso   1.00
H647   H     0.60548   0.97538   0.40390   0.00000  Uiso   1.00
H648   H     0.48736   0.75351   0.38520   0.00000  Uiso   1.00
H649   H     0.63656   0.67340   0.32273   0.00000  Uiso   1.00
H650   H     0.64021   0.72334   0.36620   0.00000  Uiso   1.00
H651   H     0.58231   0.71940   0.33084   0.00000  Uiso   1.00
H652   H     0.37451   0.88473   0.16964   0.00000  Uiso   1.00
H653   H     0.63551   0.88465   0.18814   0.00000  Uiso   1.00
H654   H     0.62115   0.81397   0.12288   0.00000  Uiso   1.00
H655   H     0.63041   0.88206   0.11089   0.00000  Uiso   1.00
H656   H     0.39761   0.87276   0.08627   0.00000  Uiso   1.00
H657   H     0.35312   0.82826   0.05548   0.00000  Uiso   1.00
H658   H     0.38914   0.80376   0.10040   0.00000  Uiso   1.00
H659   H     0.51603   0.96072   0.04747   0.00000  Uiso   1.00
H660   H     0.66383   0.92755   0.34422   0.00000  Uiso   1.00
H661   H     0.39308   0.90337   0.32144   0.00000  Uiso   1.00
H662   H     0.62143   0.83660   0.36643   0.00000  Uiso   1.00
H663   H     0.35670   0.81328   0.35322   0.00000  Uiso   1.00
H664   H     0.39271   0.88299   0.40995   0.00000  Uiso   1.00
H665   H     0.34338   0.83251   0.43414   0.00000  Uiso   1.00
H666   H     0.65285   0.89600   0.42481   0.00000  Uiso   1.00
H667   H     0.46943   0.70456   0.45461   0.00000  Uiso   1.00
H668   H     0.51763   0.96561   0.46588   0.00000  Uiso   1.00
H669   H     0.47202   0.70042   0.03621   0.00000  Uiso   1.00
H670   H     0.56617   0.66977   0.23907   0.00000  Uiso   1.00
H671   H     0.43368   0.99670   0.25454   0.00000  Uiso   1.00
H672   H     0.53893   0.67748   0.13745   0.00000  Uiso   1.00
N673   N     0.65011   0.81932   0.23783   0.00000  Uiso   1.00
N674   N     0.34989   0.84735   0.26217   0.00000  Uiso   1.00
O675   O     0.46308   0.91286   0.25298   0.00000  Uiso   1.00
O676   O     0.49492   0.93106   0.38977   0.00000  Uiso   1.00
O677   O     0.33975   0.81295   0.19472   0.00000  Uiso   1.00
O678   O     0.65337   0.88001   0.28992   0.00000  Uiso   1.00
O679   O     0.53692   0.75381   0.24701   0.00000  Uiso   1.00
O680   O     0.55946   0.90387   0.24518   0.00000  Uiso   1.00
O681   O     0.44054   0.76279   0.25481   0.00000  Uiso   1.00
O682   O     0.45181   0.83784   0.31997   0.00000  Uiso   1.00
O683   O     0.54819   0.82883   0.18002   0.00000  Uiso   1.00
O684   O     0.54819   0.82885   0.31217   0.00000  Uiso   1.00
O685   O     0.45181   0.83781   0.18782   0.00000  Uiso   1.00
O686   O     0.49311   0.73296   0.11285   0.00000  Uiso   1.00
Zn687  Zn    0.43565   0.83933   0.25521   0.00000  Uiso   1.00
Zn688  Zn    0.56435   0.82734   0.24479   0.00000  Uiso   1.00
C689   C     0.84848   0.93132   0.24714   0.00000  Uiso   1.00
C690   C     0.83990   0.88431   0.40822   0.00000  Uiso   1.00
C691   C     0.83475   0.82818   0.11617   0.00000  Uiso   1.00
C692   C     0.83429   0.83685   0.38389   0.00000  Uiso   1.00
C693   C     0.84204   0.87584   0.09499   0.00000  Uiso   1.00
C694   C     0.82710   0.78901   0.40506   0.00000  Uiso   1.00
C695   C     0.84301   0.87760   0.04857   0.00000  Uiso   1.00
C696   C     0.82614   0.78698   0.45148   0.00000  Uiso   1.00
C697   C     0.83635   0.83110   0.02330   0.00000  Uiso   1.00
C698   C     0.83561   0.83332   0.47646   0.00000  Uiso   1.00
C699   C     0.82850   0.78261   0.04503   0.00000  Uiso   1.00
C700   C     0.81815   0.73523   0.25046   0.00000  Uiso   1.00
C701   C     0.84168   0.88211   0.45497   0.00000  Uiso   1.00
C702   C     0.84735   0.92544   0.02752   0.00000  Uiso   1.00
C703   C     0.81425   0.73958   0.47339   0.00000  Uiso   1.00
C704   C     0.87982   0.71736   0.12375   0.00000  Uiso   1.00
C705   C     0.92601   0.71551   0.08336   0.00000  Uiso   1.00
C706   C     0.97985   0.69384   0.09755   0.00000  Uiso   1.00
C707   C     0.87347   0.95161   0.35963   0.00000  Uiso   1.00
C708   C     0.90986   0.99386   0.38277   0.00000  Uiso   1.00
C709   C     0.94441   0.69616   0.34840   0.00000  Uiso   1.00
C710   C     0.66774   0.85980   0.17106   0.00000  Uiso   1.00
C711   C     0.84710   0.92788   0.48105   0.00000  Uiso   1.00
C712   C     0.98465   0.84831   0.12287   0.00000  Uiso   1.00
C713   C     0.70139   0.83759   0.08925   0.00000  Uiso   1.00
C714   C     0.68102   0.89174   0.32902   0.00000  Uiso   1.00
C715   C     0.66736   0.84835   0.36395   0.00000  Uiso   1.00
C716   C     0.68181   0.86617   0.41108   0.00000  Uiso   1.00
C717   C     0.81566   0.73732   0.01990   0.00000  Uiso   1.00
C718   C     0.85621   0.98595   0.24413   0.00000  Uiso   1.00
C719   C     0.81032   0.68052   0.24958   0.00000  Uiso   1.00
C720   C     0.83376   0.83569   0.33617   0.00000  Uiso   1.00
C721   C     0.83292   0.82956   0.16395   0.00000  Uiso   1.00
C722   C     0.83196   0.78077   0.09166   0.00000  Uiso   1.00
H723   H     0.84573   0.91161   0.11494   0.00000  Uiso   1.00
H724   H     0.89575   0.74164   0.15163   0.00000  Uiso   1.00
H725   H     0.91071   0.69113   0.05543   0.00000  Uiso   1.00
H726   H     0.93714   0.75478   0.06942   0.00000  Uiso   1.00
H727   H     0.99666   0.71805   0.12537   0.00000  Uiso   1.00
H728   H     0.67946   0.69415   0.06833   0.00000  Uiso   1.00
H729   H     0.97080   0.98649   0.10909   0.00000  Uiso   1.00
H730   H     0.85364   0.97016   0.33250   0.00000  Uiso   1.00
H731   H     0.90059   0.92190   0.34333   0.00000  Uiso   1.00
H732   H     0.88223   0.68509   0.40507   0.00000  Uiso   1.00
H733   H     0.93881   0.97538   0.40390   0.00000  Uiso   1.00
H734   H     0.82070   0.75351   0.38520   0.00000  Uiso   1.00
H735   H     0.96989   0.67340   0.32273   0.00000  Uiso   1.00
H736   H     0.97355   0.72334   0.36620   0.00000  Uiso   1.00
H737   H     0.91564   0.71940   0.33084   0.00000  Uiso   1.00
H738   H     0.70784   0.88473   0.16964   0.00000  Uiso   1.00
H739   H     0.96884   0.88465   0.18814   0.00000  Uiso   1.00
H740   H     0.95449   0.81397   0.12288   0.00000  Uiso   1.00
H741   H     0.96374   0.88206   0.11089   0.00000  Uiso   1.00
H742   H     0.73095   0.87276   0.08627   0.00000  Uiso   1.00
H743   H     0.68646   0.82826   0.05548   0.00000  Uiso   1.00
H744   H     0.72248   0.80376   0.10040   0.00000  Uiso   1.00
H745   H     0.84937   0.96072   0.04747   0.00000  Uiso   1.00
H746   H     0.99716   0.92755   0.34422   0.00000  Uiso   1.00
H747   H     0.72641   0.90337   0.32144   0.00000  Uiso   1.00
H748   H     0.95476   0.83660   0.36643   0.00000  Uiso   1.00
H749   H     0.69003   0.81328   0.35322   0.00000  Uiso   1.00
H750   H     0.72604   0.88299   0.40995   0.00000  Uiso   1.00
H751   H     0.67671   0.83251   0.43414   0.00000  Uiso   1.00
H752   H     0.98618   0.89600   0.42481   0.00000  Uiso   1.00
H753   H     0.80276   0.70456   0.45461   0.00000  Uiso   1.00
H754   H     0.85097   0.96561   0.46588   0.00000  Uiso   1.00
H755   H     0.80536   0.70042   0.03621   0.00000  Uiso   1.00
H756   H     0.89950   0.66977   0.23907   0.00000  Uiso   1.00
H757   H     0.76701   0.99670   0.25454   0.00000  Uiso   1.00
H758   H     0.87226   0.67748   0.13745   0.00000  Uiso   1.00
N759   N     0.98344   0.81932   0.23783   0.00000  Uiso   1.00
N760   N     0.68322   0.84735   0.26217   0.00000  Uiso   1.00
O761   O     0.79642   0.91286   0.25298   0.00000  Uiso   1.00
O762   O     0.82825   0.93106   0.38977   0.00000  Uiso   1.00
O763   O     0.67308   0.81295   0.19472   0.00000  Uiso   1.00
O764   O     0.98671   0.88001   0.28992   0.00000  Uiso   1.00
O765   O     0.87025   0.75381   0.24701   0.00000  Uiso   1.00
O766   O     0.89280   0.90387   0.24518   0.00000  Uiso   1.00
O767   O     0.77387   0.76279   0.25481   0.00000  Uiso   1.00
O768   O     0.78514   0.83784   0.31997   0.00000  Uiso   1.00
O769   O     0.88153   0.82883   0.18002   0.00000  Uiso   1.00
O770   O     0.88152   0.82885   0.31217   0.00000  Uiso   1.00
O771   O     0.78515   0.83781   0.18782   0.00000  Uiso   1.00
O772   O     0.82644   0.73296   0.11285   0.00000  Uiso   1.00
Zn773  Zn    0.76898   0.83933   0.25521   0.00000  Uiso   1.00
Zn774  Zn    0.89769   0.82734   0.24479   0.00000  Uiso   1.00
C775   C     0.18182   0.26465   0.74714   0.00000  Uiso   1.00
C776   C     0.17324   0.21764   0.90822   0.00000  Uiso   1.00
C777   C     0.16808   0.16151   0.61617   0.00000  Uiso   1.00
C778   C     0.16763   0.17018   0.88389   0.00000  Uiso   1.00
C779   C     0.17537   0.20917   0.59499   0.00000  Uiso   1.00
C780   C     0.16043   0.12235   0.90506   0.00000  Uiso   1.00
C781   C     0.17635   0.21093   0.54857   0.00000  Uiso   1.00
C782   C     0.15948   0.12031   0.95148   0.00000  Uiso   1.00
C783   C     0.16968   0.16443   0.52330   0.00000  Uiso   1.00
C784   C     0.16895   0.16666   0.97646   0.00000  Uiso   1.00
C785   C     0.16183   0.11594   0.54503   0.00000  Uiso   1.00
C786   C     0.15148   0.06857   0.75046   0.00000  Uiso   1.00
C787   C     0.17501   0.21544   0.95497   0.00000  Uiso   1.00
C788   C     0.18069   0.25878   0.52752   0.00000  Uiso   1.00
C789   C     0.14758   0.07291   0.97339   0.00000  Uiso   1.00
C790   C     0.21315   0.05070   0.62375   0.00000  Uiso   1.00
C791   C     0.25934   0.04884   0.58336   0.00000  Uiso   1.00
C792   C     0.31319   0.02717   0.59755   0.00000  Uiso   1.00
C793   C     0.20681   0.28495   0.85963   0.00000  Uiso   1.00
C794   C     0.24319   0.32720   0.88277   0.00000  Uiso   1.00
C795   C     0.27775   0.02949   0.84840   0.00000  Uiso   1.00
C796   C     0.00107   0.19314   0.67106   0.00000  Uiso   1.00
C797   C     0.18043   0.26121   0.98105   0.00000  Uiso   1.00
C798   C     0.31798   0.18165   0.62287   0.00000  Uiso   1.00
C799   C     0.03472   0.17093   0.58925   0.00000  Uiso   1.00
C800   C     0.01435   0.22507   0.82902   0.00000  Uiso   1.00
C801   C     0.00069   0.18168   0.86395   0.00000  Uiso   1.00
C802   C     0.01514   0.19950   0.91108   0.00000  Uiso   1.00
C803   C     0.14900   0.07065   0.51990   0.00000  Uiso   1.00
C804   C     0.18954   0.31929   0.74413   0.00000  Uiso   1.00
C805   C     0.14365   0.01385   0.74958   0.00000  Uiso   1.00
C806   C     0.16710   0.16903   0.83617   0.00000  Uiso   1.00
C807   C     0.16625   0.16289   0.66395   0.00000  Uiso   1.00
C808   C     0.16529   0.11410   0.59166   0.00000  Uiso   1.00
H809   H     0.17907   0.24494   0.61494   0.00000  Uiso   1.00
H810   H     0.22908   0.07498   0.65163   0.00000  Uiso   1.00
H811   H     0.24405   0.02446   0.55543   0.00000  Uiso   1.00
H812   H     0.27048   0.08812   0.56942   0.00000  Uiso   1.00
H813   H     0.33000   0.05138   0.62537   0.00000  Uiso   1.00
H814   H     0.01279   0.02749   0.56833   0.00000  Uiso   1.00
H815   H     0.30413   0.31982   0.60909   0.00000  Uiso   1.00
H816   H     0.18697   0.30349   0.83250   0.00000  Uiso   1.00
H817   H     0.23393   0.25523   0.84333   0.00000  Uiso   1.00
H818   H     0.21556   0.01842   0.90507   0.00000  Uiso   1.00
H819   H     0.27215   0.30871   0.90390   0.00000  Uiso   1.00
H820   H     0.15403   0.08684   0.88520   0.00000  Uiso   1.00
H821   H     0.30323   0.00673   0.82273   0.00000  Uiso   1.00
H822   H     0.30688   0.05667   0.86620   0.00000  Uiso   1.00
H823   H     0.24897   0.05273   0.83084   0.00000  Uiso   1.00
H824   H     0.04118   0.21807   0.66964   0.00000  Uiso   1.00
H825   H     0.30217   0.21798   0.68814   0.00000  Uiso   1.00
H826   H     0.28782   0.14730   0.62288   0.00000  Uiso   1.00
H827   H     0.29707   0.21539   0.61089   0.00000  Uiso   1.00
H828   H     0.06428   0.20610   0.58627   0.00000  Uiso   1.00
H829   H     0.01979   0.16160   0.55548   0.00000  Uiso   1.00
H830   H     0.05581   0.13710   0.60040   0.00000  Uiso   1.00
H831   H     0.18270   0.29405   0.54747   0.00000  Uiso   1.00
H832   H     0.33050   0.26088   0.84422   0.00000  Uiso   1.00
H833   H     0.05975   0.23671   0.82144   0.00000  Uiso   1.00
H834   H     0.28809   0.16993   0.86643   0.00000  Uiso   1.00
H835   H     0.02337   0.14662   0.85322   0.00000  Uiso   1.00
H836   H     0.05937   0.21632   0.90995   0.00000  Uiso   1.00
H837   H     0.01005   0.16584   0.93414   0.00000  Uiso   1.00
H838   H     0.31952   0.22933   0.92481   0.00000  Uiso   1.00
H839   H     0.13610   0.03789   0.95461   0.00000  Uiso   1.00
H840   H     0.18430   0.29894   0.96588   0.00000  Uiso   1.00
H841   H     0.13869   0.03376   0.53621   0.00000  Uiso   1.00
H842   H     0.23284   0.00310   0.73907   0.00000  Uiso   1.00
H843   H     0.10034   0.33004   0.75454   0.00000  Uiso   1.00
H844   H     0.20559   0.01081   0.63745   0.00000  Uiso   1.00
N845   N     0.31678   0.15265   0.73783   0.00000  Uiso   1.00
N846   N     0.01656   0.18068   0.76217   0.00000  Uiso   1.00
O847   O     0.12975   0.24619   0.75298   0.00000  Uiso   1.00
O848   O     0.16158   0.26440   0.88977   0.00000  Uiso   1.00
O849   O     0.00642   0.14628   0.69472   0.00000  Uiso   1.00
O850   O     0.32004   0.21334   0.78992   0.00000  Uiso   1.00
O851   O     0.20358   0.08714   0.74701   0.00000  Uiso   1.00
O852   O     0.22613   0.23721   0.74518   0.00000  Uiso   1.00
O853   O     0.10720   0.09613   0.75481   0.00000  Uiso   1.00
O854   O     0.11847   0.17117   0.81997   0.00000  Uiso   1.00
O855   O     0.21486   0.16216   0.68002   0.00000  Uiso   1.00
O856   O     0.21485   0.16219   0.81217   0.00000  Uiso   1.00
O857   O     0.11848   0.17115   0.68782   0.00000  Uiso   1.00
O858   O     0.15977   0.06629   0.61285   0.00000  Uiso   1.00
Zn859  Zn    0.10231   0.17266   0.75521   0.00000  Uiso   1.00
Zn860  Zn    0.23102   0.16067   0.74479   0.00000  Uiso   1.00
C861   C     0.51515   0.26465   0.74714   0.00000  Uiso   1.00
C862   C     0.50657   0.21764   0.90822   0.00000  Uiso   1.00
C863   C     0.50142   0.16151   0.61617   0.00000  Uiso   1.00
C864   C     0.50096   0.17018   0.88389   0.00000  Uiso   1.00
C865   C     0.50871   0.20917   0.59499   0.00000  Uiso   1.00
C866   C     0.49376   0.12235   0.90506   0.00000  Uiso   1.00
C867   C     0.50968   0.21093   0.54857   0.00000  Uiso   1.00
C868   C     0.49281   0.12031   0.95148   0.00000  Uiso   1.00
C869   C     0.50302   0.16443   0.52330   0.00000  Uiso   1.00
C870   C     0.50228   0.16666   0.97646   0.00000  Uiso   1.00
C871   C     0.49516   0.11594   0.54503   0.00000  Uiso   1.00
C872   C     0.48481   0.06857   0.75046   0.00000  Uiso   1.00
C873   C     0.50834   0.21544   0.95497   0.00000  Uiso   1.00
C874   C     0.51402   0.25878   0.52752   0.00000  Uiso   1.00
C875   C     0.48091   0.07291   0.97339   0.00000  Uiso   1.00
C876   C     0.54648   0.05070   0.62375   0.00000  Uiso   1.00
C877   C     0.59268   0.04884   0.58336   0.00000  Uiso   1.00
C878   C     0.64652   0.02717   0.59755   0.00000  Uiso   1.00
C879   C     0.54014   0.28495   0.85963   0.00000  Uiso   1.00
C880   C     0.57653   0.32720   0.88277   0.00000  Uiso   1.00
C881   C     0.61108   0.02949   0.84840   0.00000  Uiso   1.00
C882   C     0.33441   0.19314   0.67106   0.00000  Uiso   1.00
C883   C     0.51376   0.26121   0.98105   0.00000  Uiso   1.00
C884   C     0.65132   0.18165   0.62287   0.00000  Uiso   1.00
C885   C     0.36805   0.17093   0.58925   0.00000  Uiso   1.00
C886   C     0.34769   0.22507   0.82902   0.00000  Uiso   1.00
C887   C     0.33402   0.18168   0.86395   0.00000  Uiso   1.00
C888   C     0.34848   0.19950   0.91108   0.00000  Uiso   1.00
C889   C     0.48233   0.07065   0.51990   0.00000  Uiso   1.00
C890   C     0.52288   0.31929   0.74413   0.00000  Uiso   1.00
C891   C     0.47698   0.01385   0.74958   0.00000  Uiso   1.00
C892   C     0.50043   0.16903   0.83617   0.00000  Uiso   1.00
C893   C     0.49959   0.16289   0.66395   0.00000  Uiso   1.00
C894   C     0.49862   0.11410   0.59166   0.00000  Uiso   1.00
H895   H     0.51240   0.24494   0.61494   0.00000  Uiso   1.00
H896   H     0.56241   0.07498   0.65163   0.00000  Uiso   1.00
H897   H     0.57738   0.02446   0.55543   0.00000  Uiso   1.00
H898   H     0.60381   0.08812   0.56942   0.00000  Uiso   1.00
H899   H     0.66333   0.05138   0.62537   0.00000  Uiso   1.00
H900   H     0.34612   0.02749   0.56833   0.00000  Uiso   1.00
H901   H     0.63746   0.31982   0.60909   0.00000  Uiso   1.00
H902   H     0.52030   0.30349   0.83250   0.00000  Uiso   1.00
H903   H     0.56726   0.25523   0.84333   0.00000  Uiso   1.00
H904   H     0.54890   0.01842   0.90507   0.00000  Uiso   1.00
H905   H     0.60548   0.30871   0.90390   0.00000  Uiso   1.00
H906   H     0.48736   0.08684   0.88520   0.00000  Uiso   1.00
H907   H     0.63656   0.00673   0.82273   0.00000  Uiso   1.00
H908   H     0.64021   0.05667   0.86620   0.00000  Uiso   1.00
H909   H     0.58231   0.05273   0.83084   0.00000  Uiso   1.00
H910   H     0.37451   0.21807   0.66964   0.00000  Uiso   1.00
H911   H     0.63551   0.21798   0.68814   0.00000  Uiso   1.00
H912   H     0.62115   0.14730   0.62288   0.00000  Uiso   1.00
H913   H     0.63041   0.21539   0.61089   0.00000  Uiso   1.00
H914   H     0.39761   0.20610   0.58627   0.00000  Uiso   1.00
H915   H     0.35312   0.16160   0.55548   0.00000  Uiso   1.00
H916   H     0.38914   0.13710   0.60040   0.00000  Uiso   1.00
H917   H     0.51603   0.29405   0.54747   0.00000  Uiso   1.00
H918   H     0.66383   0.26088   0.84422   0.00000  Uiso   1.00
H919   H     0.39308   0.23671   0.82144   0.00000  Uiso   1.00
H920   H     0.62143   0.16993   0.86643   0.00000  Uiso   1.00
H921   H     0.35670   0.14662   0.85322   0.00000  Uiso   1.00
H922   H     0.39271   0.21632   0.90995   0.00000  Uiso   1.00
H923   H     0.34338   0.16584   0.93414   0.00000  Uiso   1.00
H924   H     0.65285   0.22933   0.92481   0.00000  Uiso   1.00
H925   H     0.46943   0.03789   0.95461   0.00000  Uiso   1.00
H926   H     0.51763   0.29894   0.96588   0.00000  Uiso   1.00
H927   H     0.47202   0.03376   0.53621   0.00000  Uiso   1.00
H928   H     0.56617   0.00310   0.73907   0.00000  Uiso   1.00
H929   H     0.43368   0.33004   0.75454   0.00000  Uiso   1.00
H930   H     0.53893   0.01081   0.63745   0.00000  Uiso   1.00
N931   N     0.65011   0.15265   0.73783   0.00000  Uiso   1.00
N932   N     0.34989   0.18068   0.76217   0.00000  Uiso   1.00
O933   O     0.46308   0.24619   0.75298   0.00000  Uiso   1.00
O934   O     0.49492   0.26440   0.88977   0.00000  Uiso   1.00
O935   O     0.33975   0.14628   0.69472   0.00000  Uiso   1.00
O936   O     0.65337   0.21334   0.78992   0.00000  Uiso   1.00
O937   O     0.53692   0.08714   0.74701   0.00000  Uiso   1.00
O938   O     0.55946   0.23721   0.74518   0.00000  Uiso   1.00
O939   O     0.44054   0.09613   0.75481   0.00000  Uiso   1.00
O940   O     0.45181   0.17117   0.81997   0.00000  Uiso   1.00
O941   O     0.54819   0.16216   0.68002   0.00000  Uiso   1.00
O942   O     0.54819   0.16219   0.81217   0.00000  Uiso   1.00
O943   O     0.45181   0.17115   0.68782   0.00000  Uiso   1.00
O944   O     0.49311   0.06629   0.61285   0.00000  Uiso   1.00
Zn945  Zn    0.43565   0.17266   0.75521   0.00000  Uiso   1.00
Zn946  Zn    0.56435   0.16067   0.74479   0.00000  Uiso   1.00
C947   C     0.84848   0.26465   0.74714   0.00000  Uiso   1.00
C948   C     0.83990   0.21764   0.90822   0.00000  Uiso   1.00
C949   C     0.83475   0.16151   0.61617   0.00000  Uiso   1.00
C950   C     0.83429   0.17018   0.88389   0.00000  Uiso   1.00
C951   C     0.84204   0.20917   0.59499   0.00000  Uiso   1.00
C952   C     0.82710   0.12235   0.90506   0.00000  Uiso   1.00
C953   C     0.84301   0.21093   0.54857   0.00000  Uiso   1.00
C954   C     0.82614   0.12031   0.95148   0.00000  Uiso   1.00
C955   C     0.83635   0.16443   0.52330   0.00000  Uiso   1.00
C956   C     0.83561   0.16666   0.97646   0.00000  Uiso   1.00
C957   C     0.82850   0.11594   0.54503   0.00000  Uiso   1.00
C958   C     0.81815   0.06857   0.75046   0.00000  Uiso   1.00
C959   C     0.84168   0.21544   0.95497   0.00000  Uiso   1.00
C960   C     0.84735   0.25878   0.52752   0.00000  Uiso   1.00
C961   C     0.81425   0.07291   0.97339   0.00000  Uiso   1.00
C962   C     0.87982   0.05070   0.62375   0.00000  Uiso   1.00
C963   C     0.92601   0.04884   0.58336   0.00000  Uiso   1.00
C964   C     0.97985   0.02717   0.59755   0.00000  Uiso   1.00
C965   C     0.87347   0.28495   0.85963   0.00000  Uiso   1.00
C966   C     0.90986   0.32720   0.88277   0.00000  Uiso   1.00
C967   C     0.94441   0.02949   0.84840   0.00000  Uiso   1.00
C968   C     0.66774   0.19314   0.67106   0.00000  Uiso   1.00
C969   C     0.84710   0.26121   0.98105   0.00000  Uiso   1.00
C970   C     0.98465   0.18165   0.62287   0.00000  Uiso   1.00
C971   C     0.70139   0.17093   0.58925   0.00000  Uiso   1.00
C972   C     0.68102   0.22507   0.82902   0.00000  Uiso   1.00
C973   C     0.66736   0.18168   0.86395   0.00000  Uiso   1.00
C974   C     0.68181   0.19950   0.91108   0.00000  Uiso   1.00
C975   C     0.81566   0.07065   0.51990   0.00000  Uiso   1.00
C976   C     0.85621   0.31929   0.74413   0.00000  Uiso   1.00
C977   C     0.81032   0.01385   0.74958   0.00000  Uiso   1.00
C978   C     0.83376   0.16903   0.83617   0.00000  Uiso   1.00
C979   C     0.83292   0.16289   0.66395   0.00000  Uiso   1.00
C980   C     0.83196   0.11410   0.59166   0.00000  Uiso   1.00
H981   H     0.84573   0.24494   0.61494   0.00000  Uiso   1.00
H982   H     0.89575   0.07498   0.65163   0.00000  Uiso   1.00
H983   H     0.91071   0.02446   0.55543   0.00000  Uiso   1.00
H984   H     0.93714   0.08812   0.56942   0.00000  Uiso   1.00
H985   H     0.99666   0.05138   0.62537   0.00000  Uiso   1.00
H986   H     0.67946   0.02749   0.56833   0.00000  Uiso   1.00
H987   H     0.97080   0.31982   0.60909   0.00000  Uiso   1.00
H988   H     0.85364   0.30349   0.83250   0.00000  Uiso   1.00
H989   H     0.90059   0.25523   0.84333   0.00000  Uiso   1.00
H990   H     0.88223   0.01842   0.90507   0.00000  Uiso   1.00
H991   H     0.93881   0.30871   0.90390   0.00000  Uiso   1.00
H992   H     0.82070   0.08684   0.88520   0.00000  Uiso   1.00
H993   H     0.96989   0.00673   0.82273   0.00000  Uiso   1.00
H994   H     0.97355   0.05667   0.86620   0.00000  Uiso   1.00
H995   H     0.91564   0.05273   0.83084   0.00000  Uiso   1.00
H996   H     0.70784   0.21807   0.66964   0.00000  Uiso   1.00
H997   H     0.96884   0.21798   0.68814   0.00000  Uiso   1.00
H998   H     0.95449   0.14730   0.62288   0.00000  Uiso   1.00
H999   H     0.96374   0.21539   0.61089   0.00000  Uiso   1.00
H1000  H     0.73095   0.20610   0.58627   0.00000  Uiso   1.00
H1001  H     0.68646   0.16160   0.55548   0.00000  Uiso   1.00
H1002  H     0.72248   0.13710   0.60040   0.00000  Uiso   1.00
H1003  H     0.84937   0.29405   0.54747   0.00000  Uiso   1.00
H1004  H     0.99716   0.26088   0.84422   0.00000  Uiso   1.00
H1005  H     0.72641   0.23671   0.82144   0.00000  Uiso   1.00
H1006  H     0.95476   0.16993   0.86643   0.00000  Uiso   1.00
H1007  H     0.69003   0.14662   0.85322   0.00000  Uiso   1.00
H1008  H     0.72604   0.21632   0.90995   0.00000  Uiso   1.00
H1009  H     0.67671   0.16584   0.93414   0.00000  Uiso   1.00
H1010  H     0.98618   0.22933   0.92481   0.00000  Uiso   1.00
H1011  H     0.80276   0.03789   0.95461   0.00000  Uiso   1.00
H1012  H     0.85097   0.29894   0.96588   0.00000  Uiso   1.00
H1013  H     0.80536   0.03376   0.53621   0.00000  Uiso   1.00
H1014  H     0.89950   0.00310   0.73907   0.00000  Uiso   1.00
H1015  H     0.76701   0.33004   0.75454   0.00000  Uiso   1.00
H1016  H     0.87226   0.01081   0.63745   0.00000  Uiso   1.00
N1017  N     0.98344   0.15265   0.73783   0.00000  Uiso   1.00
N1018  N     0.68322   0.18068   0.76217   0.00000  Uiso   1.00
O1019  O     0.79642   0.24619   0.75298   0.00000  Uiso   1.00
O1020  O     0.82825   0.26440   0.88977   0.00000  Uiso   1.00
O1021  O     0.67308   0.14628   0.69472   0.00000  Uiso   1.00
O1022  O     0.98671   0.21334   0.78992   0.00000  Uiso   1.00
O1023  O     0.87025   0.08714   0.74701   0.00000  Uiso   1.00
O1024  O     0.89280   0.23721   0.74518   0.00000  Uiso   1.00
O1025  O     0.77387   0.09613   0.75481   0.00000  Uiso   1.00
O1026  O     0.78514   0.17117   0.81997   0.00000  Uiso   1.00
O1027  O     0.88153   0.16216   0.68002   0.00000  Uiso   1.00
O1028  O     0.88152   0.16219   0.81217   0.00000  Uiso   1.00
O1029  O     0.78515   0.17115   0.68782   0.00000  Uiso   1.00
O1030  O     0.82644   0.06629   0.61285   0.00000  Uiso   1.00
Zn1031 Zn    0.76898   0.17266   0.75521   0.00000  Uiso   1.00
Zn1032 Zn    0.89769   0.16067   0.74479   0.00000  Uiso   1.00
C1033  C     0.18182   0.59799   0.74714   0.00000  Uiso   1.00
C1034  C     0.17324   0.55098   0.90822   0.00000  Uiso   1.00
C1035  C     0.16808   0.49485   0.61617   0.00000  Uiso   1.00
C1036  C     0.16763   0.50352   0.88389   0.00000  Uiso   1.00
C1037  C     0.17537   0.54251   0.59499   0.00000  Uiso   1.00
C1038  C     0.16043   0.45568   0.90506   0.00000  Uiso   1.00
C1039  C     0.17635   0.54427   0.54857   0.00000  Uiso   1.00
C1040  C     0.15948   0.45364   0.95148   0.00000  Uiso   1.00
C1041  C     0.16968   0.49777   0.52330   0.00000  Uiso   1.00
C1042  C     0.16895   0.49999   0.97646   0.00000  Uiso   1.00
C1043  C     0.16183   0.44927   0.54503   0.00000  Uiso   1.00
C1044  C     0.15148   0.40190   0.75046   0.00000  Uiso   1.00
C1045  C     0.17501   0.54877   0.95497   0.00000  Uiso   1.00
C1046  C     0.18069   0.59211   0.52752   0.00000  Uiso   1.00
C1047  C     0.14758   0.40624   0.97339   0.00000  Uiso   1.00
C1048  C     0.21315   0.38403   0.62375   0.00000  Uiso   1.00
C1049  C     0.25934   0.38217   0.58336   0.00000  Uiso   1.00
C1050  C     0.31319   0.36051   0.59755   0.00000  Uiso   1.00
C1051  C     0.20681   0.61828   0.85963   0.00000  Uiso   1.00
C1052  C     0.24319   0.66053   0.88277   0.00000  Uiso   1.00
C1053  C     0.27775   0.36283   0.84840   0.00000  Uiso   1.00
C1054  C     0.00107   0.52647   0.67106   0.00000  Uiso   1.00
C1055  C     0.18043   0.59454   0.98105   0.00000  Uiso   1.00
C1056  C     0.31798   0.51498   0.62287   0.00000  Uiso   1.00
C1057  C     0.03472   0.50426   0.58925   0.00000  Uiso   1.00
C1058  C     0.01435   0.55840   0.82902   0.00000  Uiso   1.00
C1059  C     0.00069   0.51502   0.86395   0.00000  Uiso   1.00
C1060  C     0.01514   0.53283   0.91108   0.00000  Uiso   1.00
C1061  C     0.14900   0.40399   0.51990   0.00000  Uiso   1.00
C1062  C     0.18954   0.65262   0.74413   0.00000  Uiso   1.00
C1063  C     0.14365   0.34718   0.74958   0.00000  Uiso   1.00
C1064  C     0.16710   0.50236   0.83617   0.00000  Uiso   1.00
C1065  C     0.16625   0.49623   0.66395   0.00000  Uiso   1.00
C1066  C     0.16529   0.44743   0.59166   0.00000  Uiso   1.00
H1067  H     0.17907   0.57827   0.61494   0.00000  Uiso   1.00
H1068  H     0.22908   0.40831   0.65163   0.00000  Uiso   1.00
H1069  H     0.24405   0.35780   0.55543   0.00000  Uiso   1.00
H1070  H     0.27048   0.42145   0.56942   0.00000  Uiso   1.00
H1071  H     0.33000   0.38471   0.62537   0.00000  Uiso   1.00
H1072  H     0.01279   0.36082   0.56833   0.00000  Uiso   1.00
H1073  H     0.30413   0.65315   0.60909   0.00000  Uiso   1.00
H1074  H     0.18697   0.63683   0.83250   0.00000  Uiso   1.00
H1075  H     0.23393   0.58856   0.84333   0.00000  Uiso   1.00
H1076  H     0.21556   0.35176   0.90507   0.00000  Uiso   1.00
H1077  H     0.27215   0.64205   0.90390   0.00000  Uiso   1.00
H1078  H     0.15403   0.42017   0.88520   0.00000  Uiso   1.00
H1079  H     0.30323   0.34006   0.82273   0.00000  Uiso   1.00
H1080  H     0.30688   0.39001   0.86620   0.00000  Uiso   1.00
H1081  H     0.24897   0.38607   0.83084   0.00000  Uiso   1.00
H1082  H     0.04118   0.55140   0.66964   0.00000  Uiso   1.00
H1083  H     0.30217   0.55132   0.68814   0.00000  Uiso   1.00
H1084  H     0.28782   0.48064   0.62288   0.00000  Uiso   1.00
H1085  H     0.29707   0.54872   0.61089   0.00000  Uiso   1.00
H1086  H     0.06428   0.53943   0.58627   0.00000  Uiso   1.00
H1087  H     0.01979   0.49493   0.55548   0.00000  Uiso   1.00
H1088  H     0.05581   0.47043   0.60040   0.00000  Uiso   1.00
H1089  H     0.18270   0.62739   0.54747   0.00000  Uiso   1.00
H1090  H     0.33050   0.59421   0.84422   0.00000  Uiso   1.00
H1091  H     0.05975   0.57004   0.82144   0.00000  Uiso   1.00
H1092  H     0.28809   0.50326   0.86643   0.00000  Uiso   1.00
H1093  H     0.02337   0.47995   0.85322   0.00000  Uiso   1.00
H1094  H     0.05937   0.54965   0.90995   0.00000  Uiso   1.00
H1095  H     0.01005   0.49918   0.93414   0.00000  Uiso   1.00
H1096  H     0.31952   0.56266   0.92481   0.00000  Uiso   1.00
H1097  H     0.13610   0.37122   0.95461   0.00000  Uiso   1.00
H1098  H     0.18430   0.63228   0.96588   0.00000  Uiso   1.00
H1099  H     0.13869   0.36709   0.53621   0.00000  Uiso   1.00
H1100  H     0.23284   0.33643   0.73907   0.00000  Uiso   1.00
H1101  H     0.10034   0.66337   0.75454   0.00000  Uiso   1.00
H1102  H     0.20559   0.34414   0.63745   0.00000  Uiso   1.00
N1103  N     0.31678   0.48598   0.73783   0.00000  Uiso   1.00
N1104  N     0.01656   0.51402   0.76217   0.00000  Uiso   1.00
O1105  O     0.12975   0.57952   0.75298   0.00000  Uiso   1.00
O1106  O     0.16158   0.59773   0.88977   0.00000  Uiso   1.00
O1107  O     0.00642   0.47962   0.69472   0.00000  Uiso   1.00
O1108  O     0.32004   0.54668   0.78992   0.00000  Uiso   1.00
O1109  O     0.20358   0.42048   0.74701   0.00000  Uiso   1.00
O1110  O     0.22613   0.57054   0.74518   0.00000  Uiso   1.00
O1111  O     0.10720   0.42946   0.75481   0.00000  Uiso   1.00
O1112  O     0.11847   0.50450   0.81997   0.00000  Uiso   1.00
O1113  O     0.21486   0.49550   0.68002   0.00000  Uiso   1.00
O1114  O     0.21485   0.49552   0.81217   0.00000  Uiso   1.00
O1115  O     0.11848   0.50448   0.68782   0.00000  Uiso   1.00
O1116  O     0.15977   0.39963   0.61285   0.00000  Uiso   1.00
Zn1117 Zn    0.10231   0.50600   0.75521   0.00000  Uiso   1.00
Zn1118 Zn    0.23102   0.49400   0.74479   0.00000  Uiso   1.00
C1119  C     0.51515   0.59799   0.74714   0.00000  Uiso   1.00
C1120  C     0.50657   0.55098   0.90822   0.00000  Uiso   1.00
C1121  C     0.50142   0.49485   0.61617   0.00000  Uiso   1.00
C1122  C     0.50096   0.50352   0.88389   0.00000  Uiso   1.00
C1123  C     0.50871   0.54251   0.59499   0.00000  Uiso   1.00
C1124  C     0.49376   0.45568   0.90506   0.00000  Uiso   1.00
C1125  C     0.50968   0.54427   0.54857   0.00000  Uiso   1.00
C1126  C     0.49281   0.45364   0.95148   0.00000  Uiso   1.00
C1127  C     0.50302   0.49777   0.52330   0.00000  Uiso   1.00
C1128  C     0.50228   0.49999   0.97646   0.00000  Uiso   1.00
C1129  C     0.49516   0.44927   0.54503   0.00000  Uiso   1.00
C1130  C     0.48481   0.40190   0.75046   0.00000  Uiso   1.00
C1131  C     0.50834   0.54877   0.95497   0.00000  Uiso   1.00
C1132  C     0.51402   0.59211   0.52752   0.00000  Uiso   1.00
C1133  C     0.48091   0.40624   0.97339   0.00000  Uiso   1.00
C1134  C     0.54648   0.38403   0.62375   0.00000  Uiso   1.00
C1135  C     0.59268   0.38217   0.58336   0.00000  Uiso   1.00
C1136  C     0.64652   0.36051   0.59755   0.00000  Uiso   1.00
C1137  C     0.54014   0.61828   0.85963   0.00000  Uiso   1.00
C1138  C     0.57653   0.66053   0.88277   0.00000  Uiso   1.00
C1139  C     0.61108   0.36283   0.84840   0.00000  Uiso   1.00
C1140  C     0.33441   0.52647   0.67106   0.00000  Uiso   1.00
C1141  C     0.51376   0.59454   0.98105   0.00000  Uiso   1.00
C1142  C     0.65132   0.51498   0.62287   0.00000  Uiso   1.00
C1143  C     0.36805   0.50426   0.58925   0.00000  Uiso   1.00
C1144  C     0.34769   0.55840   0.82902   0.00000  Uiso   1.00
C1145  C     0.33402   0.51502   0.86395   0.00000  Uiso   1.00
C1146  C     0.34848   0.53283   0.91108   0.00000  Uiso   1.00
C1147  C     0.48233   0.40399   0.51990   0.00000  Uiso   1.00
C1148  C     0.52288   0.65262   0.74413   0.00000  Uiso   1.00
C1149  C     0.47698   0.34718   0.74958   0.00000  Uiso   1.00
C1150  C     0.50043   0.50236   0.83617   0.00000  Uiso   1.00
C1151  C     0.49959   0.49623   0.66395   0.00000  Uiso   1.00
C1152  C     0.49862   0.44743   0.59166   0.00000  Uiso   1.00
H1153  H     0.51240   0.57827   0.61494   0.00000  Uiso   1.00
H1154  H     0.56241   0.40831   0.65163   0.00000  Uiso   1.00
H1155  H     0.57738   0.35780   0.55543   0.00000  Uiso   1.00
H1156  H     0.60381   0.42145   0.56942   0.00000  Uiso   1.00
H1157  H     0.66333   0.38471   0.62537   0.00000  Uiso   1.00
H1158  H     0.34612   0.36082   0.56833   0.00000  Uiso   1.00
H1159  H     0.63746   0.65315   0.60909   0.00000  Uiso   1.00
H1160  H     0.52030   0.63683   0.83250   0.00000  Uiso   1.00
H1161  H     0.56726   0.58856   0.84333   0.00000  Uiso   1.00
H1162  H     0.54890   0.35176   0.90507   0.00000  Uiso   1.00
H1163  H     0.60548   0.64205   0.90390   0.00000  Uiso   1.00
H1164  H     0.48736   0.42017   0.88520   0.00000  Uiso   1.00
H1165  H     0.63656   0.34006   0.82273   0.00000  Uiso   1.00
H1166  H     0.64021   0.39001   0.86620   0.00000  Uiso   1.00
H1167  H     0.58231   0.38607   0.83084   0.00000  Uiso   1.00
H1168  H     0.37451   0.55140   0.66964   0.00000  Uiso   1.00
H1169  H     0.63551   0.55132   0.68814   0.00000  Uiso   1.00
H1170  H     0.62115   0.48064   0.62288   0.00000  Uiso   1.00
H1171  H     0.63041   0.54872   0.61089   0.00000  Uiso   1.00
H1172  H     0.39761   0.53943   0.58627   0.00000  Uiso   1.00
H1173  H     0.35312   0.49493   0.55548   0.00000  Uiso   1.00
H1174  H     0.38914   0.47043   0.60040   0.00000  Uiso   1.00
H1175  H     0.51603   0.62739   0.54747   0.00000  Uiso   1.00
H1176  H     0.66383   0.59421   0.84422   0.00000  Uiso   1.00
H1177  H     0.39308   0.57004   0.82144   0.00000  Uiso   1.00
H1178  H     0.62143   0.50326   0.86643   0.00000  Uiso   1.00
H1179  H     0.35670   0.47995   0.85322   0.00000  Uiso   1.00
H1180  H     0.39271   0.54965   0.90995   0.00000  Uiso   1.00
H1181  H     0.34338   0.49918   0.93414   0.00000  Uiso   1.00
H1182  H     0.65285   0.56266   0.92481   0.00000  Uiso   1.00
H1183  H     0.46943   0.37122   0.95461   0.00000  Uiso   1.00
H1184  H     0.51763   0.63228   0.96588   0.00000  Uiso   1.00
H1185  H     0.47202   0.36709   0.53621   0.00000  Uiso   1.00
H1186  H     0.56617   0.33643   0.73907   0.00000  Uiso   1.00
H1187  H     0.43368   0.66337   0.75454   0.00000  Uiso   1.00
H1188  H     0.53893   0.34414   0.63745   0.00000  Uiso   1.00
N1189  N     0.65011   0.48598   0.73783   0.00000  Uiso   1.00
N1190  N     0.34989   0.51402   0.76217   0.00000  Uiso   1.00
O1191  O     0.46308   0.57952   0.75298   0.00000  Uiso   1.00
O1192  O     0.49492   0.59773   0.88977   0.00000  Uiso   1.00
O1193  O     0.33975   0.47962   0.69472   0.00000  Uiso   1.00
O1194  O     0.65337   0.54668   0.78992   0.00000  Uiso   1.00
O1195  O     0.53692   0.42048   0.74701   0.00000  Uiso   1.00
O1196  O     0.55946   0.57054   0.74518   0.00000  Uiso   1.00
O1197  O     0.44054   0.42946   0.75481   0.00000  Uiso   1.00
O1198  O     0.45181   0.50450   0.81997   0.00000  Uiso   1.00
O1199  O     0.54819   0.49550   0.68002   0.00000  Uiso   1.00
O1200  O     0.54819   0.49552   0.81217   0.00000  Uiso   1.00
O1201  O     0.45181   0.50448   0.68782   0.00000  Uiso   1.00
O1202  O     0.49311   0.39963   0.61285   0.00000  Uiso   1.00
Zn1203 Zn    0.43565   0.50600   0.75521   0.00000  Uiso   1.00
Zn1204 Zn    0.56435   0.49400   0.74479   0.00000  Uiso   1.00
C1205  C     0.84848   0.59799   0.74714   0.00000  Uiso   1.00
C1206  C     0.83990   0.55098   0.90822   0.00000  Uiso   1.00
C1207  C     0.83475   0.49485   0.61617   0.00000  Uiso   1.00
C1208  C     0.83429   0.50352   0.88389   0.00000  Uiso   1.00
C1209  C     0.84204   0.54251   0.59499   0.00000  Uiso   1.00
C1210  C     0.82710   0.45568   0.90506   0.00000  Uiso   1.00
C1211  C     0.84301   0.54427   0.54857   0.00000  Uiso   1.00
C1212  C     0.82614   0.45364   0.95148   0.00000  Uiso   1.00
C1213  C     0.83635   0.49777   0.52330   0.00000  Uiso   1.00
C1214  C     0.83561   0.49999   0.97646   0.00000  Uiso   1.00
C1215  C     0.82850   0.44927   0.54503   0.00000  Uiso   1.00
C1216  C     0.81815   0.40190   0.75046   0.00000  Uiso   1.00
C1217  C     0.84168   0.54877   0.95497   0.00000  Uiso   1.00
C1218  C     0.84735   0.59211   0.52752   0.00000  Uiso   1.00
C1219  C     0.81425   0.40624   0.97339   0.00000  Uiso   1.00
C1220  C     0.87982   0.38403   0.62375   0.00000  Uiso   1.00
C1221  C     0.92601   0.38217   0.58336   0.00000  Uiso   1.00
C1222  C     0.97985   0.36051   0.59755   0.00000  Uiso   1.00
C1223  C     0.87347   0.61828   0.85963   0.00000  Uiso   1.00
C1224  C     0.90986   0.66053   0.88277   0.00000  Uiso   1.00
C1225  C     0.94441   0.36283   0.84840   0.00000  Uiso   1.00
C1226  C     0.66774   0.52647   0.67106   0.00000  Uiso   1.00
C1227  C     0.84710   0.59454   0.98105   0.00000  Uiso   1.00
C1228  C     0.98465   0.51498   0.62287   0.00000  Uiso   1.00
C1229  C     0.70139   0.50426   0.58925   0.00000  Uiso   1.00
C1230  C     0.68102   0.55840   0.82902   0.00000  Uiso   1.00
C1231  C     0.66736   0.51502   0.86395   0.00000  Uiso   1.00
C1232  C     0.68181   0.53283   0.91108   0.00000  Uiso   1.00
C1233  C     0.81566   0.40399   0.51990   0.00000  Uiso   1.00
C1234  C     0.85621   0.65262   0.74413   0.00000  Uiso   1.00
C1235  C     0.81032   0.34718   0.74958   0.00000  Uiso   1.00
C1236  C     0.83376   0.50236   0.83617   0.00000  Uiso   1.00
C1237  C     0.83292   0.49623   0.66395   0.00000  Uiso   1.00
C1238  C     0.83196   0.44743   0.59166   0.00000  Uiso   1.00
H1239  H     0.84573   0.57827   0.61494   0.00000  Uiso   1.00
H1240  H     0.89575   0.40831   0.65163   0.00000  Uiso   1.00
H1241  H     0.91071   0.35780   0.55543   0.00000  Uiso   1.00
H1242  H     0.93714   0.42145   0.56942   0.00000  Uiso   1.00
H1243  H     0.99666   0.38471   0.62537   0.00000  Uiso   1.00
H1244  H     0.67946   0.36082   0.56833   0.00000  Uiso   1.00
H1245  H     0.97080   0.65315   0.60909   0.00000  Uiso   1.00
H1246  H     0.85364   0.63683   0.83250   0.00000  Uiso   1.00
H1247  H     0.90059   0.58856   0.84333   0.00000  Uiso   1.00
H1248  H     0.88223   0.35176   0.90507   0.00000  Uiso   1.00
H1249  H     0.93881   0.64205   0.90390   0.00000  Uiso   1.00
H1250  H     0.82070   0.42017   0.88520   0.00000  Uiso   1.00
H1251  H     0.96989   0.34006   0.82273   0.00000  Uiso   1.00
H1252  H     0.97355   0.39001   0.86620   0.00000  Uiso   1.00
H1253  H     0.91564   0.38607   0.83084   0.00000  Uiso   1.00
H1254  H     0.70784   0.55140   0.66964   0.00000  Uiso   1.00
H1255  H     0.96884   0.55132   0.68814   0.00000  Uiso   1.00
H1256  H     0.95449   0.48064   0.62288   0.00000  Uiso   1.00
H1257  H     0.96374   0.54872   0.61089   0.00000  Uiso   1.00
H1258  H     0.73095   0.53943   0.58627   0.00000  Uiso   1.00
H1259  H     0.68646   0.49493   0.55548   0.00000  Uiso   1.00
H1260  H     0.72248   0.47043   0.60040   0.00000  Uiso   1.00
H1261  H     0.84937   0.62739   0.54747   0.00000  Uiso   1.00
H1262  H     0.99716   0.59421   0.84422   0.00000  Uiso   1.00
H1263  H     0.72641   0.57004   0.82144   0.00000  Uiso   1.00
H1264  H     0.95476   0.50326   0.86643   0.00000  Uiso   1.00
H1265  H     0.69003   0.47995   0.85322   0.00000  Uiso   1.00
H1266  H     0.72604   0.54965   0.90995   0.00000  Uiso   1.00
H1267  H     0.67671   0.49918   0.93414   0.00000  Uiso   1.00
H1268  H     0.98618   0.56266   0.92481   0.00000  Uiso   1.00
H1269  H     0.80276   0.37122   0.95461   0.00000  Uiso   1.00
H1270  H     0.85097   0.63228   0.96588   0.00000  Uiso   1.00
H1271  H     0.80536   0.36709   0.53621   0.00000  Uiso   1.00
H1272  H     0.89950   0.33643   0.73907   0.00000  Uiso   1.00
H1273  H     0.76701   0.66337   0.75454   0.00000  Uiso   1.00
H1274  H     0.87226   0.34414   0.63745   0.00000  Uiso   1.00
N1275  N     0.98344   0.48598   0.73783   0.00000  Uiso   1.00
N1276  N     0.68322   0.51402   0.76217   0.00000  Uiso   1.00
O1277  O     0.79642   0.57952   0.75298   0.00000  Uiso   1.00
O1278  O     0.82825   0.59773   0.88977   0.00000  Uiso   1.00
O1279  O     0.67308   0.47962   0.69472   0.00000  Uiso   1.00
O1280  O     0.98671   0.54668   0.78992   0.00000  Uiso   1.00
O1281  O     0.87025   0.42048   0.74701   0.00000  Uiso   1.00
O1282  O     0.89280   0.57054   0.74518   0.00000  Uiso   1.00
O1283  O     0.77387   0.42946   0.75481   0.00000  Uiso   1.00
O1284  O     0.78514   0.50450   0.81997   0.00000  Uiso   1.00
O1285  O     0.88153   0.49550   0.68002   0.00000  Uiso   1.00
O1286  O     0.88152   0.49552   0.81217   0.00000  Uiso   1.00
O1287  O     0.78515   0.50448   0.68782   0.00000  Uiso   1.00
O1288  O     0.82644   0.39963   0.61285   0.00000  Uiso   1.00
Zn1289 Zn    0.76898   0.50600   0.75521   0.00000  Uiso   1.00
Zn1290 Zn    0.89769   0.49400   0.74479   0.00000  Uiso   1.00
C1291  C     0.18182   0.93132   0.74714   0.00000  Uiso   1.00
C1292  C     0.17324   0.88431   0.90822   0.00000  Uiso   1.00
C1293  C     0.16808   0.82818   0.61617   0.00000  Uiso   1.00
C1294  C     0.16763   0.83685   0.88389   0.00000  Uiso   1.00
C1295  C     0.17537   0.87584   0.59499   0.00000  Uiso   1.00
C1296  C     0.16043   0.78901   0.90506   0.00000  Uiso   1.00
C1297  C     0.17635   0.87760   0.54857   0.00000  Uiso   1.00
C1298  C     0.15948   0.78698   0.95148   0.00000  Uiso   1.00
C1299  C     0.16968   0.83110   0.52330   0.00000  Uiso   1.00
C1300  C     0.16895   0.83332   0.97646   0.00000  Uiso   1.00
C1301  C     0.16183   0.78261   0.54503   0.00000  Uiso   1.00
C1302  C     0.15148   0.73523   0.75046   0.00000  Uiso   1.00
C1303  C     0.17501   0.88211   0.95497   0.00000  Uiso   1.00
C1304  C     0.18069   0.92544   0.52752   0.00000  Uiso   1.00
C1305  C     0.14758   0.73958   0.97339   0.00000  Uiso   1.00
C1306  C     0.21315   0.71736   0.62375   0.00000  Uiso   1.00
C1307  C     0.25934   0.71551   0.58336   0.00000  Uiso   1.00
C1308  C     0.31319   0.69384   0.59755   0.00000  Uiso   1.00
C1309  C     0.20681   0.95161   0.85963   0.00000  Uiso   1.00
C1310  C     0.24319   0.99386   0.88277   0.00000  Uiso   1.00
C1311  C     0.27775   0.69616   0.84840   0.00000  Uiso   1.00
C1312  C     0.00107   0.85980   0.67106   0.00000  Uiso   1.00
C1313  C     0.18043   0.92788   0.98105   0.00000  Uiso   1.00
C1314  C     0.31798   0.84831   0.62287   0.00000  Uiso   1.00
C1315  C     0.03472   0.83759   0.58925   0.00000  Uiso   1.00
C1316  C     0.01435   0.89174   0.82902   0.00000  Uiso   1.00
C1317  C     0.00069   0.84835   0.86395   0.00000  Uiso   1.00
C1318  C     0.01514   0.86617   0.91108   0.00000  Uiso   1.00
C1319  C     0.14900   0.73732   0.51990   0.00000  Uiso   1.00
C1320  C     0.18954   0.98595   0.74413   0.00000  Uiso   1.00
C1321  C     0.14365   0.68052   0.74958   0.00000  Uiso   1.00
C1322  C     0.16710   0.83569   0.83617   0.00000  Uiso   1.00
C1323  C     0.16625   0.82956   0.66395   0.00000  Uiso   1.00
C1324  C     0.16529   0.78077   0.59166   0.00000  Uiso   1.00
H1325  H     0.17907   0.91161   0.61494   0.00000  Uiso   1.00
H1326  H     0.22908   0.74164   0.65163   0.00000  Uiso   1.00
H1327  H     0.24405   0.69113   0.55543   0.00000  Uiso   1.00
H1328  H     0.27048   0.75478   0.56942   0.00000  Uiso   1.00
H1329  H     0.33000   0.71805   0.62537   0.00000  Uiso   1.00
H1330  H     0.01279   0.69415   0.56833   0.00000  Uiso   1.00
H1331  H     0.30413   0.98649   0.60909   0.00000  Uiso   1.00
H1332  H     0.18697   0.97016   0.83250   0.00000  Uiso   1.00
H1333  H     0.23393   0.92190   0.84333   0.00000  Uiso   1.00
H1334  H     0.21556   0.68509   0.90507   0.00000  Uiso   1.00
H1335  H     0.27215   0.97538   0.90390   0.00000  Uiso   1.00
H1336  H     0.15403   0.75351   0.88520   0.00000  Uiso   1.00
H1337  H     0.30323   0.67340   0.82273   0.00000  Uiso   1.00
H1338  H     0.30688   0.72334   0.86620   0.00000  Uiso   1.00
H1339  H     0.24897   0.71940   0.83084   0.00000  Uiso   1.00
H1340  H     0.04118   0.88473   0.66964   0.00000  Uiso   1.00
H1341  H     0.30217   0.88465   0.68814   0.00000  Uiso   1.00
H1342  H     0.28782   0.81397   0.62288   0.00000  Uiso   1.00
H1343  H     0.29707   0.88206   0.61089   0.00000  Uiso   1.00
H1344  H     0.06428   0.87276   0.58627   0.00000  Uiso   1.00
H1345  H     0.01979   0.82826   0.55548   0.00000  Uiso   1.00
H1346  H     0.05581   0.80376   0.60040   0.00000  Uiso   1.00
H1347  H     0.18270   0.96072   0.54747   0.00000  Uiso   1.00
H1348  H     0.33050   0.92755   0.84422   0.00000  Uiso   1.00
H1349  H     0.05975   0.90337   0.82144   0.00000  Uiso   1.00
H1350  H     0.28809   0.83660   0.86643   0.00000  Uiso   1.00
H1351  H     0.02337   0.81328   0.85322   0.00000  Uiso   1.00
H1352  H     0.05937   0.88299   0.90995   0.00000  Uiso   1.00
H1353  H     0.01005   0.83251   0.93414   0.00000  Uiso   1.00
H1354  H     0.31952   0.89600   0.92481   0.00000  Uiso   1.00
H1355  H     0.13610   0.70456   0.95461   0.00000  Uiso   1.00
H1356  H     0.18430   0.96561   0.96588   0.00000  Uiso   1.00
H1357  H     0.13869   0.70042   0.53621   0.00000  Uiso   1.00
H1358  H     0.23284   0.66977   0.73907   0.00000  Uiso   1.00
H1359  H     0.10034   0.99670   0.75454   0.00000  Uiso   1.00
H1360  H     0.20559   0.67748   0.63745   0.00000  Uiso   1.00
N1361  N     0.31678   0.81932   0.73783   0.00000  Uiso   1.00
N1362  N     0.01656   0.84735   0.76217   0.00000  Uiso   1.00
O1363  O     0.12975   0.91286   0.75298   0.00000  Uiso   1.00
O1364  O     0.16158   0.93106   0.88977   0.00000  Uiso   1.00
O1365  O     0.00642   0.81295   0.69472   0.00000  Uiso   1.00
O1366  O     0.32004   0.88001   0.78992   0.00000  Uiso   1.00
O1367  O     0.20358   0.75381   0.74701   0.00000  Uiso   1.00
O1368  O     0.22613   0.90387   0.74518   0.00000  Uiso   1.00
O1369  O     0.10720   0.76279   0.75481   0.00000  Uiso   1.00
O1370  O     0.11847   0.83784   0.81997   0.00000  Uiso   1.00
O1371  O     0.21486   0.82883   0.68002   0.00000  Uiso   1.00
O1372  O     0.21485   0.82885   0.81217   0.00000  Uiso   1.00
O1373  O     0.11848   0.83781   0.68782   0.00000  Uiso   1.00
O1374  O     0.15977   0.73296   0.61285   0.00000  Uiso   1.00
Zn1375 Zn    0.10231   0.83933   0.75521   0.00000  Uiso   1.00
Zn1376 Zn    0.23102   0.82734   0.74479   0.00000  Uiso   1.00
C1377  C     0.51515   0.93132   0.74714   0.00000  Uiso   1.00
C1378  C     0.50657   0.88431   0.90822   0.00000  Uiso   1.00
C1379  C     0.50142   0.82818   0.61617   0.00000  Uiso   1.00
C1380  C     0.50096   0.83685   0.88389   0.00000  Uiso   1.00
C1381  C     0.50871   0.87584   0.59499   0.00000  Uiso   1.00
C1382  C     0.49376   0.78901   0.90506   0.00000  Uiso   1.00
C1383  C     0.50968   0.87760   0.54857   0.00000  Uiso   1.00
C1384  C     0.49281   0.78698   0.95148   0.00000  Uiso   1.00
C1385  C     0.50302   0.83110   0.52330   0.00000  Uiso   1.00
C1386  C     0.50228   0.83332   0.97646   0.00000  Uiso   1.00
C1387  C     0.49516   0.78261   0.54503   0.00000  Uiso   1.00
C1388  C     0.48481   0.73523   0.75046   0.00000  Uiso   1.00
C1389  C     0.50834   0.88211   0.95497   0.00000  Uiso   1.00
C1390  C     0.51402   0.92544   0.52752   0.00000  Uiso   1.00
C1391  C     0.48091   0.73958   0.97339   0.00000  Uiso   1.00
C1392  C     0.54648   0.71736   0.62375   0.00000  Uiso   1.00
C1393  C     0.59268   0.71551   0.58336   0.00000  Uiso   1.00
C1394  C     0.64652   0.69384   0.59755   0.00000  Uiso   1.00
C1395  C     0.54014   0.95161   0.85963   0.00000  Uiso   1.00
C1396  C     0.57653   0.99386   0.88277   0.00000  Uiso   1.00
C1397  C     0.61108   0.69616   0.84840   0.00000  Uiso   1.00
C1398  C     0.33441   0.85980   0.67106   0.00000  Uiso   1.00
C1399  C     0.51376   0.92788   0.98105   0.00000  Uiso   1.00
C1400  C     0.65132   0.84831   0.62287   0.00000  Uiso   1.00
C1401  C     0.36805   0.83759   0.58925   0.00000  Uiso   1.00
C1402  C     0.34769   0.89174   0.82902   0.00000  Uiso   1.00
C1403  C     0.33402   0.84835   0.86395   0.00000  Uiso   1.00
C1404  C     0.34848   0.86617   0.91108   0.00000  Uiso   1.00
C1405  C     0.48233   0.73732   0.51990   0.00000  Uiso   1.00
C1406  C     0.52288   0.98595   0.74413   0.00000  Uiso   1.00
C1407  C     0.47698   0.68052   0.74958   0.00000  Uiso   1.00
C1408  C     0.50043   0.83569   0.83617   0.00000  Uiso   1.00
C1409  C     0.49959   0.82956   0.66395   0.00000  Uiso   1.00
C1410  C     0.49862   0.78077   0.59166   0.00000  Uiso   1.00
H1411  H     0.51240   0.91161   0.61494   0.00000  Uiso   1.00
H1412  H     0.56241   0.74164   0.65163   0.00000  Uiso   1.00
H1413  H     0.57738   0.69113   0.55543   0.00000  Uiso   1.00
H1414  H     0.60381   0.75478   0.56942   0.00000  Uiso   1.00
H1415  H     0.66333   0.71805   0.62537   0.00000  Uiso   1.00
H1416  H     0.34612   0.69415   0.56833   0.00000  Uiso   1.00
H1417  H     0.63746   0.98649   0.60909   0.00000  Uiso   1.00
H1418  H     0.52030   0.97016   0.83250   0.00000  Uiso   1.00
H1419  H     0.56726   0.92190   0.84333   0.00000  Uiso   1.00
H1420  H     0.54890   0.68509   0.90507   0.00000  Uiso   1.00
H1421  H     0.60548   0.97538   0.90390   0.00000  Uiso   1.00
H1422  H     0.48736   0.75351   0.88520   0.00000  Uiso   1.00
H1423  H     0.63656   0.67340   0.82273   0.00000  Uiso   1.00
H1424  H     0.64021   0.72334   0.86620   0.00000  Uiso   1.00
H1425  H     0.58231   0.71940   0.83084   0.00000  Uiso   1.00
H1426  H     0.37451   0.88473   0.66964   0.00000  Uiso   1.00
H1427  H     0.63551   0.88465   0.68814   0.00000  Uiso   1.00
H1428  H     0.62115   0.81397   0.62288   0.00000  Uiso   1.00
H1429  H     0.63041   0.88206   0.61089   0.00000  Uiso   1.00
H1430  H     0.39761   0.87276   0.58627   0.00000  Uiso   1.00
H1431  H     0.35312   0.82826   0.55548   0.00000  Uiso   1.00
H1432  H     0.38914   0.80376   0.60040   0.00000  Uiso   1.00
H1433  H     0.51603   0.96072   0.54747   0.00000  Uiso   1.00
H1434  H     0.66383   0.92755   0.84422   0.00000  Uiso   1.00
H1435  H     0.39308   0.90337   0.82144   0.00000  Uiso   1.00
H1436  H     0.62143   0.83660   0.86643   0.00000  Uiso   1.00
H1437  H     0.35670   0.81328   0.85322   0.00000  Uiso   1.00
H1438  H     0.39271   0.88299   0.90995   0.00000  Uiso   1.00
H1439  H     0.34338   0.83251   0.93414   0.00000  Uiso   1.00
H1440  H     0.65285   0.89600   0.92481   0.00000  Uiso   1.00
H1441  H     0.46943   0.70456   0.95461   0.00000  Uiso   1.00
H1442  H     0.51763   0.96561   0.96588   0.00000  Uiso   1.00
H1443  H     0.47202   0.70042   0.53621   0.00000  Uiso   1.00
H1444  H     0.56617   0.66977   0.73907   0.00000  Uiso   1.00
H1445  H     0.43368   0.99670   0.75454   0.00000  Uiso   1.00
H1446  H     0.53893   0.67748   0.63745   0.00000  Uiso   1.00
N1447  N     0.65011   0.81932   0.73783   0.00000  Uiso   1.00
N1448  N     0.34989   0.84735   0.76217   0.00000  Uiso   1.00
O1449  O     0.46308   0.91286   0.75298   0.00000  Uiso   1.00
O1450  O     0.49492   0.93106   0.88977   0.00000  Uiso   1.00
O1451  O     0.33975   0.81295   0.69472   0.00000  Uiso   1.00
O1452  O     0.65337   0.88001   0.78992   0.00000  Uiso   1.00
O1453  O     0.53692   0.75381   0.74701   0.00000  Uiso   1.00
O1454  O     0.55946   0.90387   0.74518   0.00000  Uiso   1.00
O1455  O     0.44054   0.76279   0.75481   0.00000  Uiso   1.00
O1456  O     0.45181   0.83784   0.81997   0.00000  Uiso   1.00
O1457  O     0.54819   0.82883   0.68002   0.00000  Uiso   1.00
O1458  O     0.54819   0.82885   0.81217   0.00000  Uiso   1.00
O1459  O     0.45181   0.83781   0.68782   0.00000  Uiso   1.00
O1460  O     0.49311   0.73296   0.61285   0.00000  Uiso   1.00
Zn1461 Zn    0.43565   0.83933   0.75521   0.00000  Uiso   1.00
Zn1462 Zn    0.56435   0.82734   0.74479   0.00000  Uiso   1.00
C1463  C     0.84848   0.93132   0.74714   0.00000  Uiso   1.00
C1464  C     0.83990   0.88431   0.90822   0.00000  Uiso   1.00
C1465  C     0.83475   0.82818   0.61617   0.00000  Uiso   1.00
C1466  C     0.83429   0.83685   0.88389   0.00000  Uiso   1.00
C1467  C     0.84204   0.87584   0.59499   0.00000  Uiso   1.00
C1468  C     0.82710   0.78901   0.90506   0.00000  Uiso   1.00
C1469  C     0.84301   0.87760   0.54857   0.00000  Uiso   1.00
C1470  C     0.82614   0.78698   0.95148   0.00000  Uiso   1.00
C1471  C     0.83635   0.83110   0.52330   0.00000  Uiso   1.00
C1472  C     0.83561   0.83332   0.97646   0.00000  Uiso   1.00
C1473  C     0.82850   0.78261   0.54503   0.00000  Uiso   1.00
C1474  C     0.81815   0.73523   0.75046   0.00000  Uiso   1.00
C1475  C     0.84168   0.88211   0.95497   0.00000  Uiso   1.00
C1476  C     0.84735   0.92544   0.52752   0.00000  Uiso   1.00
C1477  C     0.81425   0.73958   0.97339   0.00000  Uiso   1.00
C1478  C     0.87982   0.71736   0.62375   0.00000  Uiso   1.00
C1479  C     0.92601   0.71551   0.58336   0.00000  Uiso   1.00
C1480  C     0.97985   0.69384   0.59755   0.00000  Uiso   1.00
C1481  C     0.87347   0.95161   0.85963   0.00000  Uiso   1.00
C1482  C     0.90986   0.99386   0.88277   0.00000  Uiso   1.00
C1483  C     0.94441   0.69616   0.84840   0.00000  Uiso   1.00
C1484  C     0.66774   0.85980   0.67106   0.00000  Uiso   1.00
C1485  C     0.84710   0.92788   0.98105   0.00000  Uiso   1.00
C1486  C     0.98465   0.84831   0.62287   0.00000  Uiso   1.00
C1487  C     0.70139   0.83759   0.58925   0.00000  Uiso   1.00
C1488  C     0.68102   0.89174   0.82902   0.00000  Uiso   1.00
C1489  C     0.66736   0.84835   0.86395   0.00000  Uiso   1.00
C1490  C     0.68181   0.86617   0.91108   0.00000  Uiso   1.00
C1491  C     0.81566   0.73732   0.51990   0.00000  Uiso   1.00
C1492  C     0.85621   0.98595   0.74413   0.00000  Uiso   1.00
C1493  C     0.81032   0.68052   0.74958   0.00000  Uiso   1.00
C1494  C     0.83376   0.83569   0.83617   0.00000  Uiso   1.00
C1495  C     0.83292   0.82956   0.66395   0.00000  Uiso   1.00
C1496  C     0.83196   0.78077   0.59166   0.00000  Uiso   1.00
H1497  H     0.84573   0.91161   0.61494   0.00000  Uiso   1.00
H1498  H     0.89575   0.74164   0.65163   0.00000  Uiso   1.00
H1499  H     0.91071   0.69113   0.55543   0.00000  Uiso   1.00
H1500  H     0.93714   0.75478   0.56942   0.00000  Uiso   1.00
H1501  H     0.99666   0.71805   0.62537   0.00000  Uiso   1.00
H1502  H     0.67946   0.69415   0.56833   0.00000  Uiso   1.00
H1503  H     0.97080   0.98649   0.60909   0.00000  Uiso   1.00
H1504  H     0.85364   0.97016   0.83250   0.00000  Uiso   1.00
H1505  H     0.90059   0.92190   0.84333   0.00000  Uiso   1.00
H1506  H     0.88223   0.68509   0.90507   0.00000  Uiso   1.00
H1507  H     0.93881   0.97538   0.90390   0.00000  Uiso   1.00
H1508  H     0.82070   0.75351   0.88520   0.00000  Uiso   1.00
H1509  H     0.96989   0.67340   0.82273   0.00000  Uiso   1.00
H1510  H     0.97355   0.72334   0.86620   0.00000  Uiso   1.00
H1511  H     0.91564   0.71940   0.83084   0.00000  Uiso   1.00
H1512  H     0.70784   0.88473   0.66964   0.00000  Uiso   1.00
H1513  H     0.96884   0.88465   0.68814   0.00000  Uiso   1.00
H1514  H     0.95449   0.81397   0.62288   0.00000  Uiso   1.00
H1515  H     0.96374   0.88206   0.61089   0.00000  Uiso   1.00
H1516  H     0.73095   0.87276   0.58627   0.00000  Uiso   1.00
H1517  H     0.68646   0.82826   0.55548   0.00000  Uiso   1.00
H1518  H     0.72248   0.80376   0.60040   0.00000  Uiso   1.00
H1519  H     0.84937   0.96072   0.54747   0.00000  Uiso   1.00
H1520  H     0.99716   0.92755   0.84422   0.00000  Uiso   1.00
H1521  H     0.72641   0.90337   0.82144   0.00000  Uiso   1.00
H1522  H     0.95476   0.83660   0.86643   0.00000  Uiso   1.00
H1523  H     0.69003   0.81328   0.85322   0.00000  Uiso   1.00
H1524  H     0.72604   0.88299   0.90995   0.00000  Uiso   1.00
H1525  H     0.67671   0.83251   0.93414   0.00000  Uiso   1.00
H1526  H     0.98618   0.89600   0.92481   0.00000  Uiso   1.00
H1527  H     0.80276   0.70456   0.95461   0.00000  Uiso   1.00
H1528  H     0.85097   0.96561   0.96588   0.00000  Uiso   1.00
H1529  H     0.80536   0.70042   0.53621   0.00000  Uiso   1.00
H1530  H     0.89950   0.66977   0.73907   0.00000  Uiso   1.00
H1531  H     0.76701   0.99670   0.75454   0.00000  Uiso   1.00
H1532  H     0.87226   0.67748   0.63745   0.00000  Uiso   1.00
N1533  N     0.98344   0.81932   0.73783   0.00000  Uiso   1.00
N1534  N     0.68322   0.84735   0.76217   0.00000  Uiso   1.00
O1535  O     0.79642   0.91286   0.75298   0.00000  Uiso   1.00
O1536  O     0.82825   0.93106   0.88977   0.00000  Uiso   1.00
O1537  O     0.67308   0.81295   0.69472   0.00000  Uiso   1.00
O1538  O     0.98671   0.88001   0.78992   0.00000  Uiso   1.00
O1539  O     0.87025   0.75381   0.74701   0.00000  Uiso   1.00
O1540  O     0.89280   0.90387   0.74518   0.00000  Uiso   1.00
O1541  O     0.77387   0.76279   0.75481   0.00000  Uiso   1.00
O1542  O     0.78514   0.83784   0.81997   0.00000  Uiso   1.00
O1543  O     0.88153   0.82883   0.68002   0.00000  Uiso   1.00
O1544  O     0.88152   0.82885   0.81217   0.00000  Uiso   1.00
O1545  O     0.78515   0.83781   0.68782   0.00000  Uiso   1.00
O1546  O     0.82644   0.73296   0.61285   0.00000  Uiso   1.00
Zn1547 Zn    0.76898   0.83933   0.75521   0.00000  Uiso   1.00
Zn1548 Zn    0.89769   0.82734   0.74479   0.00000  Uiso   1.00
loop_
_geom_bond_atom_site_label_1
_geom_bond_atom_site_label_2
_geom_bond_distance
_geom_bond_site_symmetry_2
_ccdc_geom_bond_type
C1     O78     1.302   .     A
C1     O73     1.289   .     A
C1     C30     1.411   .     S
C2     C13     1.396   .     A
C2     O74     1.391   .     S
C2     C4      1.410   .     A
C3     C33     1.415   .     S
C3     C34     1.408   .     A
C3     C5      1.386   .     A
C4     C6      1.389   .     A
C4     C32     1.418   .     S
C5     C7      1.378   .     A
C5     H35     1.087   .     S
C6     C8      1.379   .     A
C6     H46     1.086   .     S
C7     C14     1.388   .     A
C7     C9      1.406   .     A
C8     C15     1.396   .     A
C8     C10     1.407   .     A
C9     C11     1.412   .     A
C9     C784    1.395   1_554 S
C10    C13     1.415   .     A
C10    C783    1.395   .     S
C11    C34     1.397   .     A
C11    C29     1.401   .     A
C12    O79     1.302   .     A
C12    O77     1.289   .     A
C12    C31     1.409   .     S
C13    C23     1.401   .     A
C14    H57     1.074   .     S
C14    C797    1.383   1_554 S
C15    H65     1.082   .     S
C15    C803    1.387   .     S
C16    O84     1.422   .     S
C16    C17     1.548   .     S
C16    H70     1.111   .     S
C16    H36     1.105   .     S
C17    C18     1.527   .     S
C17    H37     1.102   .     S
C17    H38     1.108   .     S
C18    H39     1.111   .     S
C18    H126    1.111   .     S
C18    H557    1.111   1_545 S
C19    C20     1.533   .     S
C19    H42     1.104   .     S
C19    H43     1.107   .     S
C19    O74     1.412   .     S
C20    H45     1.110   .     S
C20    C279    1.529   .     S
C20    H302    1.106   .     S
C21    H49     1.111   .     S
C21    H48     1.110   .     S
C21    H47     1.109   .     S
C21    C536    1.529   1_545 S
C22    H50     1.108   .     S
C22    O75     1.430   .     S
C22    C196    1.535   1_455 S
C22    H223    1.109   1_455 S
C23    H66     1.076   .     S
C23    C788    1.383   .     S
C24    H52     1.099   .     S
C24    H53     1.112   .     S
C24    C108    1.535   .     S
C24    C111    1.513   .     S
C25    H56     1.107   .     S
C25    H54     1.106   .     S
C25    H55     1.111   .     S
C25    C196    1.513   1_455 S
C26    C27     1.540   .     S
C26    H59     1.101   .     S
C26    H230    1.104   1_455 S
C26    O248    1.404   1_455 S
C27    H61     1.108   .     S
C27    C28     1.525   .     S
C27    H232    1.106   1_455 S
C28    H63     1.111   .     S
C28    H62     1.104   .     S
C28    H236    1.111   1_455 S
C29    H67     1.079   .     S
C29    C789    1.387   1_554 S
C30    C289    1.340   .     S
C30    H326    1.088   .     S
C31    C546    1.340   1_545 S
C31    H585    1.088   1_545 S
C32    O80     1.296   .     A
C32    O82     1.300   .     A
C33    O83     1.306   .     A
C33    O81     1.290   .     A
C34    O84     1.389   .     S
H40    C190    1.111   1_455 S
H41    C276    1.111   .     S
H44    C536    1.106   1_545 S
H51    C108    1.109   .     S
H58    C112    1.104   .     S
H60    C113    1.106   .     S
H64    C114    1.111   .     S
H68    C546    1.088   1_545 S
H69    C289    1.088   .     S
N71    Zn86    2.048   .     S
N71    N158    1.290   .     S
N71    O161    1.354   .     S
N72    Zn85    2.048   .     S
N72    N243    1.290   1_455 S
N72    O248    1.352   1_455 S
O73    Zn85    1.960   .     S
O75    N243    1.354   1_455 S
O76    C112    1.404   .     S
O76    N158    1.352   .     S
O77    Zn86    1.960   .     S
O78    Zn86    1.983   .     S
O79    Zn85    1.983   .     S
O80    Zn85    1.998   .     S
O81    Zn86    1.998   .     S
O82    Zn86    2.002   .     S
O83    Zn85    2.002   .     S
C87    O164    1.302   .     A
C87    O159    1.289   .     A
C87    C116    1.411   .     S
C88    C99     1.396   .     A
C88    O160    1.391   .     S
C88    C90     1.410   .     A
C89    C119    1.415   .     S
C89    C120    1.408   .     A
C89    C91     1.386   .     A
C90    C92     1.389   .     A
C90    C118    1.418   .     S
C91    C93     1.378   .     A
C91    H121    1.087   .     S
C92    C94     1.379   .     A
C92    H132    1.086   .     S
C93    C100    1.388   .     A
C93    C95     1.406   .     A
C94    C101    1.396   .     A
C94    C96     1.407   .     A
C95    C97     1.412   .     A
C95    C870    1.395   1_554 S
C96    C99     1.415   .     A
C96    C869    1.395   .     S
C97    C120    1.397   .     A
C97    C115    1.401   .     A
C98    O165    1.302   .     A
C98    O163    1.289   .     A
C98    C117    1.409   .     S
C99    C109    1.401   .     A
C100   H143    1.074   .     S
C100   C883    1.383   1_554 S
C101   H151    1.082   .     S
C101   C889    1.387   .     S
C102   O170    1.422   .     S
C102   C103    1.548   .     S
C102   H156    1.111   .     S
C102   H122    1.105   .     S
C103   C104    1.527   .     S
C103   H123    1.102   .     S
C103   H124    1.108   .     S
C104   H125    1.111   .     S
C104   H212    1.111   .     S
C104   H643    1.111   1_545 S
C105   C106    1.533   .     S
C105   H128    1.104   .     S
C105   H129    1.107   .     S
C105   O160    1.412   .     S
C106   H131    1.110   .     S
C106   C365    1.529   .     S
C106   H388    1.106   .     S
C107   H135    1.111   .     S
C107   H134    1.110   .     S
C107   H133    1.109   .     S
C107   C622    1.529   1_545 S
C108   H136    1.108   .     S
C108   O161    1.430   .     S
C109   H152    1.076   .     S
C109   C874    1.383   .     S
C110   H138    1.099   .     S
C110   H139    1.112   .     S
C110   C194    1.535   .     S
C110   C197    1.513   .     S
C111   H142    1.107   .     S
C111   H140    1.106   .     S
C111   H141    1.111   .     S
C112   C113    1.540   .     S
C112   H145    1.101   .     S
C113   H147    1.108   .     S
C113   C114    1.525   .     S
C114   H149    1.111   .     S
C114   H148    1.104   .     S
C115   H153    1.079   .     S
C115   C875    1.387   1_554 S
C116   C375    1.340   .     S
C116   H412    1.088   .     S
C117   C632    1.340   1_545 S
C117   H671    1.088   1_545 S
C118   O166    1.296   .     A
C118   O168    1.300   .     A
C119   O169    1.306   .     A
C119   O167    1.290   .     A
C120   O170    1.389   .     S
H127   C362    1.111   .     S
H130   C622    1.106   1_545 S
H137   C194    1.109   .     S
H144   C198    1.104   .     S
H146   C199    1.106   .     S
H150   C200    1.111   .     S
H154   C632    1.088   1_545 S
H155   C375    1.088   .     S
N157   Zn172   2.048   .     S
N157   N244    1.290   .     S
N157   O247    1.354   .     S
N158   Zn171   2.048   .     S
O159   Zn171   1.960   .     S
O162   C198    1.404   .     S
O162   N244    1.352   .     S
O163   Zn172   1.960   .     S
O164   Zn172   1.983   .     S
O165   Zn171   1.983   .     S
O166   Zn171   1.998   .     S
O167   Zn172   1.998   .     S
O168   Zn172   2.002   .     S
O169   Zn171   2.002   .     S
C173   O250    1.302   .     A
C173   O245    1.289   .     A
C173   C202    1.411   .     S
C174   C185    1.396   .     A
C174   O246    1.391   .     S
C174   C176    1.410   .     A
C175   C205    1.415   .     S
C175   C206    1.408   .     A
C175   C177    1.386   .     A
C176   C178    1.389   .     A
C176   C204    1.418   .     S
C177   C179    1.378   .     A
C177   H207    1.087   .     S
C178   C180    1.379   .     A
C178   H218    1.086   .     S
C179   C186    1.388   .     A
C179   C181    1.406   .     A
C180   C187    1.396   .     A
C180   C182    1.407   .     A
C181   C183    1.412   .     A
C181   C956    1.395   1_554 S
C182   C185    1.415   .     A
C182   C955    1.395   .     S
C183   C206    1.397   .     A
C183   C201    1.401   .     A
C184   O251    1.302   .     A
C184   O249    1.289   .     A
C184   C203    1.409   .     S
C185   C195    1.401   .     A
C186   H229    1.074   .     S
C186   C969    1.383   1_554 S
C187   H237    1.082   .     S
C187   C975    1.387   .     S
C188   O256    1.422   .     S
C188   C189    1.548   .     S
C188   H242    1.111   .     S
C188   H208    1.105   .     S
C189   C190    1.527   .     S
C189   H209    1.102   .     S
C189   H210    1.108   .     S
C190   H211    1.111   .     S
C190   H40     1.111   1_655 S
C190   H729    1.111   1_545 S
C191   C192    1.533   .     S
C191   H214    1.104   .     S
C191   H215    1.107   .     S
C191   O246    1.412   .     S
C192   H217    1.110   .     S
C192   C451    1.529   .     S
C192   H474    1.106   .     S
C193   H221    1.111   .     S
C193   H220    1.110   .     S
C193   H219    1.109   .     S
C193   C708    1.529   1_545 S
C194   H222    1.108   .     S
C194   O247    1.430   .     S
C195   H238    1.076   .     S
C195   C960    1.383   .     S
C196   H224    1.099   .     S
C196   H225    1.112   .     S
C196   C22     1.535   1_655 S
C196   C25     1.513   1_655 S
C197   H228    1.107   .     S
C197   H226    1.106   .     S
C197   H227    1.111   .     S
C198   C199    1.540   .     S
C198   H231    1.101   .     S
C199   H233    1.108   .     S
C199   C200    1.525   .     S
C200   H235    1.111   .     S
C200   H234    1.104   .     S
C201   H239    1.079   .     S
C201   C961    1.387   1_554 S
C202   C461    1.340   .     S
C202   H498    1.088   .     S
C203   C718    1.340   1_545 S
C203   H757    1.088   1_545 S
C204   O252    1.296   .     A
C204   O254    1.300   .     A
C205   O255    1.306   .     A
C205   O253    1.290   .     A
C206   O256    1.389   .     S
H213   C448    1.111   .     S
H216   C708    1.106   1_545 S
H223   C22     1.109   1_655 S
H230   C26     1.104   1_655 S
H232   C27     1.106   1_655 S
H236   C28     1.111   1_655 S
H240   C718    1.088   1_545 S
H241   C461    1.088   .     S
N243   Zn258   2.048   .     S
N243   N72     1.290   1_655 S
N243   O75     1.354   1_655 S
N244   Zn257   2.048   .     S
O245   Zn257   1.960   .     S
O248   C26     1.404   1_655 S
O248   N72     1.352   1_655 S
O249   Zn258   1.960   .     S
O250   Zn258   1.983   .     S
O251   Zn257   1.983   .     S
O252   Zn257   1.998   .     S
O253   Zn258   1.998   .     S
O254   Zn258   2.002   .     S
O255   Zn257   2.002   .     S
C259   O336    1.302   .     A
C259   O331    1.289   .     A
C259   C288    1.411   .     S
C260   C271    1.396   .     A
C260   O332    1.391   .     S
C260   C262    1.410   .     A
C261   C291    1.415   .     S
C261   C292    1.408   .     A
C261   C263    1.386   .     A
C262   C264    1.389   .     A
C262   C290    1.418   .     S
C263   C265    1.378   .     A
C263   H293    1.087   .     S
C264   C266    1.379   .     A
C264   H304    1.086   .     S
C265   C272    1.388   .     A
C265   C267    1.406   .     A
C266   C273    1.396   .     A
C266   C268    1.407   .     A
C267   C269    1.412   .     A
C267   C1042   1.395   1_554 S
C268   C271    1.415   .     A
C268   C1041   1.395   .     S
C269   C292    1.397   .     A
C269   C287    1.401   .     A
C270   O337    1.302   .     A
C270   O335    1.289   .     A
C270   C289    1.409   .     S
C271   C281    1.401   .     A
C272   H315    1.074   .     S
C272   C1055   1.383   1_554 S
C273   H323    1.082   .     S
C273   C1061   1.387   .     S
C274   O342    1.422   .     S
C274   C275    1.548   .     S
C274   H328    1.111   .     S
C274   H294    1.105   .     S
C275   C276    1.527   .     S
C275   H295    1.102   .     S
C275   H296    1.108   .     S
C276   H297    1.111   .     S
C276   H384    1.111   .     S
C277   C278    1.533   .     S
C277   H300    1.104   .     S
C277   H301    1.107   .     S
C277   O332    1.412   .     S
C278   H303    1.110   .     S
C278   C537    1.529   .     S
C278   H560    1.106   .     S
C279   H307    1.111   .     S
C279   H306    1.110   .     S
C279   H305    1.109   .     S
C280   H308    1.108   .     S
C280   O333    1.430   .     S
C280   C454    1.535   1_455 S
C280   H481    1.109   1_455 S
C281   H324    1.076   .     S
C281   C1046   1.383   .     S
C282   H310    1.099   .     S
C282   H311    1.112   .     S
C282   C366    1.535   .     S
C282   C369    1.513   .     S
C283   H314    1.107   .     S
C283   H312    1.106   .     S
C283   H313    1.111   .     S
C283   C454    1.513   1_455 S
C284   C285    1.540   .     S
C284   H317    1.101   .     S
C284   H488    1.104   1_455 S
C284   O506    1.404   1_455 S
C285   H319    1.108   .     S
C285   C286    1.525   .     S
C285   H490    1.106   1_455 S
C286   H321    1.111   .     S
C286   H320    1.104   .     S
C286   H494    1.111   1_455 S
C287   H325    1.079   .     S
C287   C1047   1.387   1_554 S
C288   C547    1.340   .     S
C288   H584    1.088   .     S
C290   O338    1.296   .     A
C290   O340    1.300   .     A
C291   O341    1.306   .     A
C291   O339    1.290   .     A
C292   O342    1.389   .     S
H298   C448    1.111   1_455 S
H299   C534    1.111   .     S
H309   C366    1.109   .     S
H316   C370    1.104   .     S
H318   C371    1.106   .     S
H322   C372    1.111   .     S
H327   C547    1.088   .     S
N329   Zn344   2.048   .     S
N329   N416    1.290   .     S
N329   O419    1.354   .     S
N330   Zn343   2.048   .     S
N330   N501    1.290   1_455 S
N330   O506    1.352   1_455 S
O331   Zn343   1.960   .     S
O333   N501    1.354   1_455 S
O334   C370    1.404   .     S
O334   N416    1.352   .     S
O335   Zn344   1.960   .     S
O336   Zn344   1.983   .     S
O337   Zn343   1.983   .     S
O338   Zn343   1.998   .     S
O339   Zn344   1.998   .     S
O340   Zn344   2.002   .     S
O341   Zn343   2.002   .     S
C345   O422    1.302   .     A
C345   O417    1.289   .     A
C345   C374    1.411   .     S
C346   C357    1.396   .     A
C346   O418    1.391   .     S
C346   C348    1.410   .     A
C347   C377    1.415   .     S
C347   C378    1.408   .     A
C347   C349    1.386   .     A
C348   C350    1.389   .     A
C348   C376    1.418   .     S
C349   C351    1.378   .     A
C349   H379    1.087   .     S
C350   C352    1.379   .     A
C350   H390    1.086   .     S
C351   C358    1.388   .     A
C351   C353    1.406   .     A
C352   C359    1.396   .     A
C352   C354    1.407   .     A
C353   C355    1.412   .     A
C353   C1128   1.395   1_554 S
C354   C357    1.415   .     A
C354   C1127   1.395   .     S
C355   C378    1.397   .     A
C355   C373    1.401   .     A
C356   O423    1.302   .     A
C356   O421    1.289   .     A
C356   C375    1.409   .     S
C357   C367    1.401   .     A
C358   H401    1.074   .     S
C358   C1141   1.383   1_554 S
C359   H409    1.082   .     S
C359   C1147   1.387   .     S
C360   O428    1.422   .     S
C360   C361    1.548   .     S
C360   H414    1.111   .     S
C360   H380    1.105   .     S
C361   C362    1.527   .     S
C361   H381    1.102   .     S
C361   H382    1.108   .     S
C362   H383    1.111   .     S
C362   H470    1.111   .     S
C363   C364    1.533   .     S
C363   H386    1.104   .     S
C363   H387    1.107   .     S
C363   O418    1.412   .     S
C364   H389    1.110   .     S
C364   C623    1.529   .     S
C364   H646    1.106   .     S
C365   H393    1.111   .     S
C365   H392    1.110   .     S
C365   H391    1.109   .     S
C366   H394    1.108   .     S
C366   O419    1.430   .     S
C367   H410    1.076   .     S
C367   C1132   1.383   .     S
C368   H396    1.099   .     S
C368   H397    1.112   .     S
C368   C452    1.535   .     S
C368   C455    1.513   .     S
C369   H400    1.107   .     S
C369   H398    1.106   .     S
C369   H399    1.111   .     S
C370   C371    1.540   .     S
C370   H403    1.101   .     S
C371   H405    1.108   .     S
C371   C372    1.525   .     S
C372   H407    1.111   .     S
C372   H406    1.104   .     S
C373   H411    1.079   .     S
C373   C1133   1.387   1_554 S
C374   C633    1.340   .     S
C374   H670    1.088   .     S
C376   O424    1.296   .     A
C376   O426    1.300   .     A
C377   O427    1.306   .     A
C377   O425    1.290   .     A
C378   O428    1.389   .     S
H385   C620    1.111   .     S
H395   C452    1.109   .     S
H402   C456    1.104   .     S
H404   C457    1.106   .     S
H408   C458    1.111   .     S
H413   C633    1.088   .     S
N415   Zn430   2.048   .     S
N415   N502    1.290   .     S
N415   O505    1.354   .     S
N416   Zn429   2.048   .     S
O417   Zn429   1.960   .     S
O420   C456    1.404   .     S
O420   N502    1.352   .     S
O421   Zn430   1.960   .     S
O422   Zn430   1.983   .     S
O423   Zn429   1.983   .     S
O424   Zn429   1.998   .     S
O425   Zn430   1.998   .     S
O426   Zn430   2.002   .     S
O427   Zn429   2.002   .     S
C431   O508    1.302   .     A
C431   O503    1.289   .     A
C431   C460    1.411   .     S
C432   C443    1.396   .     A
C432   O504    1.391   .     S
C432   C434    1.410   .     A
C433   C463    1.415   .     S
C433   C464    1.408   .     A
C433   C435    1.386   .     A
C434   C436    1.389   .     A
C434   C462    1.418   .     S
C435   C437    1.378   .     A
C435   H465    1.087   .     S
C436   C438    1.379   .     A
C436   H476    1.086   .     S
C437   C444    1.388   .     A
C437   C439    1.406   .     A
C438   C445    1.396   .     A
C438   C440    1.407   .     A
C439   C441    1.412   .     A
C439   C1214   1.395   1_554 S
C440   C443    1.415   .     A
C440   C1213   1.395   .     S
C441   C464    1.397   .     A
C441   C459    1.401   .     A
C442   O509    1.302   .     A
C442   O507    1.289   .     A
C442   C461    1.409   .     S
C443   C453    1.401   .     A
C444   H487    1.074   .     S
C444   C1227   1.383   1_554 S
C445   H495    1.082   .     S
C445   C1233   1.387   .     S
C446   O514    1.422   .     S
C446   C447    1.548   .     S
C446   H500    1.111   .     S
C446   H466    1.105   .     S
C447   C448    1.527   .     S
C447   H467    1.102   .     S
C447   H468    1.108   .     S
C448   H469    1.111   .     S
C448   H298    1.111   1_655 S
C449   C450    1.533   .     S
C449   H472    1.104   .     S
C449   H473    1.107   .     S
C449   O504    1.412   .     S
C450   H475    1.110   .     S
C450   C709    1.529   .     S
C450   H732    1.106   .     S
C451   H479    1.111   .     S
C451   H478    1.110   .     S
C451   H477    1.109   .     S
C452   H480    1.108   .     S
C452   O505    1.430   .     S
C453   H496    1.076   .     S
C453   C1218   1.383   .     S
C454   H482    1.099   .     S
C454   H483    1.112   .     S
C454   C280    1.535   1_655 S
C454   C283    1.513   1_655 S
C455   H486    1.107   .     S
C455   H484    1.106   .     S
C455   H485    1.111   .     S
C456   C457    1.540   .     S
C456   H489    1.101   .     S
C457   H491    1.108   .     S
C457   C458    1.525   .     S
C458   H493    1.111   .     S
C458   H492    1.104   .     S
C459   H497    1.079   .     S
C459   C1219   1.387   1_554 S
C460   C719    1.340   .     S
C460   H756    1.088   .     S
C462   O510    1.296   .     A
C462   O512    1.300   .     A
C463   O513    1.306   .     A
C463   O511    1.290   .     A
C464   O514    1.389   .     S
H471   C706    1.111   .     S
H481   C280    1.109   1_655 S
H488   C284    1.104   1_655 S
H490   C285    1.106   1_655 S
H494   C286    1.111   1_655 S
H499   C719    1.088   .     S
N501   Zn516   2.048   .     S
N501   N330    1.290   1_655 S
N501   O333    1.354   1_655 S
N502   Zn515   2.048   .     S
O503   Zn515   1.960   .     S
O506   C284    1.404   1_655 S
O506   N330    1.352   1_655 S
O507   Zn516   1.960   .     S
O508   Zn516   1.983   .     S
O509   Zn515   1.983   .     S
O510   Zn515   1.998   .     S
O511   Zn516   1.998   .     S
O512   Zn516   2.002   .     S
O513   Zn515   2.002   .     S
C517   O594    1.302   .     A
C517   O589    1.289   .     A
C517   C546    1.411   .     S
C518   C529    1.396   .     A
C518   O590    1.391   .     S
C518   C520    1.410   .     A
C519   C549    1.415   .     S
C519   C550    1.408   .     A
C519   C521    1.386   .     A
C520   C522    1.389   .     A
C520   C548    1.418   .     S
C521   C523    1.378   .     A
C521   H551    1.087   .     S
C522   C524    1.379   .     A
C522   H562    1.086   .     S
C523   C530    1.388   .     A
C523   C525    1.406   .     A
C524   C531    1.396   .     A
C524   C526    1.407   .     A
C525   C527    1.412   .     A
C525   C1300   1.395   1_554 S
C526   C529    1.415   .     A
C526   C1299   1.395   .     S
C527   C550    1.397   .     A
C527   C545    1.401   .     A
C528   O595    1.302   .     A
C528   O593    1.289   .     A
C528   C547    1.409   .     S
C529   C539    1.401   .     A
C530   H573    1.074   .     S
C530   C1313   1.383   1_554 S
C531   H581    1.082   .     S
C531   C1319   1.387   .     S
C532   O600    1.422   .     S
C532   C533    1.548   .     S
C532   H586    1.111   .     S
C532   H552    1.105   .     S
C533   C534    1.527   .     S
C533   H553    1.102   .     S
C533   H554    1.108   .     S
C534   H555    1.111   .     S
C534   H642    1.111   .     S
C535   C536    1.533   .     S
C535   H558    1.104   .     S
C535   H559    1.107   .     S
C535   O590    1.412   .     S
C536   H561    1.110   .     S
C536   C21     1.529   1_565 S
C536   H44     1.106   1_565 S
C537   H565    1.111   .     S
C537   H564    1.110   .     S
C537   H563    1.109   .     S
C538   H566    1.108   .     S
C538   O591    1.430   .     S
C538   C712    1.535   1_455 S
C538   H739    1.109   1_455 S
C539   H582    1.076   .     S
C539   C1304   1.383   .     S
C540   H568    1.099   .     S
C540   H569    1.112   .     S
C540   C624    1.535   .     S
C540   C627    1.513   .     S
C541   H572    1.107   .     S
C541   H570    1.106   .     S
C541   H571    1.111   .     S
C541   C712    1.513   1_455 S
C542   C543    1.540   .     S
C542   H575    1.101   .     S
C542   H746    1.104   1_455 S
C542   O764    1.404   1_455 S
C543   H577    1.108   .     S
C543   C544    1.525   .     S
C543   H748    1.106   1_455 S
C544   H579    1.111   .     S
C544   H578    1.104   .     S
C544   H752    1.111   1_455 S
C545   H583    1.079   .     S
C545   C1305   1.387   1_554 S
C546   C31     1.340   1_565 S
C546   H68     1.088   1_565 S
C548   O596    1.296   .     A
C548   O598    1.300   .     A
C549   O599    1.306   .     A
C549   O597    1.290   .     A
C550   O600    1.389   .     S
H556   C706    1.111   1_455 S
H557   C18     1.111   1_565 S
H567   C624    1.109   .     S
H574   C628    1.104   .     S
H576   C629    1.106   .     S
H580   C630    1.111   .     S
H585   C31     1.088   1_565 S
N587   Zn602   2.048   .     S
N587   N674    1.290   .     S
N587   O677    1.354   .     S
N588   Zn601   2.048   .     S
N588   N759    1.290   1_455 S
N588   O764    1.352   1_455 S
O589   Zn601   1.960   .     S
O591   N759    1.354   1_455 S
O592   C628    1.404   .     S
O592   N674    1.352   .     S
O593   Zn602   1.960   .     S
O594   Zn602   1.983   .     S
O595   Zn601   1.983   .     S
O596   Zn601   1.998   .     S
O597   Zn602   1.998   .     S
O598   Zn602   2.002   .     S
O599   Zn601   2.002   .     S
C603   O680    1.302   .     A
C603   O675    1.289   .     A
C603   C632    1.411   .     S
C604   C615    1.396   .     A
C604   O676    1.391   .     S
C604   C606    1.410   .     A
C605   C635    1.415   .     S
C605   C636    1.408   .     A
C605   C607    1.386   .     A
C606   C608    1.389   .     A
C606   C634    1.418   .     S
C607   C609    1.378   .     A
C607   H637    1.087   .     S
C608   C610    1.379   .     A
C608   H648    1.086   .     S
C609   C616    1.388   .     A
C609   C611    1.406   .     A
C610   C617    1.396   .     A
C610   C612    1.407   .     A
C611   C613    1.412   .     A
C611   C1386   1.395   1_554 S
C612   C615    1.415   .     A
C612   C1385   1.395   .     S
C613   C636    1.397   .     A
C613   C631    1.401   .     A
C614   O681    1.302   .     A
C614   O679    1.289   .     A
C614   C633    1.409   .     S
C615   C625    1.401   .     A
C616   H659    1.074   .     S
C616   C1399   1.383   1_554 S
C617   H667    1.082   .     S
C617   C1405   1.387   .     S
C618   O686    1.422   .     S
C618   C619    1.548   .     S
C618   H672    1.111   .     S
C618   H638    1.105   .     S
C619   C620    1.527   .     S
C619   H639    1.102   .     S
C619   H640    1.108   .     S
C620   H641    1.111   .     S
C620   H728    1.111   .     S
C621   C622    1.533   .     S
C621   H644    1.104   .     S
C621   H645    1.107   .     S
C621   O676    1.412   .     S
C622   H647    1.110   .     S
C622   C107    1.529   1_565 S
C622   H130    1.106   1_565 S
C623   H651    1.111   .     S
C623   H650    1.110   .     S
C623   H649    1.109   .     S
C624   H652    1.108   .     S
C624   O677    1.430   .     S
C625   H668    1.076   .     S
C625   C1390   1.383   .     S
C626   H654    1.099   .     S
C626   H655    1.112   .     S
C626   C710    1.535   .     S
C626   C713    1.513   .     S
C627   H658    1.107   .     S
C627   H656    1.106   .     S
C627   H657    1.111   .     S
C628   C629    1.540   .     S
C628   H661    1.101   .     S
C629   H663    1.108   .     S
C629   C630    1.525   .     S
C630   H665    1.111   .     S
C630   H664    1.104   .     S
C631   H669    1.079   .     S
C631   C1391   1.387   1_554 S
C632   C117    1.340   1_565 S
C632   H154    1.088   1_565 S
C634   O682    1.296   .     A
C634   O684    1.300   .     A
C635   O685    1.306   .     A
C635   O683    1.290   .     A
C636   O686    1.389   .     S
H643   C104    1.111   1_565 S
H653   C710    1.109   .     S
H660   C714    1.104   .     S
H662   C715    1.106   .     S
H666   C716    1.111   .     S
H671   C117    1.088   1_565 S
N673   Zn688   2.048   .     S
N673   N760    1.290   .     S
N673   O763    1.354   .     S
N674   Zn687   2.048   .     S
O675   Zn687   1.960   .     S
O678   C714    1.404   .     S
O678   N760    1.352   .     S
O679   Zn688   1.960   .     S
O680   Zn688   1.983   .     S
O681   Zn687   1.983   .     S
O682   Zn687   1.998   .     S
O683   Zn688   1.998   .     S
O684   Zn688   2.002   .     S
O685   Zn687   2.002   .     S
C689   O766    1.302   .     A
C689   O761    1.289   .     A
C689   C718    1.411   .     S
C690   C701    1.396   .     A
C690   O762    1.391   .     S
C690   C692    1.410   .     A
C691   C721    1.415   .     S
C691   C722    1.408   .     A
C691   C693    1.386   .     A
C692   C694    1.389   .     A
C692   C720    1.418   .     S
C693   C695    1.378   .     A
C693   H723    1.087   .     S
C694   C696    1.379   .     A
C694   H734    1.086   .     S
C695   C702    1.388   .     A
C695   C697    1.406   .     A
C696   C703    1.396   .     A
C696   C698    1.407   .     A
C697   C699    1.412   .     A
C697   C1472   1.395   1_554 S
C698   C701    1.415   .     A
C698   C1471   1.395   .     S
C699   C722    1.397   .     A
C699   C717    1.401   .     A
C700   O767    1.302   .     A
C700   O765    1.289   .     A
C700   C719    1.409   .     S
C701   C711    1.401   .     A
C702   H745    1.074   .     S
C702   C1485   1.383   1_554 S
C703   H753    1.082   .     S
C703   C1491   1.387   .     S
C704   O772    1.422   .     S
C704   C705    1.548   .     S
C704   H758    1.111   .     S
C704   H724    1.105   .     S
C705   C706    1.527   .     S
C705   H725    1.102   .     S
C705   H726    1.108   .     S
C706   H727    1.111   .     S
C706   H556    1.111   1_655 S
C707   C708    1.533   .     S
C707   H730    1.104   .     S
C707   H731    1.107   .     S
C707   O762    1.412   .     S
C708   H733    1.110   .     S
C708   C193    1.529   1_565 S
C708   H216    1.106   1_565 S
C709   H737    1.111   .     S
C709   H736    1.110   .     S
C709   H735    1.109   .     S
C710   H738    1.108   .     S
C710   O763    1.430   .     S
C711   H754    1.076   .     S
C711   C1476   1.383   .     S
C712   H740    1.099   .     S
C712   H741    1.112   .     S
C712   C538    1.535   1_655 S
C712   C541    1.513   1_655 S
C713   H744    1.107   .     S
C713   H742    1.106   .     S
C713   H743    1.111   .     S
C714   C715    1.540   .     S
C714   H747    1.101   .     S
C715   H749    1.108   .     S
C715   C716    1.525   .     S
C716   H751    1.111   .     S
C716   H750    1.104   .     S
C717   H755    1.079   .     S
C717   C1477   1.387   1_554 S
C718   C203    1.340   1_565 S
C718   H240    1.088   1_565 S
C720   O768    1.296   .     A
C720   O770    1.300   .     A
C721   O771    1.306   .     A
C721   O769    1.290   .     A
C722   O772    1.389   .     S
H729   C190    1.111   1_565 S
H739   C538    1.109   1_655 S
H746   C542    1.104   1_655 S
H748   C543    1.106   1_655 S
H752   C544    1.111   1_655 S
H757   C203    1.088   1_565 S
N759   Zn774   2.048   .     S
N759   N588    1.290   1_655 S
N759   O591    1.354   1_655 S
N760   Zn773   2.048   .     S
O761   Zn773   1.960   .     S
O764   C542    1.404   1_655 S
O764   N588    1.352   1_655 S
O765   Zn774   1.960   .     S
O766   Zn774   1.983   .     S
O767   Zn773   1.983   .     S
O768   Zn773   1.998   .     S
O769   Zn774   1.998   .     S
O770   Zn774   2.002   .     S
O771   Zn773   2.002   .     S
C775   O852    1.302   .     A
C775   O847    1.289   .     A
C775   C804    1.411   .     S
C776   C787    1.396   .     A
C776   O848    1.391   .     S
C776   C778    1.410   .     A
C777   C807    1.415   .     S
C777   C808    1.408   .     A
C777   C779    1.386   .     A
C778   C780    1.389   .     A
C778   C806    1.418   .     S
C779   C781    1.378   .     A
C779   H809    1.087   .     S
C780   C782    1.379   .     A
C780   H820    1.086   .     S
C781   C788    1.388   .     A
C781   C783    1.406   .     A
C782   C789    1.396   .     A
C782   C784    1.407   .     A
C783   C785    1.412   .     A
C784   C787    1.415   .     A
C784   C9      1.395   1_556 S
C785   C808    1.397   .     A
C785   C803    1.401   .     A
C786   O853    1.302   .     A
C786   O851    1.289   .     A
C786   C805    1.409   .     S
C787   C797    1.401   .     A
C788   H831    1.074   .     S
C789   H839    1.082   .     S
C789   C29     1.387   1_556 S
C790   O858    1.422   .     S
C790   C791    1.548   .     S
C790   H844    1.111   .     S
C790   H810    1.105   .     S
C791   C792    1.527   .     S
C791   H811    1.102   .     S
C791   H812    1.108   .     S
C792   H813    1.111   .     S
C792   H900    1.111   .     S
C792   H1331   1.111   1_545 S
C793   C794    1.533   .     S
C793   H816    1.104   .     S
C793   H817    1.107   .     S
C793   O848    1.412   .     S
C794   H819    1.110   .     S
C794   C1053   1.529   .     S
C794   H1076   1.106   .     S
C795   H823    1.111   .     S
C795   H822    1.110   .     S
C795   H821    1.109   .     S
C795   C1310   1.529   1_545 S
C796   H824    1.108   .     S
C796   O849    1.430   .     S
C796   C970    1.535   1_455 S
C796   H997    1.109   1_455 S
C797   H840    1.076   .     S
C797   C14     1.383   1_556 S
C798   H826    1.099   .     S
C798   H827    1.112   .     S
C798   C882    1.535   .     S
C798   C885    1.513   .     S
C799   H830    1.107   .     S
C799   H828    1.106   .     S
C799   H829    1.111   .     S
C799   C970    1.513   1_455 S
C800   C801    1.540   .     S
C800   H833    1.101   .     S
C800   H1004   1.104   1_455 S
C800   O1022   1.404   1_455 S
C801   H835    1.108   .     S
C801   C802    1.525   .     S
C801   H1006   1.106   1_455 S
C802   H837    1.111   .     S
C802   H836    1.104   .     S
C802   H1010   1.111   1_455 S
C803   H841    1.079   .     S
C804   C1063   1.340   .     S
C804   H1100   1.088   .     S
C805   C1320   1.340   1_545 S
C805   H1359   1.088   1_545 S
C806   O854    1.296   .     A
C806   O856    1.300   .     A
C807   O857    1.306   .     A
C807   O855    1.290   .     A
C808   O858    1.389   .     S
H814   C964    1.111   1_455 S
H815   C1050   1.111   .     S
H818   C1310   1.106   1_545 S
H825   C882    1.109   .     S
H832   C886    1.104   .     S
H834   C887    1.106   .     S
H838   C888    1.111   .     S
H842   C1320   1.088   1_545 S
H843   C1063   1.088   .     S
N845   Zn860   2.048   .     S
N845   N932    1.290   .     S
N845   O935    1.354   .     S
N846   Zn859   2.048   .     S
N846   N1017   1.290   1_455 S
N846   O1022   1.352   1_455 S
O847   Zn859   1.960   .     S
O849   N1017   1.354   1_455 S
O850   C886    1.404   .     S
O850   N932    1.352   .     S
O851   Zn860   1.960   .     S
O852   Zn860   1.983   .     S
O853   Zn859   1.983   .     S
O854   Zn859   1.998   .     S
O855   Zn860   1.998   .     S
O856   Zn860   2.002   .     S
O857   Zn859   2.002   .     S
C861   O938    1.302   .     A
C861   O933    1.289   .     A
C861   C890    1.411   .     S
C862   C873    1.396   .     A
C862   O934    1.391   .     S
C862   C864    1.410   .     A
C863   C893    1.415   .     S
C863   C894    1.408   .     A
C863   C865    1.386   .     A
C864   C866    1.389   .     A
C864   C892    1.418   .     S
C865   C867    1.378   .     A
C865   H895    1.087   .     S
C866   C868    1.379   .     A
C866   H906    1.086   .     S
C867   C874    1.388   .     A
C867   C869    1.406   .     A
C868   C875    1.396   .     A
C868   C870    1.407   .     A
C869   C871    1.412   .     A
C870   C873    1.415   .     A
C870   C95     1.395   1_556 S
C871   C894    1.397   .     A
C871   C889    1.401   .     A
C872   O939    1.302   .     A
C872   O937    1.289   .     A
C872   C891    1.409   .     S
C873   C883    1.401   .     A
C874   H917    1.074   .     S
C875   H925    1.082   .     S
C875   C115    1.387   1_556 S
C876   O944    1.422   .     S
C876   C877    1.548   .     S
C876   H930    1.111   .     S
C876   H896    1.105   .     S
C877   C878    1.527   .     S
C877   H897    1.102   .     S
C877   H898    1.108   .     S
C878   H899    1.111   .     S
C878   H986    1.111   .     S
C878   H1417   1.111   1_545 S
C879   C880    1.533   .     S
C879   H902    1.104   .     S
C879   H903    1.107   .     S
C879   O934    1.412   .     S
C880   H905    1.110   .     S
C880   C1139   1.529   .     S
C880   H1162   1.106   .     S
C881   H909    1.111   .     S
C881   H908    1.110   .     S
C881   H907    1.109   .     S
C881   C1396   1.529   1_545 S
C882   H910    1.108   .     S
C882   O935    1.430   .     S
C883   H926    1.076   .     S
C883   C100    1.383   1_556 S
C884   H912    1.099   .     S
C884   H913    1.112   .     S
C884   C968    1.535   .     S
C884   C971    1.513   .     S
C885   H916    1.107   .     S
C885   H914    1.106   .     S
C885   H915    1.111   .     S
C886   C887    1.540   .     S
C886   H919    1.101   .     S
C887   H921    1.108   .     S
C887   C888    1.525   .     S
C888   H923    1.111   .     S
C888   H922    1.104   .     S
C889   H927    1.079   .     S
C890   C1149   1.340   .     S
C890   H1186   1.088   .     S
C891   C1406   1.340   1_545 S
C891   H1445   1.088   1_545 S
C892   O940    1.296   .     A
C892   O942    1.300   .     A
C893   O943    1.306   .     A
C893   O941    1.290   .     A
C894   O944    1.389   .     S
H901   C1136   1.111   .     S
H904   C1396   1.106   1_545 S
H911   C968    1.109   .     S
H918   C972    1.104   .     S
H920   C973    1.106   .     S
H924   C974    1.111   .     S
H928   C1406   1.088   1_545 S
H929   C1149   1.088   .     S
N931   Zn946   2.048   .     S
N931   N1018   1.290   .     S
N931   O1021   1.354   .     S
N932   Zn945   2.048   .     S
O933   Zn945   1.960   .     S
O936   C972    1.404   .     S
O936   N1018   1.352   .     S
O937   Zn946   1.960   .     S
O938   Zn946   1.983   .     S
O939   Zn945   1.983   .     S
O940   Zn945   1.998   .     S
O941   Zn946   1.998   .     S
O942   Zn946   2.002   .     S
O943   Zn945   2.002   .     S
C947   O1024   1.302   .     A
C947   O1019   1.289   .     A
C947   C976    1.411   .     S
C948   C959    1.396   .     A
C948   O1020   1.391   .     S
C948   C950    1.410   .     A
C949   C979    1.415   .     S
C949   C980    1.408   .     A
C949   C951    1.386   .     A
C950   C952    1.389   .     A
C950   C978    1.418   .     S
C951   C953    1.378   .     A
C951   H981    1.087   .     S
C952   C954    1.379   .     A
C952   H992    1.086   .     S
C953   C960    1.388   .     A
C953   C955    1.406   .     A
C954   C961    1.396   .     A
C954   C956    1.407   .     A
C955   C957    1.412   .     A
C956   C959    1.415   .     A
C956   C181    1.395   1_556 S
C957   C980    1.397   .     A
C957   C975    1.401   .     A
C958   O1025   1.302   .     A
C958   O1023   1.289   .     A
C958   C977    1.409   .     S
C959   C969    1.401   .     A
C960   H1003   1.074   .     S
C961   H1011   1.082   .     S
C961   C201    1.387   1_556 S
C962   O1030   1.422   .     S
C962   C963    1.548   .     S
C962   H1016   1.111   .     S
C962   H982    1.105   .     S
C963   C964    1.527   .     S
C963   H983    1.102   .     S
C963   H984    1.108   .     S
C964   H985    1.111   .     S
C964   H814    1.111   1_655 S
C964   H1503   1.111   1_545 S
C965   C966    1.533   .     S
C965   H988    1.104   .     S
C965   H989    1.107   .     S
C965   O1020   1.412   .     S
C966   H991    1.110   .     S
C966   C1225   1.529   .     S
C966   H1248   1.106   .     S
C967   H995    1.111   .     S
C967   H994    1.110   .     S
C967   H993    1.109   .     S
C967   C1482   1.529   1_545 S
C968   H996    1.108   .     S
C968   O1021   1.430   .     S
C969   H1012   1.076   .     S
C969   C186    1.383   1_556 S
C970   H998    1.099   .     S
C970   H999    1.112   .     S
C970   C796    1.535   1_655 S
C970   C799    1.513   1_655 S
C971   H1002   1.107   .     S
C971   H1000   1.106   .     S
C971   H1001   1.111   .     S
C972   C973    1.540   .     S
C972   H1005   1.101   .     S
C973   H1007   1.108   .     S
C973   C974    1.525   .     S
C974   H1009   1.111   .     S
C974   H1008   1.104   .     S
C975   H1013   1.079   .     S
C976   C1235   1.340   .     S
C976   H1272   1.088   .     S
C977   C1492   1.340   1_545 S
C977   H1531   1.088   1_545 S
C978   O1026   1.296   .     A
C978   O1028   1.300   .     A
C979   O1029   1.306   .     A
C979   O1027   1.290   .     A
C980   O1030   1.389   .     S
H987   C1222   1.111   .     S
H990   C1482   1.106   1_545 S
H997   C796    1.109   1_655 S
H1004  C800    1.104   1_655 S
H1006  C801    1.106   1_655 S
H1010  C802    1.111   1_655 S
H1014  C1492   1.088   1_545 S
H1015  C1235   1.088   .     S
N1017  Zn1032  2.048   .     S
N1017  N846    1.290   1_655 S
N1017  O849    1.354   1_655 S
N1018  Zn1031  2.048   .     S
O1019  Zn1031  1.960   .     S
O1022  C800    1.404   1_655 S
O1022  N846    1.352   1_655 S
O1023  Zn1032  1.960   .     S
O1024  Zn1032  1.983   .     S
O1025  Zn1031  1.983   .     S
O1026  Zn1031  1.998   .     S
O1027  Zn1032  1.998   .     S
O1028  Zn1032  2.002   .     S
O1029  Zn1031  2.002   .     S
C1033  O1110   1.302   .     A
C1033  O1105   1.289   .     A
C1033  C1062   1.411   .     S
C1034  C1045   1.396   .     A
C1034  O1106   1.391   .     S
C1034  C1036   1.410   .     A
C1035  C1065   1.415   .     S
C1035  C1066   1.408   .     A
C1035  C1037   1.386   .     A
C1036  C1038   1.389   .     A
C1036  C1064   1.418   .     S
C1037  C1039   1.378   .     A
C1037  H1067   1.087   .     S
C1038  C1040   1.379   .     A
C1038  H1078   1.086   .     S
C1039  C1046   1.388   .     A
C1039  C1041   1.406   .     A
C1040  C1047   1.396   .     A
C1040  C1042   1.407   .     A
C1041  C1043   1.412   .     A
C1042  C1045   1.415   .     A
C1042  C267    1.395   1_556 S
C1043  C1066   1.397   .     A
C1043  C1061   1.401   .     A
C1044  O1111   1.302   .     A
C1044  O1109   1.289   .     A
C1044  C1063   1.409   .     S
C1045  C1055   1.401   .     A
C1046  H1089   1.074   .     S
C1047  H1097   1.082   .     S
C1047  C287    1.387   1_556 S
C1048  O1116   1.422   .     S
C1048  C1049   1.548   .     S
C1048  H1102   1.111   .     S
C1048  H1068   1.105   .     S
C1049  C1050   1.527   .     S
C1049  H1069   1.102   .     S
C1049  H1070   1.108   .     S
C1050  H1071   1.111   .     S
C1050  H1158   1.111   .     S
C1051  C1052   1.533   .     S
C1051  H1074   1.104   .     S
C1051  H1075   1.107   .     S
C1051  O1106   1.412   .     S
C1052  H1077   1.110   .     S
C1052  C1311   1.529   .     S
C1052  H1334   1.106   .     S
C1053  H1081   1.111   .     S
C1053  H1080   1.110   .     S
C1053  H1079   1.109   .     S
C1054  H1082   1.108   .     S
C1054  O1107   1.430   .     S
C1054  C1228   1.535   1_455 S
C1054  H1255   1.109   1_455 S
C1055  H1098   1.076   .     S
C1055  C272    1.383   1_556 S
C1056  H1084   1.099   .     S
C1056  H1085   1.112   .     S
C1056  C1140   1.535   .     S
C1056  C1143   1.513   .     S
C1057  H1088   1.107   .     S
C1057  H1086   1.106   .     S
C1057  H1087   1.111   .     S
C1057  C1228   1.513   1_455 S
C1058  C1059   1.540   .     S
C1058  H1091   1.101   .     S
C1058  H1262   1.104   1_455 S
C1058  O1280   1.404   1_455 S
C1059  H1093   1.108   .     S
C1059  C1060   1.525   .     S
C1059  H1264   1.106   1_455 S
C1060  H1095   1.111   .     S
C1060  H1094   1.104   .     S
C1060  H1268   1.111   1_455 S
C1061  H1099   1.079   .     S
C1062  C1321   1.340   .     S
C1062  H1358   1.088   .     S
C1064  O1112   1.296   .     A
C1064  O1114   1.300   .     A
C1065  O1115   1.306   .     A
C1065  O1113   1.290   .     A
C1066  O1116   1.389   .     S
H1072  C1222   1.111   1_455 S
H1073  C1308   1.111   .     S
H1083  C1140   1.109   .     S
H1090  C1144   1.104   .     S
H1092  C1145   1.106   .     S
H1096  C1146   1.111   .     S
H1101  C1321   1.088   .     S
N1103  Zn1118  2.048   .     S
N1103  N1190   1.290   .     S
N1103  O1193   1.354   .     S
N1104  Zn1117  2.048   .     S
N1104  N1275   1.290   1_455 S
N1104  O1280   1.352   1_455 S
O1105  Zn1117  1.960   .     S
O1107  N1275   1.354   1_455 S
O1108  C1144   1.404   .     S
O1108  N1190   1.352   .     S
O1109  Zn1118  1.960   .     S
O1110  Zn1118  1.983   .     S
O1111  Zn1117  1.983   .     S
O1112  Zn1117  1.998   .     S
O1113  Zn1118  1.998   .     S
O1114  Zn1118  2.002   .     S
O1115  Zn1117  2.002   .     S
C1119  O1196   1.302   .     A
C1119  O1191   1.289   .     A
C1119  C1148   1.411   .     S
C1120  C1131   1.396   .     A
C1120  O1192   1.391   .     S
C1120  C1122   1.410   .     A
C1121  C1151   1.415   .     S
C1121  C1152   1.408   .     A
C1121  C1123   1.386   .     A
C1122  C1124   1.389   .     A
C1122  C1150   1.418   .     S
C1123  C1125   1.378   .     A
C1123  H1153   1.087   .     S
C1124  C1126   1.379   .     A
C1124  H1164   1.086   .     S
C1125  C1132   1.388   .     A
C1125  C1127   1.406   .     A
C1126  C1133   1.396   .     A
C1126  C1128   1.407   .     A
C1127  C1129   1.412   .     A
C1128  C1131   1.415   .     A
C1128  C353    1.395   1_556 S
C1129  C1152   1.397   .     A
C1129  C1147   1.401   .     A
C1130  O1197   1.302   .     A
C1130  O1195   1.289   .     A
C1130  C1149   1.409   .     S
C1131  C1141   1.401   .     A
C1132  H1175   1.074   .     S
C1133  H1183   1.082   .     S
C1133  C373    1.387   1_556 S
C1134  O1202   1.422   .     S
C1134  C1135   1.548   .     S
C1134  H1188   1.111   .     S
C1134  H1154   1.105   .     S
C1135  C1136   1.527   .     S
C1135  H1155   1.102   .     S
C1135  H1156   1.108   .     S
C1136  H1157   1.111   .     S
C1136  H1244   1.111   .     S
C1137  C1138   1.533   .     S
C1137  H1160   1.104   .     S
C1137  H1161   1.107   .     S
C1137  O1192   1.412   .     S
C1138  H1163   1.110   .     S
C1138  C1397   1.529   .     S
C1138  H1420   1.106   .     S
C1139  H1167   1.111   .     S
C1139  H1166   1.110   .     S
C1139  H1165   1.109   .     S
C1140  H1168   1.108   .     S
C1140  O1193   1.430   .     S
C1141  H1184   1.076   .     S
C1141  C358    1.383   1_556 S
C1142  H1170   1.099   .     S
C1142  H1171   1.112   .     S
C1142  C1226   1.535   .     S
C1142  C1229   1.513   .     S
C1143  H1174   1.107   .     S
C1143  H1172   1.106   .     S
C1143  H1173   1.111   .     S
C1144  C1145   1.540   .     S
C1144  H1177   1.101   .     S
C1145  H1179   1.108   .     S
C1145  C1146   1.525   .     S
C1146  H1181   1.111   .     S
C1146  H1180   1.104   .     S
C1147  H1185   1.079   .     S
C1148  C1407   1.340   .     S
C1148  H1444   1.088   .     S
C1150  O1198   1.296   .     A
C1150  O1200   1.300   .     A
C1151  O1201   1.306   .     A
C1151  O1199   1.290   .     A
C1152  O1202   1.389   .     S
H1159  C1394   1.111   .     S
H1169  C1226   1.109   .     S
H1176  C1230   1.104   .     S
H1178  C1231   1.106   .     S
H1182  C1232   1.111   .     S
H1187  C1407   1.088   .     S
N1189  Zn1204  2.048   .     S
N1189  N1276   1.290   .     S
N1189  O1279   1.354   .     S
N1190  Zn1203  2.048   .     S
O1191  Zn1203  1.960   .     S
O1194  C1230   1.404   .     S
O1194  N1276   1.352   .     S
O1195  Zn1204  1.960   .     S
O1196  Zn1204  1.983   .     S
O1197  Zn1203  1.983   .     S
O1198  Zn1203  1.998   .     S
O1199  Zn1204  1.998   .     S
O1200  Zn1204  2.002   .     S
O1201  Zn1203  2.002   .     S
C1205  O1282   1.302   .     A
C1205  O1277   1.289   .     A
C1205  C1234   1.411   .     S
C1206  C1217   1.396   .     A
C1206  O1278   1.391   .     S
C1206  C1208   1.410   .     A
C1207  C1237   1.415   .     S
C1207  C1238   1.408   .     A
C1207  C1209   1.386   .     A
C1208  C1210   1.389   .     A
C1208  C1236   1.418   .     S
C1209  C1211   1.378   .     A
C1209  H1239   1.087   .     S
C1210  C1212   1.379   .     A
C1210  H1250   1.086   .     S
C1211  C1218   1.388   .     A
C1211  C1213   1.406   .     A
C1212  C1219   1.396   .     A
C1212  C1214   1.407   .     A
C1213  C1215   1.412   .     A
C1214  C1217   1.415   .     A
C1214  C439    1.395   1_556 S
C1215  C1238   1.397   .     A
C1215  C1233   1.401   .     A
C1216  O1283   1.302   .     A
C1216  O1281   1.289   .     A
C1216  C1235   1.409   .     S
C1217  C1227   1.401   .     A
C1218  H1261   1.074   .     S
C1219  H1269   1.082   .     S
C1219  C459    1.387   1_556 S
C1220  O1288   1.422   .     S
C1220  C1221   1.548   .     S
C1220  H1274   1.111   .     S
C1220  H1240   1.105   .     S
C1221  C1222   1.527   .     S
C1221  H1241   1.102   .     S
C1221  H1242   1.108   .     S
C1222  H1243   1.111   .     S
C1222  H1072   1.111   1_655 S
C1223  C1224   1.533   .     S
C1223  H1246   1.104   .     S
C1223  H1247   1.107   .     S
C1223  O1278   1.412   .     S
C1224  H1249   1.110   .     S
C1224  C1483   1.529   .     S
C1224  H1506   1.106   .     S
C1225  H1253   1.111   .     S
C1225  H1252   1.110   .     S
C1225  H1251   1.109   .     S
C1226  H1254   1.108   .     S
C1226  O1279   1.430   .     S
C1227  H1270   1.076   .     S
C1227  C444    1.383   1_556 S
C1228  H1256   1.099   .     S
C1228  H1257   1.112   .     S
C1228  C1054   1.535   1_655 S
C1228  C1057   1.513   1_655 S
C1229  H1260   1.107   .     S
C1229  H1258   1.106   .     S
C1229  H1259   1.111   .     S
C1230  C1231   1.540   .     S
C1230  H1263   1.101   .     S
C1231  H1265   1.108   .     S
C1231  C1232   1.525   .     S
C1232  H1267   1.111   .     S
C1232  H1266   1.104   .     S
C1233  H1271   1.079   .     S
C1234  C1493   1.340   .     S
C1234  H1530   1.088   .     S
C1236  O1284   1.296   .     A
C1236  O1286   1.300   .     A
C1237  O1287   1.306   .     A
C1237  O1285   1.290   .     A
C1238  O1288   1.389   .     S
H1245  C1480   1.111   .     S
H1255  C1054   1.109   1_655 S
H1262  C1058   1.104   1_655 S
H1264  C1059   1.106   1_655 S
H1268  C1060   1.111   1_655 S
H1273  C1493   1.088   .     S
N1275  Zn1290  2.048   .     S
N1275  N1104   1.290   1_655 S
N1275  O1107   1.354   1_655 S
N1276  Zn1289  2.048   .     S
O1277  Zn1289  1.960   .     S
O1280  C1058   1.404   1_655 S
O1280  N1104   1.352   1_655 S
O1281  Zn1290  1.960   .     S
O1282  Zn1290  1.983   .     S
O1283  Zn1289  1.983   .     S
O1284  Zn1289  1.998   .     S
O1285  Zn1290  1.998   .     S
O1286  Zn1290  2.002   .     S
O1287  Zn1289  2.002   .     S
C1291  O1368   1.302   .     A
C1291  O1363   1.289   .     A
C1291  C1320   1.411   .     S
C1292  C1303   1.396   .     A
C1292  O1364   1.391   .     S
C1292  C1294   1.410   .     A
C1293  C1323   1.415   .     S
C1293  C1324   1.408   .     A
C1293  C1295   1.386   .     A
C1294  C1296   1.389   .     A
C1294  C1322   1.418   .     S
C1295  C1297   1.378   .     A
C1295  H1325   1.087   .     S
C1296  C1298   1.379   .     A
C1296  H1336   1.086   .     S
C1297  C1304   1.388   .     A
C1297  C1299   1.406   .     A
C1298  C1305   1.396   .     A
C1298  C1300   1.407   .     A
C1299  C1301   1.412   .     A
C1300  C1303   1.415   .     A
C1300  C525    1.395   1_556 S
C1301  C1324   1.397   .     A
C1301  C1319   1.401   .     A
C1302  O1369   1.302   .     A
C1302  O1367   1.289   .     A
C1302  C1321   1.409   .     S
C1303  C1313   1.401   .     A
C1304  H1347   1.074   .     S
C1305  H1355   1.082   .     S
C1305  C545    1.387   1_556 S
C1306  O1374   1.422   .     S
C1306  C1307   1.548   .     S
C1306  H1360   1.111   .     S
C1306  H1326   1.105   .     S
C1307  C1308   1.527   .     S
C1307  H1327   1.102   .     S
C1307  H1328   1.108   .     S
C1308  H1329   1.111   .     S
C1308  H1416   1.111   .     S
C1309  C1310   1.533   .     S
C1309  H1332   1.104   .     S
C1309  H1333   1.107   .     S
C1309  O1364   1.412   .     S
C1310  H1335   1.110   .     S
C1310  C795    1.529   1_565 S
C1310  H818    1.106   1_565 S
C1311  H1339   1.111   .     S
C1311  H1338   1.110   .     S
C1311  H1337   1.109   .     S
C1312  H1340   1.108   .     S
C1312  O1365   1.430   .     S
C1312  C1486   1.535   1_455 S
C1312  H1513   1.109   1_455 S
C1313  H1356   1.076   .     S
C1313  C530    1.383   1_556 S
C1314  H1342   1.099   .     S
C1314  H1343   1.112   .     S
C1314  C1398   1.535   .     S
C1314  C1401   1.513   .     S
C1315  H1346   1.107   .     S
C1315  H1344   1.106   .     S
C1315  H1345   1.111   .     S
C1315  C1486   1.513   1_455 S
C1316  C1317   1.540   .     S
C1316  H1349   1.101   .     S
C1316  H1520   1.104   1_455 S
C1316  O1538   1.404   1_455 S
C1317  H1351   1.108   .     S
C1317  C1318   1.525   .     S
C1317  H1522   1.106   1_455 S
C1318  H1353   1.111   .     S
C1318  H1352   1.104   .     S
C1318  H1526   1.111   1_455 S
C1319  H1357   1.079   .     S
C1320  C805    1.340   1_565 S
C1320  H842    1.088   1_565 S
C1322  O1370   1.296   .     A
C1322  O1372   1.300   .     A
C1323  O1373   1.306   .     A
C1323  O1371   1.290   .     A
C1324  O1374   1.389   .     S
H1330  C1480   1.111   1_455 S
H1331  C792    1.111   1_565 S
H1341  C1398   1.109   .     S
H1348  C1402   1.104   .     S
H1350  C1403   1.106   .     S
H1354  C1404   1.111   .     S
H1359  C805    1.088   1_565 S
N1361  Zn1376  2.048   .     S
N1361  N1448   1.290   .     S
N1361  O1451   1.354   .     S
N1362  Zn1375  2.048   .     S
N1362  N1533   1.290   1_455 S
N1362  O1538   1.352   1_455 S
O1363  Zn1375  1.960   .     S
O1365  N1533   1.354   1_455 S
O1366  C1402   1.404   .     S
O1366  N1448   1.352   .     S
O1367  Zn1376  1.960   .     S
O1368  Zn1376  1.983   .     S
O1369  Zn1375  1.983   .     S
O1370  Zn1375  1.998   .     S
O1371  Zn1376  1.998   .     S
O1372  Zn1376  2.002   .     S
O1373  Zn1375  2.002   .     S
C1377  O1454   1.302   .     A
C1377  O1449   1.289   .     A
C1377  C1406   1.411   .     S
C1378  C1389   1.396   .     A
C1378  O1450   1.391   .     S
C1378  C1380   1.410   .     A
C1379  C1409   1.415   .     S
C1379  C1410   1.408   .     A
C1379  C1381   1.386   .     A
C1380  C1382   1.389   .     A
C1380  C1408   1.418   .     S
C1381  C1383   1.378   .     A
C1381  H1411   1.087   .     S
C1382  C1384   1.379   .     A
C1382  H1422   1.086   .     S
C1383  C1390   1.388   .     A
C1383  C1385   1.406   .     A
C1384  C1391   1.396   .     A
C1384  C1386   1.407   .     A
C1385  C1387   1.412   .     A
C1386  C1389   1.415   .     A
C1386  C611    1.395   1_556 S
C1387  C1410   1.397   .     A
C1387  C1405   1.401   .     A
C1388  O1455   1.302   .     A
C1388  O1453   1.289   .     A
C1388  C1407   1.409   .     S
C1389  C1399   1.401   .     A
C1390  H1433   1.074   .     S
C1391  H1441   1.082   .     S
C1391  C631    1.387   1_556 S
C1392  O1460   1.422   .     S
C1392  C1393   1.548   .     S
C1392  H1446   1.111   .     S
C1392  H1412   1.105   .     S
C1393  C1394   1.527   .     S
C1393  H1413   1.102   .     S
C1393  H1414   1.108   .     S
C1394  H1415   1.111   .     S
C1394  H1502   1.111   .     S
C1395  C1396   1.533   .     S
C1395  H1418   1.104   .     S
C1395  H1419   1.107   .     S
C1395  O1450   1.412   .     S
C1396  H1421   1.110   .     S
C1396  C881    1.529   1_565 S
C1396  H904    1.106   1_565 S
C1397  H1425   1.111   .     S
C1397  H1424   1.110   .     S
C1397  H1423   1.109   .     S
C1398  H1426   1.108   .     S
C1398  O1451   1.430   .     S
C1399  H1442   1.076   .     S
C1399  C616    1.383   1_556 S
C1400  H1428   1.099   .     S
C1400  H1429   1.112   .     S
C1400  C1484   1.535   .     S
C1400  C1487   1.513   .     S
C1401  H1432   1.107   .     S
C1401  H1430   1.106   .     S
C1401  H1431   1.111   .     S
C1402  C1403   1.540   .     S
C1402  H1435   1.101   .     S
C1403  H1437   1.108   .     S
C1403  C1404   1.525   .     S
C1404  H1439   1.111   .     S
C1404  H1438   1.104   .     S
C1405  H1443   1.079   .     S
C1406  C891    1.340   1_565 S
C1406  H928    1.088   1_565 S
C1408  O1456   1.296   .     A
C1408  O1458   1.300   .     A
C1409  O1459   1.306   .     A
C1409  O1457   1.290   .     A
C1410  O1460   1.389   .     S
H1417  C878    1.111   1_565 S
H1427  C1484   1.109   .     S
H1434  C1488   1.104   .     S
H1436  C1489   1.106   .     S
H1440  C1490   1.111   .     S
H1445  C891    1.088   1_565 S
N1447  Zn1462  2.048   .     S
N1447  N1534   1.290   .     S
N1447  O1537   1.354   .     S
N1448  Zn1461  2.048   .     S
O1449  Zn1461  1.960   .     S
O1452  C1488   1.404   .     S
O1452  N1534   1.352   .     S
O1453  Zn1462  1.960   .     S
O1454  Zn1462  1.983   .     S
O1455  Zn1461  1.983   .     S
O1456  Zn1461  1.998   .     S
O1457  Zn1462  1.998   .     S
O1458  Zn1462  2.002   .     S
O1459  Zn1461  2.002   .     S
C1463  O1540   1.302   .     A
C1463  O1535   1.289   .     A
C1463  C1492   1.411   .     S
C1464  C1475   1.396   .     A
C1464  O1536   1.391   .     S
C1464  C1466   1.410   .     A
C1465  C1495   1.415   .     S
C1465  C1496   1.408   .     A
C1465  C1467   1.386   .     A
C1466  C1468   1.389   .     A
C1466  C1494   1.418   .     S
C1467  C1469   1.378   .     A
C1467  H1497   1.087   .     S
C1468  C1470   1.379   .     A
C1468  H1508   1.086   .     S
C1469  C1476   1.388   .     A
C1469  C1471   1.406   .     A
C1470  C1477   1.396   .     A
C1470  C1472   1.407   .     A
C1471  C1473   1.412   .     A
C1472  C1475   1.415   .     A
C1472  C697    1.395   1_556 S
C1473  C1496   1.397   .     A
C1473  C1491   1.401   .     A
C1474  O1541   1.302   .     A
C1474  O1539   1.289   .     A
C1474  C1493   1.409   .     S
C1475  C1485   1.401   .     A
C1476  H1519   1.074   .     S
C1477  H1527   1.082   .     S
C1477  C717    1.387   1_556 S
C1478  O1546   1.422   .     S
C1478  C1479   1.548   .     S
C1478  H1532   1.111   .     S
C1478  H1498   1.105   .     S
C1479  C1480   1.527   .     S
C1479  H1499   1.102   .     S
C1479  H1500   1.108   .     S
C1480  H1501   1.111   .     S
C1480  H1330   1.111   1_655 S
C1481  C1482   1.533   .     S
C1481  H1504   1.104   .     S
C1481  H1505   1.107   .     S
C1481  O1536   1.412   .     S
C1482  H1507   1.110   .     S
C1482  C967    1.529   1_565 S
C1482  H990    1.106   1_565 S
C1483  H1511   1.111   .     S
C1483  H1510   1.110   .     S
C1483  H1509   1.109   .     S
C1484  H1512   1.108   .     S
C1484  O1537   1.430   .     S
C1485  H1528   1.076   .     S
C1485  C702    1.383   1_556 S
C1486  H1514   1.099   .     S
C1486  H1515   1.112   .     S
C1486  C1312   1.535   1_655 S
C1486  C1315   1.513   1_655 S
C1487  H1518   1.107   .     S
C1487  H1516   1.106   .     S
C1487  H1517   1.111   .     S
C1488  C1489   1.540   .     S
C1488  H1521   1.101   .     S
C1489  H1523   1.108   .     S
C1489  C1490   1.525   .     S
C1490  H1525   1.111   .     S
C1490  H1524   1.104   .     S
C1491  H1529   1.079   .     S
C1492  C977    1.340   1_565 S
C1492  H1014   1.088   1_565 S
C1494  O1542   1.296   .     A
C1494  O1544   1.300   .     A
C1495  O1545   1.306   .     A
C1495  O1543   1.290   .     A
C1496  O1546   1.389   .     S
H1503  C964    1.111   1_565 S
H1513  C1312   1.109   1_655 S
H1520  C1316   1.104   1_655 S
H1522  C1317   1.106   1_655 S
H1526  C1318   1.111   1_655 S
H1531  C977    1.088   1_565 S
N1533  Zn1548  2.048   .     S
N1533  N1362   1.290   1_655 S
N1533  O1365   1.354   1_655 S
N1534  Zn1547  2.048   .     S
O1535  Zn1547  1.960   .     S
O1538  C1316   1.404   1_655 S
O1538  N1362   1.352   1_655 S
O1539  Zn1548  1.960   .     S
O1540  Zn1548  1.983   .     S
O1541  Zn1547  1.983   .     S
O1542  Zn1547  1.998   .     S
O1543  Zn1548  1.998   .     S
O1544  Zn1548  2.002   .     S
O1545  Zn1547  2.002   .     S
