data_str_m3_o2_o10_pcu_sym.72
_audit_creation_date              2020-01-03
_audit_creation_method            'Materials Studio'
_symmetry_space_group_name_H-M    'P1'
_symmetry_Int_Tables_number       1
_symmetry_cell_setting            triclinic
loop_
_symmetry_equiv_pos_as_xyz
  x,y,z
_cell_length_a                    25.8109
_cell_length_b                    29.6330
_cell_length_c                    28.4907
_cell_angle_alpha                 89.1247
_cell_angle_beta                  97.3825
_cell_angle_gamma                 90.8789
loop_
_atom_site_label
_atom_site_type_symbol
_atom_site_fract_x
_atom_site_fract_y
_atom_site_fract_z
_atom_site_U_iso_or_equiv
_atom_site_adp_type
_atom_site_occupancy
O1     O     0.16667   0.18453   0.28974   0.00000  Uiso   1.00
O2     O     0.16666   0.31546   0.21026   0.00000  Uiso   1.00
O3     O     0.16667   0.18453   0.21026   0.00000  Uiso   1.00
O4     O     0.16666   0.31547   0.28974   0.00000  Uiso   1.00
C5     C     0.16751   0.16376   0.25031   0.00000  Uiso   1.00
C6     C     0.16847   0.33639   0.24995   0.00000  Uiso   1.00
O7     O     0.09058   0.25000   0.28044   0.00000  Uiso   1.00
O8     O     0.24275   0.25000   0.21955   0.00000  Uiso   1.00
O9     O     0.09058   0.24999   0.20096   0.00000  Uiso   1.00
O10    O     0.24275   0.25000   0.29903   0.00000  Uiso   1.00
C11    C     0.06737   0.24822   0.23819   0.00000  Uiso   1.00
C12    C     0.26597   0.25129   0.26191   0.00000  Uiso   1.00
Zn13   Zn    0.16667   0.25000   0.30307   0.00000  Uiso   1.00
Zn14   Zn    0.16667   0.24999   0.19693   0.00000  Uiso   1.00
C15    C     0.01301   0.24015   0.23400   0.00000  Uiso   1.00
C16    C     0.32044   0.25849   0.26669   0.00000  Uiso   1.00
C17    C     0.15946   0.04224   0.28130   0.00000  Uiso   1.00
C18    C     0.17972   0.45624   0.21081   0.00000  Uiso   1.00
H19    H     0.13659   0.02010   0.30154   0.00000  Uiso   1.00
H20    H     0.16948   0.47657   0.17912   0.00000  Uiso   1.00
C21    C     0.14914   0.08781   0.27928   0.00000  Uiso   1.00
C22    C     0.16931   0.41036   0.20939   0.00000  Uiso   1.00
H23    H     0.11880   0.10077   0.29808   0.00000  Uiso   1.00
H24    H     0.15269   0.39538   0.17629   0.00000  Uiso   1.00
C25    C     0.17654   0.11608   0.25152   0.00000  Uiso   1.00
C26    C     0.17859   0.38451   0.25092   0.00000  Uiso   1.00
C27    C     0.21474   0.09918   0.22603   0.00000  Uiso   1.00
C28    C     0.20104   0.40420   0.29332   0.00000  Uiso   1.00
H29    H     0.23651   0.12199   0.20551   0.00000  Uiso   1.00
H30    H     0.21036   0.38364   0.32494   0.00000  Uiso   1.00
C31    C     0.22614   0.05334   0.22818   0.00000  Uiso   1.00
C32    C     0.21260   0.45018   0.29508   0.00000  Uiso   1.00
C33    C     0.19743   0.02488   0.25577   0.00000  Uiso   1.00
C34    C     0.20007   0.47630   0.25355   0.00000  Uiso   1.00
C35    C     0.12369   0.23433   0.04776   0.00000  Uiso   1.00
C36    C     0.18168   0.28818   0.44867   0.00000  Uiso   1.00
H37    H     0.08902   0.22219   0.02587   0.00000  Uiso   1.00
H38    H     0.19322   0.31891   0.46754   0.00000  Uiso   1.00
C39    C     0.12463   0.23359   0.09732   0.00000  Uiso   1.00
C40    C     0.18257   0.28739   0.39933   0.00000  Uiso   1.00
H41    H     0.09115   0.22040   0.11258   0.00000  Uiso   1.00
H42    H     0.19546   0.31716   0.38148   0.00000  Uiso   1.00
N43    N     0.16667   0.24999   0.12623   0.00000  Uiso   1.00
N44    N     0.16667   0.25001   0.37376   0.00000  Uiso   1.00
C45    C     0.20875   0.26778   0.10665   0.00000  Uiso   1.00
C46    C     0.14933   0.21256   0.39665   0.00000  Uiso   1.00
C47    C     0.21108   0.26596   0.05734   0.00000  Uiso   1.00
C48    C     0.15154   0.21068   0.44651   0.00000  Uiso   1.00
C49    C     0.16732   0.24997   0.02673   0.00000  Uiso   1.00
C50    C     0.16679   0.24951   0.47345   0.00000  Uiso   1.00
O51    O     0.32252   0.20987   0.20093   0.00000  Uiso   1.00
H52    H     0.01583   0.19753   0.18265   0.00000  Uiso   1.00
O53    O     0.01120   0.28762   0.30086   0.00000  Uiso   1.00
H54    H     0.31788   0.30043   0.31882   0.00000  Uiso   1.00
N55    N     0.26647   0.03649   0.20277   0.00000  Uiso   1.00
O56    O     0.29304   0.00105   0.21802   0.00000  Uiso   1.00
O57    O     0.28026   0.05901   0.16669   0.00000  Uiso   1.00
N58    N     0.23605   0.46986   0.33885   0.00000  Uiso   1.00
O59    O     0.26570   0.00577   0.33863   0.00000  Uiso   1.00
O60    O     0.23179   0.44966   0.37909   0.00000  Uiso   1.00
N61    N     0.25075   0.28970   0.13577   0.00000  Uiso   1.00
O62    O     0.29879   0.27898   0.13228   0.00000  Uiso   1.00
O63    O     0.24210   0.32733   0.15606   0.00000  Uiso   1.00
N64    N     0.12778   0.17463   0.37025   0.00000  Uiso   1.00
O65    O     0.14625   0.13458   0.38063   0.00000  Uiso   1.00
O66    O     0.08324   0.17848   0.34352   0.00000  Uiso   1.00
O67    O     0.25653   0.28060   0.04073   0.00000  Uiso   1.00
H68    H     0.26033   0.26454   0.01119   0.00000  Uiso   1.00
O69    O     0.13807   0.17042   0.46715   0.00000  Uiso   1.00
H70    H     0.15671   0.16838   0.49969   0.00000  Uiso   1.00
O71    O     0.50000   0.18453   0.28974   0.00000  Uiso   1.00
O72    O     0.50000   0.31546   0.21026   0.00000  Uiso   1.00
O73    O     0.50000   0.18453   0.21026   0.00000  Uiso   1.00
O74    O     0.50000   0.31547   0.28974   0.00000  Uiso   1.00
C75    C     0.50084   0.16376   0.25031   0.00000  Uiso   1.00
C76    C     0.50180   0.33639   0.24995   0.00000  Uiso   1.00
O77    O     0.42392   0.25000   0.28044   0.00000  Uiso   1.00
O78    O     0.57608   0.25000   0.21955   0.00000  Uiso   1.00
O79    O     0.42392   0.24999   0.20096   0.00000  Uiso   1.00
O80    O     0.57608   0.25000   0.29903   0.00000  Uiso   1.00
C81    C     0.40071   0.24822   0.23819   0.00000  Uiso   1.00
C82    C     0.59931   0.25129   0.26191   0.00000  Uiso   1.00
Zn83   Zn    0.50000   0.25000   0.30307   0.00000  Uiso   1.00
Zn84   Zn    0.50000   0.24999   0.19693   0.00000  Uiso   1.00
C85    C     0.34634   0.24015   0.23400   0.00000  Uiso   1.00
C86    C     0.65377   0.25849   0.26669   0.00000  Uiso   1.00
C87    C     0.49279   0.04224   0.28130   0.00000  Uiso   1.00
C88    C     0.51305   0.45624   0.21081   0.00000  Uiso   1.00
H89    H     0.46992   0.02010   0.30154   0.00000  Uiso   1.00
H90    H     0.50281   0.47657   0.17912   0.00000  Uiso   1.00
C91    C     0.48247   0.08781   0.27928   0.00000  Uiso   1.00
C92    C     0.50265   0.41036   0.20939   0.00000  Uiso   1.00
H93    H     0.45214   0.10077   0.29808   0.00000  Uiso   1.00
H94    H     0.48602   0.39538   0.17629   0.00000  Uiso   1.00
C95    C     0.50987   0.11608   0.25152   0.00000  Uiso   1.00
C96    C     0.51192   0.38451   0.25092   0.00000  Uiso   1.00
C97    C     0.54808   0.09918   0.22603   0.00000  Uiso   1.00
C98    C     0.53437   0.40420   0.29332   0.00000  Uiso   1.00
H99    H     0.56984   0.12199   0.20551   0.00000  Uiso   1.00
H100   H     0.54369   0.38364   0.32494   0.00000  Uiso   1.00
C101   C     0.55947   0.05334   0.22818   0.00000  Uiso   1.00
C102   C     0.54594   0.45018   0.29508   0.00000  Uiso   1.00
C103   C     0.53077   0.02488   0.25577   0.00000  Uiso   1.00
C104   C     0.53340   0.47630   0.25355   0.00000  Uiso   1.00
C105   C     0.45702   0.23433   0.04776   0.00000  Uiso   1.00
C106   C     0.51501   0.28818   0.44867   0.00000  Uiso   1.00
H107   H     0.42235   0.22219   0.02587   0.00000  Uiso   1.00
H108   H     0.52655   0.31891   0.46754   0.00000  Uiso   1.00
C109   C     0.45796   0.23359   0.09732   0.00000  Uiso   1.00
C110   C     0.51590   0.28739   0.39933   0.00000  Uiso   1.00
H111   H     0.42448   0.22040   0.11258   0.00000  Uiso   1.00
H112   H     0.52879   0.31716   0.38148   0.00000  Uiso   1.00
N113   N     0.50000   0.24999   0.12623   0.00000  Uiso   1.00
N114   N     0.50000   0.25001   0.37376   0.00000  Uiso   1.00
C115   C     0.54208   0.26778   0.10665   0.00000  Uiso   1.00
C116   C     0.48266   0.21256   0.39665   0.00000  Uiso   1.00
C117   C     0.54442   0.26596   0.05734   0.00000  Uiso   1.00
C118   C     0.48487   0.21068   0.44651   0.00000  Uiso   1.00
C119   C     0.50065   0.24997   0.02673   0.00000  Uiso   1.00
C120   C     0.50012   0.24951   0.47345   0.00000  Uiso   1.00
O121   O     0.65585   0.20987   0.20093   0.00000  Uiso   1.00
H122   H     0.34916   0.19753   0.18265   0.00000  Uiso   1.00
O123   O     0.34453   0.28762   0.30086   0.00000  Uiso   1.00
H124   H     0.65121   0.30043   0.31882   0.00000  Uiso   1.00
N125   N     0.59980   0.03649   0.20277   0.00000  Uiso   1.00
O126   O     0.62637   0.00105   0.21802   0.00000  Uiso   1.00
O127   O     0.61360   0.05901   0.16669   0.00000  Uiso   1.00
N128   N     0.56938   0.46986   0.33885   0.00000  Uiso   1.00
O129   O     0.59904   0.00577   0.33863   0.00000  Uiso   1.00
O130   O     0.56512   0.44966   0.37909   0.00000  Uiso   1.00
N131   N     0.58408   0.28970   0.13577   0.00000  Uiso   1.00
O132   O     0.63212   0.27898   0.13228   0.00000  Uiso   1.00
O133   O     0.57543   0.32733   0.15606   0.00000  Uiso   1.00
N134   N     0.46111   0.17463   0.37025   0.00000  Uiso   1.00
O135   O     0.47958   0.13458   0.38063   0.00000  Uiso   1.00
O136   O     0.41658   0.17848   0.34352   0.00000  Uiso   1.00
O137   O     0.58987   0.28060   0.04073   0.00000  Uiso   1.00
H138   H     0.59366   0.26454   0.01119   0.00000  Uiso   1.00
O139   O     0.47140   0.17042   0.46715   0.00000  Uiso   1.00
H140   H     0.49005   0.16838   0.49969   0.00000  Uiso   1.00
O141   O     0.83334   0.18453   0.28974   0.00000  Uiso   1.00
O142   O     0.83333   0.31546   0.21026   0.00000  Uiso   1.00
O143   O     0.83334   0.18453   0.21026   0.00000  Uiso   1.00
O144   O     0.83333   0.31547   0.28974   0.00000  Uiso   1.00
C145   C     0.83418   0.16376   0.25031   0.00000  Uiso   1.00
C146   C     0.83513   0.33639   0.24995   0.00000  Uiso   1.00
O147   O     0.75725   0.25000   0.28044   0.00000  Uiso   1.00
O148   O     0.90942   0.25000   0.21955   0.00000  Uiso   1.00
O149   O     0.75725   0.24999   0.20096   0.00000  Uiso   1.00
O150   O     0.90942   0.25000   0.29903   0.00000  Uiso   1.00
C151   C     0.73404   0.24822   0.23819   0.00000  Uiso   1.00
C152   C     0.93264   0.25129   0.26191   0.00000  Uiso   1.00
Zn153  Zn    0.83333   0.25000   0.30307   0.00000  Uiso   1.00
Zn154  Zn    0.83333   0.24999   0.19693   0.00000  Uiso   1.00
C155   C     0.67968   0.24015   0.23400   0.00000  Uiso   1.00
C156   C     0.98711   0.25849   0.26669   0.00000  Uiso   1.00
C157   C     0.82613   0.04224   0.28130   0.00000  Uiso   1.00
C158   C     0.84639   0.45624   0.21081   0.00000  Uiso   1.00
H159   H     0.80325   0.02010   0.30154   0.00000  Uiso   1.00
H160   H     0.83614   0.47657   0.17912   0.00000  Uiso   1.00
C161   C     0.81581   0.08781   0.27928   0.00000  Uiso   1.00
C162   C     0.83598   0.41036   0.20939   0.00000  Uiso   1.00
H163   H     0.78547   0.10077   0.29808   0.00000  Uiso   1.00
H164   H     0.81935   0.39538   0.17629   0.00000  Uiso   1.00
C165   C     0.84321   0.11608   0.25152   0.00000  Uiso   1.00
C166   C     0.84525   0.38451   0.25092   0.00000  Uiso   1.00
C167   C     0.88141   0.09918   0.22603   0.00000  Uiso   1.00
C168   C     0.86771   0.40420   0.29332   0.00000  Uiso   1.00
H169   H     0.90318   0.12199   0.20551   0.00000  Uiso   1.00
H170   H     0.87703   0.38364   0.32494   0.00000  Uiso   1.00
C171   C     0.89280   0.05334   0.22818   0.00000  Uiso   1.00
C172   C     0.87927   0.45018   0.29508   0.00000  Uiso   1.00
C173   C     0.86410   0.02488   0.25577   0.00000  Uiso   1.00
C174   C     0.86674   0.47630   0.25355   0.00000  Uiso   1.00
C175   C     0.79035   0.23433   0.04776   0.00000  Uiso   1.00
C176   C     0.84835   0.28818   0.44867   0.00000  Uiso   1.00
H177   H     0.75568   0.22219   0.02587   0.00000  Uiso   1.00
H178   H     0.85989   0.31891   0.46754   0.00000  Uiso   1.00
C179   C     0.79129   0.23359   0.09732   0.00000  Uiso   1.00
C180   C     0.84923   0.28739   0.39933   0.00000  Uiso   1.00
H181   H     0.75781   0.22040   0.11258   0.00000  Uiso   1.00
H182   H     0.86212   0.31716   0.38148   0.00000  Uiso   1.00
N183   N     0.83333   0.24999   0.12623   0.00000  Uiso   1.00
N184   N     0.83333   0.25001   0.37376   0.00000  Uiso   1.00
C185   C     0.87542   0.26778   0.10665   0.00000  Uiso   1.00
C186   C     0.81599   0.21256   0.39665   0.00000  Uiso   1.00
C187   C     0.87775   0.26596   0.05734   0.00000  Uiso   1.00
C188   C     0.81820   0.21068   0.44651   0.00000  Uiso   1.00
C189   C     0.83398   0.24997   0.02673   0.00000  Uiso   1.00
C190   C     0.83345   0.24951   0.47345   0.00000  Uiso   1.00
O191   O     0.98919   0.20987   0.20093   0.00000  Uiso   1.00
H192   H     0.68250   0.19753   0.18265   0.00000  Uiso   1.00
O193   O     0.67786   0.28762   0.30086   0.00000  Uiso   1.00
H194   H     0.98455   0.30043   0.31882   0.00000  Uiso   1.00
N195   N     0.93314   0.03649   0.20277   0.00000  Uiso   1.00
O196   O     0.95970   0.00105   0.21802   0.00000  Uiso   1.00
O197   O     0.94693   0.05901   0.16669   0.00000  Uiso   1.00
N198   N     0.90271   0.46986   0.33885   0.00000  Uiso   1.00
O199   O     0.93237   0.00577   0.33863   0.00000  Uiso   1.00
O200   O     0.89845   0.44966   0.37909   0.00000  Uiso   1.00
N201   N     0.91741   0.28970   0.13577   0.00000  Uiso   1.00
O202   O     0.96545   0.27898   0.13228   0.00000  Uiso   1.00
O203   O     0.90877   0.32733   0.15606   0.00000  Uiso   1.00
N204   N     0.79444   0.17463   0.37025   0.00000  Uiso   1.00
O205   O     0.81291   0.13458   0.38063   0.00000  Uiso   1.00
O206   O     0.74991   0.17848   0.34352   0.00000  Uiso   1.00
O207   O     0.92320   0.28060   0.04073   0.00000  Uiso   1.00
H208   H     0.92700   0.26454   0.01119   0.00000  Uiso   1.00
O209   O     0.80473   0.17042   0.46715   0.00000  Uiso   1.00
H210   H     0.82338   0.16838   0.49969   0.00000  Uiso   1.00
O211   O     0.16667   0.68453   0.28974   0.00000  Uiso   1.00
O212   O     0.16666   0.81546   0.21026   0.00000  Uiso   1.00
O213   O     0.16667   0.68453   0.21026   0.00000  Uiso   1.00
O214   O     0.16666   0.81547   0.28974   0.00000  Uiso   1.00
C215   C     0.16751   0.66376   0.25031   0.00000  Uiso   1.00
C216   C     0.16847   0.83639   0.24995   0.00000  Uiso   1.00
O217   O     0.09058   0.75000   0.28044   0.00000  Uiso   1.00
O218   O     0.24275   0.75000   0.21955   0.00000  Uiso   1.00
O219   O     0.09058   0.74999   0.20096   0.00000  Uiso   1.00
O220   O     0.24275   0.75000   0.29903   0.00000  Uiso   1.00
C221   C     0.06737   0.74822   0.23819   0.00000  Uiso   1.00
C222   C     0.26597   0.75129   0.26191   0.00000  Uiso   1.00
Zn223  Zn    0.16667   0.75000   0.30307   0.00000  Uiso   1.00
Zn224  Zn    0.16667   0.74999   0.19693   0.00000  Uiso   1.00
C225   C     0.01301   0.74015   0.23400   0.00000  Uiso   1.00
C226   C     0.32044   0.75849   0.26669   0.00000  Uiso   1.00
C227   C     0.15946   0.54224   0.28130   0.00000  Uiso   1.00
C228   C     0.17972   0.95624   0.21081   0.00000  Uiso   1.00
H229   H     0.13659   0.52010   0.30154   0.00000  Uiso   1.00
H230   H     0.16948   0.97657   0.17912   0.00000  Uiso   1.00
C231   C     0.14914   0.58781   0.27928   0.00000  Uiso   1.00
C232   C     0.16931   0.91036   0.20939   0.00000  Uiso   1.00
H233   H     0.11880   0.60077   0.29808   0.00000  Uiso   1.00
H234   H     0.15269   0.89538   0.17629   0.00000  Uiso   1.00
C235   C     0.17654   0.61608   0.25152   0.00000  Uiso   1.00
C236   C     0.17859   0.88451   0.25092   0.00000  Uiso   1.00
C237   C     0.21474   0.59918   0.22603   0.00000  Uiso   1.00
C238   C     0.20104   0.90420   0.29332   0.00000  Uiso   1.00
H239   H     0.23651   0.62199   0.20551   0.00000  Uiso   1.00
H240   H     0.21036   0.88364   0.32494   0.00000  Uiso   1.00
C241   C     0.22614   0.55334   0.22818   0.00000  Uiso   1.00
C242   C     0.21260   0.95018   0.29508   0.00000  Uiso   1.00
C243   C     0.19743   0.52488   0.25577   0.00000  Uiso   1.00
C244   C     0.20007   0.97630   0.25355   0.00000  Uiso   1.00
C245   C     0.12369   0.73433   0.04776   0.00000  Uiso   1.00
C246   C     0.18168   0.78818   0.44867   0.00000  Uiso   1.00
H247   H     0.08902   0.72219   0.02587   0.00000  Uiso   1.00
H248   H     0.19322   0.81891   0.46754   0.00000  Uiso   1.00
C249   C     0.12463   0.73359   0.09732   0.00000  Uiso   1.00
C250   C     0.18257   0.78739   0.39933   0.00000  Uiso   1.00
H251   H     0.09115   0.72040   0.11258   0.00000  Uiso   1.00
H252   H     0.19546   0.81716   0.38148   0.00000  Uiso   1.00
N253   N     0.16667   0.74999   0.12623   0.00000  Uiso   1.00
N254   N     0.16667   0.75001   0.37376   0.00000  Uiso   1.00
C255   C     0.20875   0.76778   0.10665   0.00000  Uiso   1.00
C256   C     0.14933   0.71256   0.39665   0.00000  Uiso   1.00
C257   C     0.21108   0.76596   0.05734   0.00000  Uiso   1.00
C258   C     0.15154   0.71068   0.44651   0.00000  Uiso   1.00
C259   C     0.16732   0.74997   0.02673   0.00000  Uiso   1.00
C260   C     0.16679   0.74951   0.47345   0.00000  Uiso   1.00
O261   O     0.32252   0.70987   0.20093   0.00000  Uiso   1.00
H262   H     0.01583   0.69753   0.18265   0.00000  Uiso   1.00
O263   O     0.01120   0.78762   0.30086   0.00000  Uiso   1.00
H264   H     0.31788   0.80043   0.31882   0.00000  Uiso   1.00
N265   N     0.26647   0.53649   0.20277   0.00000  Uiso   1.00
O266   O     0.29304   0.50105   0.21802   0.00000  Uiso   1.00
O267   O     0.28026   0.55901   0.16669   0.00000  Uiso   1.00
N268   N     0.23605   0.96986   0.33885   0.00000  Uiso   1.00
O269   O     0.26570   0.50577   0.33863   0.00000  Uiso   1.00
O270   O     0.23179   0.94966   0.37909   0.00000  Uiso   1.00
N271   N     0.25075   0.78970   0.13577   0.00000  Uiso   1.00
O272   O     0.29879   0.77898   0.13228   0.00000  Uiso   1.00
O273   O     0.24210   0.82733   0.15606   0.00000  Uiso   1.00
N274   N     0.12778   0.67463   0.37025   0.00000  Uiso   1.00
O275   O     0.14625   0.63458   0.38063   0.00000  Uiso   1.00
O276   O     0.08324   0.67848   0.34352   0.00000  Uiso   1.00
O277   O     0.25653   0.78060   0.04073   0.00000  Uiso   1.00
H278   H     0.26033   0.76454   0.01119   0.00000  Uiso   1.00
O279   O     0.13807   0.67042   0.46715   0.00000  Uiso   1.00
H280   H     0.15671   0.66838   0.49969   0.00000  Uiso   1.00
O281   O     0.50000   0.68453   0.28974   0.00000  Uiso   1.00
O282   O     0.50000   0.81546   0.21026   0.00000  Uiso   1.00
O283   O     0.50000   0.68453   0.21026   0.00000  Uiso   1.00
O284   O     0.50000   0.81547   0.28974   0.00000  Uiso   1.00
C285   C     0.50084   0.66376   0.25031   0.00000  Uiso   1.00
C286   C     0.50180   0.83639   0.24995   0.00000  Uiso   1.00
O287   O     0.42392   0.75000   0.28044   0.00000  Uiso   1.00
O288   O     0.57608   0.75000   0.21955   0.00000  Uiso   1.00
O289   O     0.42392   0.74999   0.20096   0.00000  Uiso   1.00
O290   O     0.57608   0.75000   0.29903   0.00000  Uiso   1.00
C291   C     0.40071   0.74822   0.23819   0.00000  Uiso   1.00
C292   C     0.59931   0.75129   0.26191   0.00000  Uiso   1.00
Zn293  Zn    0.50000   0.75000   0.30307   0.00000  Uiso   1.00
Zn294  Zn    0.50000   0.74999   0.19693   0.00000  Uiso   1.00
C295   C     0.34634   0.74015   0.23400   0.00000  Uiso   1.00
C296   C     0.65377   0.75849   0.26669   0.00000  Uiso   1.00
C297   C     0.49279   0.54224   0.28130   0.00000  Uiso   1.00
C298   C     0.51305   0.95624   0.21081   0.00000  Uiso   1.00
H299   H     0.46992   0.52010   0.30154   0.00000  Uiso   1.00
H300   H     0.50281   0.97657   0.17912   0.00000  Uiso   1.00
C301   C     0.48247   0.58781   0.27928   0.00000  Uiso   1.00
C302   C     0.50265   0.91036   0.20939   0.00000  Uiso   1.00
H303   H     0.45214   0.60077   0.29808   0.00000  Uiso   1.00
H304   H     0.48602   0.89538   0.17629   0.00000  Uiso   1.00
C305   C     0.50987   0.61608   0.25152   0.00000  Uiso   1.00
C306   C     0.51192   0.88451   0.25092   0.00000  Uiso   1.00
C307   C     0.54808   0.59918   0.22603   0.00000  Uiso   1.00
C308   C     0.53437   0.90420   0.29332   0.00000  Uiso   1.00
H309   H     0.56984   0.62199   0.20551   0.00000  Uiso   1.00
H310   H     0.54369   0.88364   0.32494   0.00000  Uiso   1.00
C311   C     0.55947   0.55334   0.22818   0.00000  Uiso   1.00
C312   C     0.54594   0.95018   0.29508   0.00000  Uiso   1.00
C313   C     0.53077   0.52488   0.25577   0.00000  Uiso   1.00
C314   C     0.53340   0.97630   0.25355   0.00000  Uiso   1.00
C315   C     0.45702   0.73433   0.04776   0.00000  Uiso   1.00
C316   C     0.51501   0.78818   0.44867   0.00000  Uiso   1.00
H317   H     0.42235   0.72219   0.02587   0.00000  Uiso   1.00
H318   H     0.52655   0.81891   0.46754   0.00000  Uiso   1.00
C319   C     0.45796   0.73359   0.09732   0.00000  Uiso   1.00
C320   C     0.51590   0.78739   0.39933   0.00000  Uiso   1.00
H321   H     0.42448   0.72040   0.11258   0.00000  Uiso   1.00
H322   H     0.52879   0.81716   0.38148   0.00000  Uiso   1.00
N323   N     0.50000   0.74999   0.12623   0.00000  Uiso   1.00
N324   N     0.50000   0.75001   0.37376   0.00000  Uiso   1.00
C325   C     0.54208   0.76778   0.10665   0.00000  Uiso   1.00
C326   C     0.48266   0.71256   0.39665   0.00000  Uiso   1.00
C327   C     0.54442   0.76596   0.05734   0.00000  Uiso   1.00
C328   C     0.48487   0.71068   0.44651   0.00000  Uiso   1.00
C329   C     0.50065   0.74997   0.02673   0.00000  Uiso   1.00
C330   C     0.50012   0.74951   0.47345   0.00000  Uiso   1.00
O331   O     0.65585   0.70987   0.20093   0.00000  Uiso   1.00
H332   H     0.34916   0.69753   0.18265   0.00000  Uiso   1.00
O333   O     0.34453   0.78762   0.30086   0.00000  Uiso   1.00
H334   H     0.65121   0.80043   0.31882   0.00000  Uiso   1.00
N335   N     0.59980   0.53649   0.20277   0.00000  Uiso   1.00
O336   O     0.62637   0.50105   0.21802   0.00000  Uiso   1.00
O337   O     0.61360   0.55901   0.16669   0.00000  Uiso   1.00
N338   N     0.56938   0.96986   0.33885   0.00000  Uiso   1.00
O339   O     0.59904   0.50577   0.33863   0.00000  Uiso   1.00
O340   O     0.56512   0.94966   0.37909   0.00000  Uiso   1.00
N341   N     0.58408   0.78970   0.13577   0.00000  Uiso   1.00
O342   O     0.63212   0.77898   0.13228   0.00000  Uiso   1.00
O343   O     0.57543   0.82733   0.15606   0.00000  Uiso   1.00
N344   N     0.46111   0.67463   0.37025   0.00000  Uiso   1.00
O345   O     0.47958   0.63458   0.38063   0.00000  Uiso   1.00
O346   O     0.41658   0.67848   0.34352   0.00000  Uiso   1.00
O347   O     0.58987   0.78060   0.04073   0.00000  Uiso   1.00
H348   H     0.59366   0.76454   0.01119   0.00000  Uiso   1.00
O349   O     0.47140   0.67042   0.46715   0.00000  Uiso   1.00
H350   H     0.49005   0.66838   0.49969   0.00000  Uiso   1.00
O351   O     0.83334   0.68453   0.28974   0.00000  Uiso   1.00
O352   O     0.83333   0.81546   0.21026   0.00000  Uiso   1.00
O353   O     0.83334   0.68453   0.21026   0.00000  Uiso   1.00
O354   O     0.83333   0.81547   0.28974   0.00000  Uiso   1.00
C355   C     0.83418   0.66376   0.25031   0.00000  Uiso   1.00
C356   C     0.83513   0.83639   0.24995   0.00000  Uiso   1.00
O357   O     0.75725   0.75000   0.28044   0.00000  Uiso   1.00
O358   O     0.90942   0.75000   0.21955   0.00000  Uiso   1.00
O359   O     0.75725   0.74999   0.20096   0.00000  Uiso   1.00
O360   O     0.90942   0.75000   0.29903   0.00000  Uiso   1.00
C361   C     0.73404   0.74822   0.23819   0.00000  Uiso   1.00
C362   C     0.93264   0.75129   0.26191   0.00000  Uiso   1.00
Zn363  Zn    0.83333   0.75000   0.30307   0.00000  Uiso   1.00
Zn364  Zn    0.83333   0.74999   0.19693   0.00000  Uiso   1.00
C365   C     0.67968   0.74015   0.23400   0.00000  Uiso   1.00
C366   C     0.98711   0.75849   0.26669   0.00000  Uiso   1.00
C367   C     0.82613   0.54224   0.28130   0.00000  Uiso   1.00
C368   C     0.84639   0.95624   0.21081   0.00000  Uiso   1.00
H369   H     0.80325   0.52010   0.30154   0.00000  Uiso   1.00
H370   H     0.83614   0.97657   0.17912   0.00000  Uiso   1.00
C371   C     0.81581   0.58781   0.27928   0.00000  Uiso   1.00
C372   C     0.83598   0.91036   0.20939   0.00000  Uiso   1.00
H373   H     0.78547   0.60077   0.29808   0.00000  Uiso   1.00
H374   H     0.81935   0.89538   0.17629   0.00000  Uiso   1.00
C375   C     0.84321   0.61608   0.25152   0.00000  Uiso   1.00
C376   C     0.84525   0.88451   0.25092   0.00000  Uiso   1.00
C377   C     0.88141   0.59918   0.22603   0.00000  Uiso   1.00
C378   C     0.86771   0.90420   0.29332   0.00000  Uiso   1.00
H379   H     0.90318   0.62199   0.20551   0.00000  Uiso   1.00
H380   H     0.87703   0.88364   0.32494   0.00000  Uiso   1.00
C381   C     0.89280   0.55334   0.22818   0.00000  Uiso   1.00
C382   C     0.87927   0.95018   0.29508   0.00000  Uiso   1.00
C383   C     0.86410   0.52488   0.25577   0.00000  Uiso   1.00
C384   C     0.86674   0.97630   0.25355   0.00000  Uiso   1.00
C385   C     0.79035   0.73433   0.04776   0.00000  Uiso   1.00
C386   C     0.84835   0.78818   0.44867   0.00000  Uiso   1.00
H387   H     0.75568   0.72219   0.02587   0.00000  Uiso   1.00
H388   H     0.85989   0.81891   0.46754   0.00000  Uiso   1.00
C389   C     0.79129   0.73359   0.09732   0.00000  Uiso   1.00
C390   C     0.84923   0.78739   0.39933   0.00000  Uiso   1.00
H391   H     0.75781   0.72040   0.11258   0.00000  Uiso   1.00
H392   H     0.86212   0.81716   0.38148   0.00000  Uiso   1.00
N393   N     0.83333   0.74999   0.12623   0.00000  Uiso   1.00
N394   N     0.83333   0.75001   0.37376   0.00000  Uiso   1.00
C395   C     0.87542   0.76778   0.10665   0.00000  Uiso   1.00
C396   C     0.81599   0.71256   0.39665   0.00000  Uiso   1.00
C397   C     0.87775   0.76596   0.05734   0.00000  Uiso   1.00
C398   C     0.81820   0.71068   0.44651   0.00000  Uiso   1.00
C399   C     0.83398   0.74997   0.02673   0.00000  Uiso   1.00
C400   C     0.83345   0.74951   0.47345   0.00000  Uiso   1.00
O401   O     0.98919   0.70987   0.20093   0.00000  Uiso   1.00
H402   H     0.68250   0.69753   0.18265   0.00000  Uiso   1.00
O403   O     0.67786   0.78762   0.30086   0.00000  Uiso   1.00
H404   H     0.98455   0.80043   0.31882   0.00000  Uiso   1.00
N405   N     0.93314   0.53649   0.20277   0.00000  Uiso   1.00
O406   O     0.95970   0.50105   0.21802   0.00000  Uiso   1.00
O407   O     0.94693   0.55901   0.16669   0.00000  Uiso   1.00
N408   N     0.90271   0.96986   0.33885   0.00000  Uiso   1.00
O409   O     0.93237   0.50577   0.33863   0.00000  Uiso   1.00
O410   O     0.89845   0.94966   0.37909   0.00000  Uiso   1.00
N411   N     0.91741   0.78970   0.13577   0.00000  Uiso   1.00
O412   O     0.96545   0.77898   0.13228   0.00000  Uiso   1.00
O413   O     0.90877   0.82733   0.15606   0.00000  Uiso   1.00
N414   N     0.79444   0.67463   0.37025   0.00000  Uiso   1.00
O415   O     0.81291   0.63458   0.38063   0.00000  Uiso   1.00
O416   O     0.74991   0.67848   0.34352   0.00000  Uiso   1.00
O417   O     0.92320   0.78060   0.04073   0.00000  Uiso   1.00
H418   H     0.92700   0.76454   0.01119   0.00000  Uiso   1.00
O419   O     0.80473   0.67042   0.46715   0.00000  Uiso   1.00
H420   H     0.82338   0.66838   0.49969   0.00000  Uiso   1.00
O421   O     0.16667   0.18453   0.78974   0.00000  Uiso   1.00
O422   O     0.16666   0.31546   0.71026   0.00000  Uiso   1.00
O423   O     0.16667   0.18453   0.71026   0.00000  Uiso   1.00
O424   O     0.16666   0.31547   0.78974   0.00000  Uiso   1.00
C425   C     0.16751   0.16376   0.75031   0.00000  Uiso   1.00
C426   C     0.16847   0.33639   0.74995   0.00000  Uiso   1.00
O427   O     0.09058   0.25000   0.78044   0.00000  Uiso   1.00
O428   O     0.24275   0.25000   0.71955   0.00000  Uiso   1.00
O429   O     0.09058   0.24999   0.70096   0.00000  Uiso   1.00
O430   O     0.24275   0.25000   0.79903   0.00000  Uiso   1.00
C431   C     0.06737   0.24822   0.73819   0.00000  Uiso   1.00
C432   C     0.26597   0.25129   0.76191   0.00000  Uiso   1.00
Zn433  Zn    0.16667   0.25000   0.80307   0.00000  Uiso   1.00
Zn434  Zn    0.16667   0.24999   0.69693   0.00000  Uiso   1.00
C435   C     0.01301   0.24015   0.73400   0.00000  Uiso   1.00
C436   C     0.32044   0.25849   0.76669   0.00000  Uiso   1.00
C437   C     0.15946   0.04224   0.78130   0.00000  Uiso   1.00
C438   C     0.17972   0.45624   0.71081   0.00000  Uiso   1.00
H439   H     0.13659   0.02010   0.80154   0.00000  Uiso   1.00
H440   H     0.16948   0.47657   0.67912   0.00000  Uiso   1.00
C441   C     0.14914   0.08781   0.77928   0.00000  Uiso   1.00
C442   C     0.16931   0.41036   0.70939   0.00000  Uiso   1.00
H443   H     0.11880   0.10077   0.79808   0.00000  Uiso   1.00
H444   H     0.15269   0.39538   0.67629   0.00000  Uiso   1.00
C445   C     0.17654   0.11608   0.75152   0.00000  Uiso   1.00
C446   C     0.17859   0.38451   0.75092   0.00000  Uiso   1.00
C447   C     0.21474   0.09918   0.72603   0.00000  Uiso   1.00
C448   C     0.20104   0.40420   0.79332   0.00000  Uiso   1.00
H449   H     0.23651   0.12199   0.70551   0.00000  Uiso   1.00
H450   H     0.21036   0.38364   0.82494   0.00000  Uiso   1.00
C451   C     0.22614   0.05334   0.72818   0.00000  Uiso   1.00
C452   C     0.21260   0.45018   0.79508   0.00000  Uiso   1.00
C453   C     0.19743   0.02488   0.75577   0.00000  Uiso   1.00
C454   C     0.20007   0.47630   0.75355   0.00000  Uiso   1.00
C455   C     0.12369   0.23433   0.54776   0.00000  Uiso   1.00
C456   C     0.18168   0.28818   0.94867   0.00000  Uiso   1.00
H457   H     0.08902   0.22219   0.52587   0.00000  Uiso   1.00
H458   H     0.19322   0.31891   0.96754   0.00000  Uiso   1.00
C459   C     0.12463   0.23359   0.59732   0.00000  Uiso   1.00
C460   C     0.18257   0.28739   0.89933   0.00000  Uiso   1.00
H461   H     0.09115   0.22040   0.61258   0.00000  Uiso   1.00
H462   H     0.19546   0.31716   0.88148   0.00000  Uiso   1.00
N463   N     0.16667   0.24999   0.62623   0.00000  Uiso   1.00
N464   N     0.16667   0.25001   0.87376   0.00000  Uiso   1.00
C465   C     0.20875   0.26778   0.60665   0.00000  Uiso   1.00
C466   C     0.14933   0.21256   0.89665   0.00000  Uiso   1.00
C467   C     0.21108   0.26596   0.55734   0.00000  Uiso   1.00
C468   C     0.15154   0.21068   0.94651   0.00000  Uiso   1.00
C469   C     0.16732   0.24997   0.52673   0.00000  Uiso   1.00
C470   C     0.16679   0.24951   0.97345   0.00000  Uiso   1.00
O471   O     0.32252   0.20987   0.70093   0.00000  Uiso   1.00
H472   H     0.01583   0.19753   0.68265   0.00000  Uiso   1.00
O473   O     0.01120   0.28762   0.80086   0.00000  Uiso   1.00
H474   H     0.31788   0.30043   0.81882   0.00000  Uiso   1.00
N475   N     0.26647   0.03649   0.70277   0.00000  Uiso   1.00
O476   O     0.29304   0.00105   0.71802   0.00000  Uiso   1.00
O477   O     0.28026   0.05901   0.66669   0.00000  Uiso   1.00
N478   N     0.23605   0.46986   0.83885   0.00000  Uiso   1.00
O479   O     0.26570   0.00577   0.83863   0.00000  Uiso   1.00
O480   O     0.23179   0.44966   0.87909   0.00000  Uiso   1.00
N481   N     0.25075   0.28970   0.63577   0.00000  Uiso   1.00
O482   O     0.29879   0.27898   0.63228   0.00000  Uiso   1.00
O483   O     0.24210   0.32733   0.65606   0.00000  Uiso   1.00
N484   N     0.12778   0.17463   0.87025   0.00000  Uiso   1.00
O485   O     0.14625   0.13458   0.88063   0.00000  Uiso   1.00
O486   O     0.08324   0.17848   0.84352   0.00000  Uiso   1.00
O487   O     0.25653   0.28060   0.54073   0.00000  Uiso   1.00
H488   H     0.26033   0.26454   0.51119   0.00000  Uiso   1.00
O489   O     0.13807   0.17042   0.96715   0.00000  Uiso   1.00
H490   H     0.15671   0.16838   0.99969   0.00000  Uiso   1.00
O491   O     0.50000   0.18453   0.78974   0.00000  Uiso   1.00
O492   O     0.50000   0.31546   0.71026   0.00000  Uiso   1.00
O493   O     0.50000   0.18453   0.71026   0.00000  Uiso   1.00
O494   O     0.50000   0.31547   0.78974   0.00000  Uiso   1.00
C495   C     0.50084   0.16376   0.75031   0.00000  Uiso   1.00
C496   C     0.50180   0.33639   0.74995   0.00000  Uiso   1.00
O497   O     0.42392   0.25000   0.78044   0.00000  Uiso   1.00
O498   O     0.57608   0.25000   0.71955   0.00000  Uiso   1.00
O499   O     0.42392   0.24999   0.70096   0.00000  Uiso   1.00
O500   O     0.57608   0.25000   0.79903   0.00000  Uiso   1.00
C501   C     0.40071   0.24822   0.73819   0.00000  Uiso   1.00
C502   C     0.59931   0.25129   0.76191   0.00000  Uiso   1.00
Zn503  Zn    0.50000   0.25000   0.80307   0.00000  Uiso   1.00
Zn504  Zn    0.50000   0.24999   0.69693   0.00000  Uiso   1.00
C505   C     0.34634   0.24015   0.73400   0.00000  Uiso   1.00
C506   C     0.65377   0.25849   0.76669   0.00000  Uiso   1.00
C507   C     0.49279   0.04224   0.78130   0.00000  Uiso   1.00
C508   C     0.51305   0.45624   0.71081   0.00000  Uiso   1.00
H509   H     0.46992   0.02010   0.80154   0.00000  Uiso   1.00
H510   H     0.50281   0.47657   0.67912   0.00000  Uiso   1.00
C511   C     0.48247   0.08781   0.77928   0.00000  Uiso   1.00
C512   C     0.50265   0.41036   0.70939   0.00000  Uiso   1.00
H513   H     0.45214   0.10077   0.79808   0.00000  Uiso   1.00
H514   H     0.48602   0.39538   0.67629   0.00000  Uiso   1.00
C515   C     0.50987   0.11608   0.75152   0.00000  Uiso   1.00
C516   C     0.51192   0.38451   0.75092   0.00000  Uiso   1.00
C517   C     0.54808   0.09918   0.72603   0.00000  Uiso   1.00
C518   C     0.53437   0.40420   0.79332   0.00000  Uiso   1.00
H519   H     0.56984   0.12199   0.70551   0.00000  Uiso   1.00
H520   H     0.54369   0.38364   0.82494   0.00000  Uiso   1.00
C521   C     0.55947   0.05334   0.72818   0.00000  Uiso   1.00
C522   C     0.54594   0.45018   0.79508   0.00000  Uiso   1.00
C523   C     0.53077   0.02488   0.75577   0.00000  Uiso   1.00
C524   C     0.53340   0.47630   0.75355   0.00000  Uiso   1.00
C525   C     0.45702   0.23433   0.54776   0.00000  Uiso   1.00
C526   C     0.51501   0.28818   0.94867   0.00000  Uiso   1.00
H527   H     0.42235   0.22219   0.52587   0.00000  Uiso   1.00
H528   H     0.52655   0.31891   0.96754   0.00000  Uiso   1.00
C529   C     0.45796   0.23359   0.59732   0.00000  Uiso   1.00
C530   C     0.51590   0.28739   0.89933   0.00000  Uiso   1.00
H531   H     0.42448   0.22040   0.61258   0.00000  Uiso   1.00
H532   H     0.52879   0.31716   0.88148   0.00000  Uiso   1.00
N533   N     0.50000   0.24999   0.62623   0.00000  Uiso   1.00
N534   N     0.50000   0.25001   0.87376   0.00000  Uiso   1.00
C535   C     0.54208   0.26778   0.60665   0.00000  Uiso   1.00
C536   C     0.48266   0.21256   0.89665   0.00000  Uiso   1.00
C537   C     0.54442   0.26596   0.55734   0.00000  Uiso   1.00
C538   C     0.48487   0.21068   0.94651   0.00000  Uiso   1.00
C539   C     0.50065   0.24997   0.52673   0.00000  Uiso   1.00
C540   C     0.50012   0.24951   0.97345   0.00000  Uiso   1.00
O541   O     0.65585   0.20987   0.70093   0.00000  Uiso   1.00
H542   H     0.34916   0.19753   0.68265   0.00000  Uiso   1.00
O543   O     0.34453   0.28762   0.80086   0.00000  Uiso   1.00
H544   H     0.65121   0.30043   0.81882   0.00000  Uiso   1.00
N545   N     0.59980   0.03649   0.70277   0.00000  Uiso   1.00
O546   O     0.62637   0.00105   0.71802   0.00000  Uiso   1.00
O547   O     0.61360   0.05901   0.66669   0.00000  Uiso   1.00
N548   N     0.56938   0.46986   0.83885   0.00000  Uiso   1.00
O549   O     0.59904   0.00577   0.83863   0.00000  Uiso   1.00
O550   O     0.56512   0.44966   0.87909   0.00000  Uiso   1.00
N551   N     0.58408   0.28970   0.63577   0.00000  Uiso   1.00
O552   O     0.63212   0.27898   0.63228   0.00000  Uiso   1.00
O553   O     0.57543   0.32733   0.65606   0.00000  Uiso   1.00
N554   N     0.46111   0.17463   0.87025   0.00000  Uiso   1.00
O555   O     0.47958   0.13458   0.88063   0.00000  Uiso   1.00
O556   O     0.41658   0.17848   0.84352   0.00000  Uiso   1.00
O557   O     0.58987   0.28060   0.54073   0.00000  Uiso   1.00
H558   H     0.59366   0.26454   0.51119   0.00000  Uiso   1.00
O559   O     0.47140   0.17042   0.96715   0.00000  Uiso   1.00
H560   H     0.49005   0.16838   0.99969   0.00000  Uiso   1.00
O561   O     0.83334   0.18453   0.78974   0.00000  Uiso   1.00
O562   O     0.83333   0.31546   0.71026   0.00000  Uiso   1.00
O563   O     0.83334   0.18453   0.71026   0.00000  Uiso   1.00
O564   O     0.83333   0.31547   0.78974   0.00000  Uiso   1.00
C565   C     0.83418   0.16376   0.75031   0.00000  Uiso   1.00
C566   C     0.83513   0.33639   0.74995   0.00000  Uiso   1.00
O567   O     0.75725   0.25000   0.78044   0.00000  Uiso   1.00
O568   O     0.90942   0.25000   0.71955   0.00000  Uiso   1.00
O569   O     0.75725   0.24999   0.70096   0.00000  Uiso   1.00
O570   O     0.90942   0.25000   0.79903   0.00000  Uiso   1.00
C571   C     0.73404   0.24822   0.73819   0.00000  Uiso   1.00
C572   C     0.93264   0.25129   0.76191   0.00000  Uiso   1.00
Zn573  Zn    0.83333   0.25000   0.80307   0.00000  Uiso   1.00
Zn574  Zn    0.83333   0.24999   0.69693   0.00000  Uiso   1.00
C575   C     0.67968   0.24015   0.73400   0.00000  Uiso   1.00
C576   C     0.98711   0.25849   0.76669   0.00000  Uiso   1.00
C577   C     0.82613   0.04224   0.78130   0.00000  Uiso   1.00
C578   C     0.84639   0.45624   0.71081   0.00000  Uiso   1.00
H579   H     0.80325   0.02010   0.80154   0.00000  Uiso   1.00
H580   H     0.83614   0.47657   0.67912   0.00000  Uiso   1.00
C581   C     0.81581   0.08781   0.77928   0.00000  Uiso   1.00
C582   C     0.83598   0.41036   0.70939   0.00000  Uiso   1.00
H583   H     0.78547   0.10077   0.79808   0.00000  Uiso   1.00
H584   H     0.81935   0.39538   0.67629   0.00000  Uiso   1.00
C585   C     0.84321   0.11608   0.75152   0.00000  Uiso   1.00
C586   C     0.84525   0.38451   0.75092   0.00000  Uiso   1.00
C587   C     0.88141   0.09918   0.72603   0.00000  Uiso   1.00
C588   C     0.86771   0.40420   0.79332   0.00000  Uiso   1.00
H589   H     0.90318   0.12199   0.70551   0.00000  Uiso   1.00
H590   H     0.87703   0.38364   0.82494   0.00000  Uiso   1.00
C591   C     0.89280   0.05334   0.72818   0.00000  Uiso   1.00
C592   C     0.87927   0.45018   0.79508   0.00000  Uiso   1.00
C593   C     0.86410   0.02488   0.75577   0.00000  Uiso   1.00
C594   C     0.86674   0.47630   0.75355   0.00000  Uiso   1.00
C595   C     0.79035   0.23433   0.54776   0.00000  Uiso   1.00
C596   C     0.84835   0.28818   0.94867   0.00000  Uiso   1.00
H597   H     0.75568   0.22219   0.52587   0.00000  Uiso   1.00
H598   H     0.85989   0.31891   0.96754   0.00000  Uiso   1.00
C599   C     0.79129   0.23359   0.59732   0.00000  Uiso   1.00
C600   C     0.84923   0.28739   0.89933   0.00000  Uiso   1.00
H601   H     0.75781   0.22040   0.61258   0.00000  Uiso   1.00
H602   H     0.86212   0.31716   0.88148   0.00000  Uiso   1.00
N603   N     0.83333   0.24999   0.62623   0.00000  Uiso   1.00
N604   N     0.83333   0.25001   0.87376   0.00000  Uiso   1.00
C605   C     0.87542   0.26778   0.60665   0.00000  Uiso   1.00
C606   C     0.81599   0.21256   0.89665   0.00000  Uiso   1.00
C607   C     0.87775   0.26596   0.55734   0.00000  Uiso   1.00
C608   C     0.81820   0.21068   0.94651   0.00000  Uiso   1.00
C609   C     0.83398   0.24997   0.52673   0.00000  Uiso   1.00
C610   C     0.83345   0.24951   0.97345   0.00000  Uiso   1.00
O611   O     0.98919   0.20987   0.70093   0.00000  Uiso   1.00
H612   H     0.68250   0.19753   0.68265   0.00000  Uiso   1.00
O613   O     0.67786   0.28762   0.80086   0.00000  Uiso   1.00
H614   H     0.98455   0.30043   0.81882   0.00000  Uiso   1.00
N615   N     0.93314   0.03649   0.70277   0.00000  Uiso   1.00
O616   O     0.95970   0.00105   0.71802   0.00000  Uiso   1.00
O617   O     0.94693   0.05901   0.66669   0.00000  Uiso   1.00
N618   N     0.90271   0.46986   0.83885   0.00000  Uiso   1.00
O619   O     0.93237   0.00577   0.83863   0.00000  Uiso   1.00
O620   O     0.89845   0.44966   0.87909   0.00000  Uiso   1.00
N621   N     0.91741   0.28970   0.63577   0.00000  Uiso   1.00
O622   O     0.96545   0.27898   0.63228   0.00000  Uiso   1.00
O623   O     0.90877   0.32733   0.65606   0.00000  Uiso   1.00
N624   N     0.79444   0.17463   0.87025   0.00000  Uiso   1.00
O625   O     0.81291   0.13458   0.88063   0.00000  Uiso   1.00
O626   O     0.74991   0.17848   0.84352   0.00000  Uiso   1.00
O627   O     0.92320   0.28060   0.54073   0.00000  Uiso   1.00
H628   H     0.92700   0.26454   0.51119   0.00000  Uiso   1.00
O629   O     0.80473   0.17042   0.96715   0.00000  Uiso   1.00
H630   H     0.82338   0.16838   0.99969   0.00000  Uiso   1.00
O631   O     0.16667   0.68453   0.78974   0.00000  Uiso   1.00
O632   O     0.16666   0.81546   0.71026   0.00000  Uiso   1.00
O633   O     0.16667   0.68453   0.71026   0.00000  Uiso   1.00
O634   O     0.16666   0.81547   0.78974   0.00000  Uiso   1.00
C635   C     0.16751   0.66376   0.75031   0.00000  Uiso   1.00
C636   C     0.16847   0.83639   0.74995   0.00000  Uiso   1.00
O637   O     0.09058   0.75000   0.78044   0.00000  Uiso   1.00
O638   O     0.24275   0.75000   0.71955   0.00000  Uiso   1.00
O639   O     0.09058   0.74999   0.70096   0.00000  Uiso   1.00
O640   O     0.24275   0.75000   0.79903   0.00000  Uiso   1.00
C641   C     0.06737   0.74822   0.73819   0.00000  Uiso   1.00
C642   C     0.26597   0.75129   0.76191   0.00000  Uiso   1.00
Zn643  Zn    0.16667   0.75000   0.80307   0.00000  Uiso   1.00
Zn644  Zn    0.16667   0.74999   0.69693   0.00000  Uiso   1.00
C645   C     0.01301   0.74015   0.73400   0.00000  Uiso   1.00
C646   C     0.32044   0.75849   0.76669   0.00000  Uiso   1.00
C647   C     0.15946   0.54224   0.78130   0.00000  Uiso   1.00
C648   C     0.17972   0.95624   0.71081   0.00000  Uiso   1.00
H649   H     0.13659   0.52010   0.80154   0.00000  Uiso   1.00
H650   H     0.16948   0.97657   0.67912   0.00000  Uiso   1.00
C651   C     0.14914   0.58781   0.77928   0.00000  Uiso   1.00
C652   C     0.16931   0.91036   0.70939   0.00000  Uiso   1.00
H653   H     0.11880   0.60077   0.79808   0.00000  Uiso   1.00
H654   H     0.15269   0.89538   0.67629   0.00000  Uiso   1.00
C655   C     0.17654   0.61608   0.75152   0.00000  Uiso   1.00
C656   C     0.17859   0.88451   0.75092   0.00000  Uiso   1.00
C657   C     0.21474   0.59918   0.72603   0.00000  Uiso   1.00
C658   C     0.20104   0.90420   0.79332   0.00000  Uiso   1.00
H659   H     0.23651   0.62199   0.70551   0.00000  Uiso   1.00
H660   H     0.21036   0.88364   0.82494   0.00000  Uiso   1.00
C661   C     0.22614   0.55334   0.72818   0.00000  Uiso   1.00
C662   C     0.21260   0.95018   0.79508   0.00000  Uiso   1.00
C663   C     0.19743   0.52488   0.75577   0.00000  Uiso   1.00
C664   C     0.20007   0.97630   0.75355   0.00000  Uiso   1.00
C665   C     0.12369   0.73433   0.54776   0.00000  Uiso   1.00
C666   C     0.18168   0.78818   0.94867   0.00000  Uiso   1.00
H667   H     0.08902   0.72219   0.52587   0.00000  Uiso   1.00
H668   H     0.19322   0.81891   0.96754   0.00000  Uiso   1.00
C669   C     0.12463   0.73359   0.59732   0.00000  Uiso   1.00
C670   C     0.18257   0.78739   0.89933   0.00000  Uiso   1.00
H671   H     0.09115   0.72040   0.61258   0.00000  Uiso   1.00
H672   H     0.19546   0.81716   0.88148   0.00000  Uiso   1.00
N673   N     0.16667   0.74999   0.62623   0.00000  Uiso   1.00
N674   N     0.16667   0.75001   0.87376   0.00000  Uiso   1.00
C675   C     0.20875   0.76778   0.60665   0.00000  Uiso   1.00
C676   C     0.14933   0.71256   0.89665   0.00000  Uiso   1.00
C677   C     0.21108   0.76596   0.55734   0.00000  Uiso   1.00
C678   C     0.15154   0.71068   0.94651   0.00000  Uiso   1.00
C679   C     0.16732   0.74997   0.52673   0.00000  Uiso   1.00
C680   C     0.16679   0.74951   0.97345   0.00000  Uiso   1.00
O681   O     0.32252   0.70987   0.70093   0.00000  Uiso   1.00
H682   H     0.01583   0.69753   0.68265   0.00000  Uiso   1.00
O683   O     0.01120   0.78762   0.80086   0.00000  Uiso   1.00
H684   H     0.31788   0.80043   0.81882   0.00000  Uiso   1.00
N685   N     0.26647   0.53649   0.70277   0.00000  Uiso   1.00
O686   O     0.29304   0.50105   0.71802   0.00000  Uiso   1.00
O687   O     0.28026   0.55901   0.66669   0.00000  Uiso   1.00
N688   N     0.23605   0.96986   0.83885   0.00000  Uiso   1.00
O689   O     0.26570   0.50577   0.83863   0.00000  Uiso   1.00
O690   O     0.23179   0.94966   0.87909   0.00000  Uiso   1.00
N691   N     0.25075   0.78970   0.63577   0.00000  Uiso   1.00
O692   O     0.29879   0.77898   0.63228   0.00000  Uiso   1.00
O693   O     0.24210   0.82733   0.65606   0.00000  Uiso   1.00
N694   N     0.12778   0.67463   0.87025   0.00000  Uiso   1.00
O695   O     0.14625   0.63458   0.88063   0.00000  Uiso   1.00
O696   O     0.08324   0.67848   0.84352   0.00000  Uiso   1.00
O697   O     0.25653   0.78060   0.54073   0.00000  Uiso   1.00
H698   H     0.26033   0.76454   0.51119   0.00000  Uiso   1.00
O699   O     0.13807   0.67042   0.96715   0.00000  Uiso   1.00
H700   H     0.15671   0.66838   0.99969   0.00000  Uiso   1.00
O701   O     0.50000   0.68453   0.78974   0.00000  Uiso   1.00
O702   O     0.50000   0.81546   0.71026   0.00000  Uiso   1.00
O703   O     0.50000   0.68453   0.71026   0.00000  Uiso   1.00
O704   O     0.50000   0.81547   0.78974   0.00000  Uiso   1.00
C705   C     0.50084   0.66376   0.75031   0.00000  Uiso   1.00
C706   C     0.50180   0.83639   0.74995   0.00000  Uiso   1.00
O707   O     0.42392   0.75000   0.78044   0.00000  Uiso   1.00
O708   O     0.57608   0.75000   0.71955   0.00000  Uiso   1.00
O709   O     0.42392   0.74999   0.70096   0.00000  Uiso   1.00
O710   O     0.57608   0.75000   0.79903   0.00000  Uiso   1.00
C711   C     0.40071   0.74822   0.73819   0.00000  Uiso   1.00
C712   C     0.59931   0.75129   0.76191   0.00000  Uiso   1.00
Zn713  Zn    0.50000   0.75000   0.80307   0.00000  Uiso   1.00
Zn714  Zn    0.50000   0.74999   0.69693   0.00000  Uiso   1.00
C715   C     0.34634   0.74015   0.73400   0.00000  Uiso   1.00
C716   C     0.65377   0.75849   0.76669   0.00000  Uiso   1.00
C717   C     0.49279   0.54224   0.78130   0.00000  Uiso   1.00
C718   C     0.51305   0.95624   0.71081   0.00000  Uiso   1.00
H719   H     0.46992   0.52010   0.80154   0.00000  Uiso   1.00
H720   H     0.50281   0.97657   0.67912   0.00000  Uiso   1.00
C721   C     0.48247   0.58781   0.77928   0.00000  Uiso   1.00
C722   C     0.50265   0.91036   0.70939   0.00000  Uiso   1.00
H723   H     0.45214   0.60077   0.79808   0.00000  Uiso   1.00
H724   H     0.48602   0.89538   0.67629   0.00000  Uiso   1.00
C725   C     0.50987   0.61608   0.75152   0.00000  Uiso   1.00
C726   C     0.51192   0.88451   0.75092   0.00000  Uiso   1.00
C727   C     0.54808   0.59918   0.72603   0.00000  Uiso   1.00
C728   C     0.53437   0.90420   0.79332   0.00000  Uiso   1.00
H729   H     0.56984   0.62199   0.70551   0.00000  Uiso   1.00
H730   H     0.54369   0.88364   0.82494   0.00000  Uiso   1.00
C731   C     0.55947   0.55334   0.72818   0.00000  Uiso   1.00
C732   C     0.54594   0.95018   0.79508   0.00000  Uiso   1.00
C733   C     0.53077   0.52488   0.75577   0.00000  Uiso   1.00
C734   C     0.53340   0.97630   0.75355   0.00000  Uiso   1.00
C735   C     0.45702   0.73433   0.54776   0.00000  Uiso   1.00
C736   C     0.51501   0.78818   0.94867   0.00000  Uiso   1.00
H737   H     0.42235   0.72219   0.52587   0.00000  Uiso   1.00
H738   H     0.52655   0.81891   0.96754   0.00000  Uiso   1.00
C739   C     0.45796   0.73359   0.59732   0.00000  Uiso   1.00
C740   C     0.51590   0.78739   0.89933   0.00000  Uiso   1.00
H741   H     0.42448   0.72040   0.61258   0.00000  Uiso   1.00
H742   H     0.52879   0.81716   0.88148   0.00000  Uiso   1.00
N743   N     0.50000   0.74999   0.62623   0.00000  Uiso   1.00
N744   N     0.50000   0.75001   0.87376   0.00000  Uiso   1.00
C745   C     0.54208   0.76778   0.60665   0.00000  Uiso   1.00
C746   C     0.48266   0.71256   0.89665   0.00000  Uiso   1.00
C747   C     0.54442   0.76596   0.55734   0.00000  Uiso   1.00
C748   C     0.48487   0.71068   0.94651   0.00000  Uiso   1.00
C749   C     0.50065   0.74997   0.52673   0.00000  Uiso   1.00
C750   C     0.50012   0.74951   0.97345   0.00000  Uiso   1.00
O751   O     0.65585   0.70987   0.70093   0.00000  Uiso   1.00
H752   H     0.34916   0.69753   0.68265   0.00000  Uiso   1.00
O753   O     0.34453   0.78762   0.80086   0.00000  Uiso   1.00
H754   H     0.65121   0.80043   0.81882   0.00000  Uiso   1.00
N755   N     0.59980   0.53649   0.70277   0.00000  Uiso   1.00
O756   O     0.62637   0.50105   0.71802   0.00000  Uiso   1.00
O757   O     0.61360   0.55901   0.66669   0.00000  Uiso   1.00
N758   N     0.56938   0.96986   0.83885   0.00000  Uiso   1.00
O759   O     0.59904   0.50577   0.83863   0.00000  Uiso   1.00
O760   O     0.56512   0.94966   0.87909   0.00000  Uiso   1.00
N761   N     0.58408   0.78970   0.63577   0.00000  Uiso   1.00
O762   O     0.63212   0.77898   0.63228   0.00000  Uiso   1.00
O763   O     0.57543   0.82733   0.65606   0.00000  Uiso   1.00
N764   N     0.46111   0.67463   0.87025   0.00000  Uiso   1.00
O765   O     0.47958   0.63458   0.88063   0.00000  Uiso   1.00
O766   O     0.41658   0.67848   0.84352   0.00000  Uiso   1.00
O767   O     0.58987   0.78060   0.54073   0.00000  Uiso   1.00
H768   H     0.59366   0.76454   0.51119   0.00000  Uiso   1.00
O769   O     0.47140   0.67042   0.96715   0.00000  Uiso   1.00
H770   H     0.49005   0.66838   0.99969   0.00000  Uiso   1.00
O771   O     0.83334   0.68453   0.78974   0.00000  Uiso   1.00
O772   O     0.83333   0.81546   0.71026   0.00000  Uiso   1.00
O773   O     0.83334   0.68453   0.71026   0.00000  Uiso   1.00
O774   O     0.83333   0.81547   0.78974   0.00000  Uiso   1.00
C775   C     0.83418   0.66376   0.75031   0.00000  Uiso   1.00
C776   C     0.83513   0.83639   0.74995   0.00000  Uiso   1.00
O777   O     0.75725   0.75000   0.78044   0.00000  Uiso   1.00
O778   O     0.90942   0.75000   0.71955   0.00000  Uiso   1.00
O779   O     0.75725   0.74999   0.70096   0.00000  Uiso   1.00
O780   O     0.90942   0.75000   0.79903   0.00000  Uiso   1.00
C781   C     0.73404   0.74822   0.73819   0.00000  Uiso   1.00
C782   C     0.93264   0.75129   0.76191   0.00000  Uiso   1.00
Zn783  Zn    0.83333   0.75000   0.80307   0.00000  Uiso   1.00
Zn784  Zn    0.83333   0.74999   0.69693   0.00000  Uiso   1.00
C785   C     0.67968   0.74015   0.73400   0.00000  Uiso   1.00
C786   C     0.98711   0.75849   0.76669   0.00000  Uiso   1.00
C787   C     0.82613   0.54224   0.78130   0.00000  Uiso   1.00
C788   C     0.84639   0.95624   0.71081   0.00000  Uiso   1.00
H789   H     0.80325   0.52010   0.80154   0.00000  Uiso   1.00
H790   H     0.83614   0.97657   0.67912   0.00000  Uiso   1.00
C791   C     0.81581   0.58781   0.77928   0.00000  Uiso   1.00
C792   C     0.83598   0.91036   0.70939   0.00000  Uiso   1.00
H793   H     0.78547   0.60077   0.79808   0.00000  Uiso   1.00
H794   H     0.81935   0.89538   0.67629   0.00000  Uiso   1.00
C795   C     0.84321   0.61608   0.75152   0.00000  Uiso   1.00
C796   C     0.84525   0.88451   0.75092   0.00000  Uiso   1.00
C797   C     0.88141   0.59918   0.72603   0.00000  Uiso   1.00
C798   C     0.86771   0.90420   0.79332   0.00000  Uiso   1.00
H799   H     0.90318   0.62199   0.70551   0.00000  Uiso   1.00
H800   H     0.87703   0.88364   0.82494   0.00000  Uiso   1.00
C801   C     0.89280   0.55334   0.72818   0.00000  Uiso   1.00
C802   C     0.87927   0.95018   0.79508   0.00000  Uiso   1.00
C803   C     0.86410   0.52488   0.75577   0.00000  Uiso   1.00
C804   C     0.86674   0.97630   0.75355   0.00000  Uiso   1.00
C805   C     0.79035   0.73433   0.54776   0.00000  Uiso   1.00
C806   C     0.84835   0.78818   0.94867   0.00000  Uiso   1.00
H807   H     0.75568   0.72219   0.52587   0.00000  Uiso   1.00
H808   H     0.85989   0.81891   0.96754   0.00000  Uiso   1.00
C809   C     0.79129   0.73359   0.59732   0.00000  Uiso   1.00
C810   C     0.84923   0.78739   0.89933   0.00000  Uiso   1.00
H811   H     0.75781   0.72040   0.61258   0.00000  Uiso   1.00
H812   H     0.86212   0.81716   0.88148   0.00000  Uiso   1.00
N813   N     0.83333   0.74999   0.62623   0.00000  Uiso   1.00
N814   N     0.83333   0.75001   0.87376   0.00000  Uiso   1.00
C815   C     0.87542   0.76778   0.60665   0.00000  Uiso   1.00
C816   C     0.81599   0.71256   0.89665   0.00000  Uiso   1.00
C817   C     0.87775   0.76596   0.55734   0.00000  Uiso   1.00
C818   C     0.81820   0.71068   0.94651   0.00000  Uiso   1.00
C819   C     0.83398   0.74997   0.52673   0.00000  Uiso   1.00
C820   C     0.83345   0.74951   0.97345   0.00000  Uiso   1.00
O821   O     0.98919   0.70987   0.70093   0.00000  Uiso   1.00
H822   H     0.68250   0.69753   0.68265   0.00000  Uiso   1.00
O823   O     0.67786   0.78762   0.80086   0.00000  Uiso   1.00
H824   H     0.98455   0.80043   0.81882   0.00000  Uiso   1.00
N825   N     0.93314   0.53649   0.70277   0.00000  Uiso   1.00
O826   O     0.95970   0.50105   0.71802   0.00000  Uiso   1.00
O827   O     0.94693   0.55901   0.66669   0.00000  Uiso   1.00
N828   N     0.90271   0.96986   0.83885   0.00000  Uiso   1.00
O829   O     0.93237   0.50577   0.83863   0.00000  Uiso   1.00
O830   O     0.89845   0.94966   0.87909   0.00000  Uiso   1.00
N831   N     0.91741   0.78970   0.63577   0.00000  Uiso   1.00
O832   O     0.96545   0.77898   0.63228   0.00000  Uiso   1.00
O833   O     0.90877   0.82733   0.65606   0.00000  Uiso   1.00
N834   N     0.79444   0.67463   0.87025   0.00000  Uiso   1.00
O835   O     0.81291   0.63458   0.88063   0.00000  Uiso   1.00
O836   O     0.74991   0.67848   0.84352   0.00000  Uiso   1.00
O837   O     0.92320   0.78060   0.54073   0.00000  Uiso   1.00
H838   H     0.92700   0.76454   0.51119   0.00000  Uiso   1.00
O839   O     0.80473   0.67042   0.96715   0.00000  Uiso   1.00
H840   H     0.82338   0.66838   0.99969   0.00000  Uiso   1.00
loop_
_geom_bond_atom_site_label_1
_geom_bond_atom_site_label_2
_geom_bond_distance
_geom_bond_site_symmetry_2
_ccdc_geom_bond_type
O1     C5      1.292   .     A
O1     Zn13    1.983   .     S
O2     C6      1.293   .     A
O2     Zn14    1.983   .     S
O3     Zn14    1.971   .     S
O3     C5      1.286   .     A
O4     C6      1.289   .     A
O4     Zn13    1.971   .     S
C5     C25     1.435   .     S
C6     C26     1.446   .     S
O7     Zn13    1.987   .     S
O7     C11     1.275   .     A
O8     C12     1.277   .     A
O8     Zn14    1.987   .     S
O9     Zn14    1.982   .     S
O9     C11     1.283   .     A
O10    C12     1.281   .     A
O10    Zn13    1.982   .     S
C11    C15     1.410   .     S
C12    C16     1.408   .     S
Zn13   N44     2.014   .     S
Zn14   N43     2.014   .     S
C15    C156    1.340   1_455 S
C15    O191    1.390   1_455 S
C16    C85     1.340   .     S
C16    O123    1.390   .     S
C17    H19     1.084   .     S
C17    C33     1.402   .     A
C17    C21     1.379   .     A
C18    C34     1.400   .     A
C18    H20     1.084   .     S
C18    C22     1.382   .     A
C21    H23     1.082   .     S
C21    C25     1.390   .     A
C22    H24     1.083   .     S
C22    C26     1.396   .     A
C25    C27     1.400   .     A
C26    C28     1.402   .     A
C27    H29     1.084   .     S
C27    C31     1.393   .     A
C28    H30     1.083   .     S
C28    C32     1.391   .     A
C31    C33     1.410   .     A
C31    N55     1.442   .     S
C32    C34     1.409   .     A
C32    N58     1.442   .     S
C33    C244    1.445   1_545 S
C34    C243    1.445   .     S
C35    C49     1.411   .     A
C35    C39     1.409   .     A
C35    H37     1.083   .     S
C36    H38     1.083   .     S
C36    C50     1.411   .     A
C36    C40     1.409   .     A
C39    H41     1.081   .     S
C39    N43     1.363   .     A
C40    H42     1.081   .     S
C40    N44     1.364   .     A
N43    C45     1.378   .     A
N44    C46     1.376   .     A
C45    N61     1.431   .     S
C45    C47     1.416   .     A
C46    C48     1.415   .     A
C46    N64     1.427   .     S
C47    C49     1.416   .     A
C47    O67     1.382   .     S
C48    O69     1.382   .     S
C48    C50     1.415   .     A
C49    C470    1.517   1_554 S
C50    C469    1.517   .     S
O51    C85     1.390   .     S
O51    H122    0.992   .     S
H52    O191    0.992   1_455 S
O53    C156    1.390   1_455 S
O53    H194    0.992   1_455 S
H54    O123    0.992   .     S
N55    O56     1.301   .     A
N55    O57     1.302   .     A
N58    O60     1.302   .     A
N58    O269    1.301   .     S
O59    N268    1.301   1_545 S
N61    O62     1.301   .     A
N61    O63     1.299   .     A
N64    O65     1.301   .     A
N64    O66     1.300   .     A
O67    H68     0.990   .     S
O69    H70     0.990   .     S
O71    C75     1.292   .     A
O71    Zn83    1.983   .     S
O72    C76     1.293   .     A
O72    Zn84    1.983   .     S
O73    Zn84    1.971   .     S
O73    C75     1.286   .     A
O74    C76     1.289   .     A
O74    Zn83    1.971   .     S
C75    C95     1.435   .     S
C76    C96     1.446   .     S
O77    Zn83    1.987   .     S
O77    C81     1.275   .     A
O78    C82     1.277   .     A
O78    Zn84    1.987   .     S
O79    Zn84    1.982   .     S
O79    C81     1.283   .     A
O80    C82     1.281   .     A
O80    Zn83    1.982   .     S
C81    C85     1.410   .     S
C82    C86     1.408   .     S
Zn83   N114    2.014   .     S
Zn84   N113    2.014   .     S
C86    C155    1.340   .     S
C86    O193    1.390   .     S
C87    H89     1.084   .     S
C87    C103    1.402   .     A
C87    C91     1.379   .     A
C88    C104    1.400   .     A
C88    H90     1.084   .     S
C88    C92     1.382   .     A
C91    H93     1.082   .     S
C91    C95     1.390   .     A
C92    H94     1.083   .     S
C92    C96     1.396   .     A
C95    C97     1.400   .     A
C96    C98     1.402   .     A
C97    H99     1.084   .     S
C97    C101    1.393   .     A
C98    H100    1.083   .     S
C98    C102    1.391   .     A
C101   C103    1.410   .     A
C101   N125    1.442   .     S
C102   C104    1.409   .     A
C102   N128    1.442   .     S
C103   C314    1.445   1_545 S
C104   C313    1.445   .     S
C105   C119    1.411   .     A
C105   C109    1.409   .     A
C105   H107    1.083   .     S
C106   H108    1.083   .     S
C106   C120    1.411   .     A
C106   C110    1.409   .     A
C109   H111    1.081   .     S
C109   N113    1.363   .     A
C110   H112    1.081   .     S
C110   N114    1.364   .     A
N113   C115    1.378   .     A
N114   C116    1.376   .     A
C115   N131    1.431   .     S
C115   C117    1.416   .     A
C116   C118    1.415   .     A
C116   N134    1.427   .     S
C117   C119    1.416   .     A
C117   O137    1.382   .     S
C118   O139    1.382   .     S
C118   C120    1.415   .     A
C119   C540    1.517   1_554 S
C120   C539    1.517   .     S
O121   C155    1.390   .     S
O121   H192    0.992   .     S
H124   O193    0.992   .     S
N125   O126    1.301   .     A
N125   O127    1.302   .     A
N128   O130    1.302   .     A
N128   O339    1.301   .     S
O129   N338    1.301   1_545 S
N131   O132    1.301   .     A
N131   O133    1.299   .     A
N134   O135    1.301   .     A
N134   O136    1.300   .     A
O137   H138    0.990   .     S
O139   H140    0.990   .     S
O141   C145    1.292   .     A
O141   Zn153   1.983   .     S
O142   C146    1.293   .     A
O142   Zn154   1.983   .     S
O143   Zn154   1.971   .     S
O143   C145    1.286   .     A
O144   C146    1.289   .     A
O144   Zn153   1.971   .     S
C145   C165    1.435   .     S
C146   C166    1.446   .     S
O147   Zn153   1.987   .     S
O147   C151    1.275   .     A
O148   C152    1.277   .     A
O148   Zn154   1.987   .     S
O149   Zn154   1.982   .     S
O149   C151    1.283   .     A
O150   C152    1.281   .     A
O150   Zn153   1.982   .     S
C151   C155    1.410   .     S
C152   C156    1.408   .     S
Zn153  N184    2.014   .     S
Zn154  N183    2.014   .     S
C156   C15     1.340   1_655 S
C156   O53     1.390   1_655 S
C157   H159    1.084   .     S
C157   C173    1.402   .     A
C157   C161    1.379   .     A
C158   C174    1.400   .     A
C158   H160    1.084   .     S
C158   C162    1.382   .     A
C161   H163    1.082   .     S
C161   C165    1.390   .     A
C162   H164    1.083   .     S
C162   C166    1.396   .     A
C165   C167    1.400   .     A
C166   C168    1.402   .     A
C167   H169    1.084   .     S
C167   C171    1.393   .     A
C168   H170    1.083   .     S
C168   C172    1.391   .     A
C171   C173    1.410   .     A
C171   N195    1.442   .     S
C172   C174    1.409   .     A
C172   N198    1.442   .     S
C173   C384    1.445   1_545 S
C174   C383    1.445   .     S
C175   C189    1.411   .     A
C175   C179    1.409   .     A
C175   H177    1.083   .     S
C176   H178    1.083   .     S
C176   C190    1.411   .     A
C176   C180    1.409   .     A
C179   H181    1.081   .     S
C179   N183    1.363   .     A
C180   H182    1.081   .     S
C180   N184    1.364   .     A
N183   C185    1.378   .     A
N184   C186    1.376   .     A
C185   N201    1.431   .     S
C185   C187    1.416   .     A
C186   C188    1.415   .     A
C186   N204    1.427   .     S
C187   C189    1.416   .     A
C187   O207    1.382   .     S
C188   O209    1.382   .     S
C188   C190    1.415   .     A
C189   C610    1.517   1_554 S
C190   C609    1.517   .     S
O191   C15     1.390   1_655 S
O191   H52     0.992   1_655 S
H194   O53     0.992   1_655 S
N195   O196    1.301   .     A
N195   O197    1.302   .     A
N198   O200    1.302   .     A
N198   O409    1.301   .     S
O199   N408    1.301   1_545 S
N201   O202    1.301   .     A
N201   O203    1.299   .     A
N204   O205    1.301   .     A
N204   O206    1.300   .     A
O207   H208    0.990   .     S
O209   H210    0.990   .     S
O211   C215    1.292   .     A
O211   Zn223   1.983   .     S
O212   C216    1.293   .     A
O212   Zn224   1.983   .     S
O213   Zn224   1.971   .     S
O213   C215    1.286   .     A
O214   C216    1.289   .     A
O214   Zn223   1.971   .     S
C215   C235    1.435   .     S
C216   C236    1.446   .     S
O217   Zn223   1.987   .     S
O217   C221    1.275   .     A
O218   C222    1.277   .     A
O218   Zn224   1.987   .     S
O219   Zn224   1.982   .     S
O219   C221    1.283   .     A
O220   C222    1.281   .     A
O220   Zn223   1.982   .     S
C221   C225    1.410   .     S
C222   C226    1.408   .     S
Zn223  N254    2.014   .     S
Zn224  N253    2.014   .     S
C225   C366    1.340   1_455 S
C225   O401    1.390   1_455 S
C226   C295    1.340   .     S
C226   O333    1.390   .     S
C227   H229    1.084   .     S
C227   C243    1.402   .     A
C227   C231    1.379   .     A
C228   C244    1.400   .     A
C228   H230    1.084   .     S
C228   C232    1.382   .     A
C231   H233    1.082   .     S
C231   C235    1.390   .     A
C232   H234    1.083   .     S
C232   C236    1.396   .     A
C235   C237    1.400   .     A
C236   C238    1.402   .     A
C237   H239    1.084   .     S
C237   C241    1.393   .     A
C238   H240    1.083   .     S
C238   C242    1.391   .     A
C241   C243    1.410   .     A
C241   N265    1.442   .     S
C242   C244    1.409   .     A
C242   N268    1.442   .     S
C244   C33     1.445   1_565 S
C245   C259    1.411   .     A
C245   C249    1.409   .     A
C245   H247    1.083   .     S
C246   H248    1.083   .     S
C246   C260    1.411   .     A
C246   C250    1.409   .     A
C249   H251    1.081   .     S
C249   N253    1.363   .     A
C250   H252    1.081   .     S
C250   N254    1.364   .     A
N253   C255    1.378   .     A
N254   C256    1.376   .     A
C255   N271    1.431   .     S
C255   C257    1.416   .     A
C256   C258    1.415   .     A
C256   N274    1.427   .     S
C257   C259    1.416   .     A
C257   O277    1.382   .     S
C258   O279    1.382   .     S
C258   C260    1.415   .     A
C259   C680    1.517   1_554 S
C260   C679    1.517   .     S
O261   C295    1.390   .     S
O261   H332    0.992   .     S
H262   O401    0.992   1_455 S
O263   C366    1.390   1_455 S
O263   H404    0.992   1_455 S
H264   O333    0.992   .     S
N265   O266    1.301   .     A
N265   O267    1.302   .     A
N268   O270    1.302   .     A
N268   O59     1.301   1_565 S
N271   O272    1.301   .     A
N271   O273    1.299   .     A
N274   O275    1.301   .     A
N274   O276    1.300   .     A
O277   H278    0.990   .     S
O279   H280    0.990   .     S
O281   C285    1.292   .     A
O281   Zn293   1.983   .     S
O282   C286    1.293   .     A
O282   Zn294   1.983   .     S
O283   Zn294   1.971   .     S
O283   C285    1.286   .     A
O284   C286    1.289   .     A
O284   Zn293   1.971   .     S
C285   C305    1.435   .     S
C286   C306    1.446   .     S
O287   Zn293   1.987   .     S
O287   C291    1.275   .     A
O288   C292    1.277   .     A
O288   Zn294   1.987   .     S
O289   Zn294   1.982   .     S
O289   C291    1.283   .     A
O290   C292    1.281   .     A
O290   Zn293   1.982   .     S
C291   C295    1.410   .     S
C292   C296    1.408   .     S
Zn293  N324    2.014   .     S
Zn294  N323    2.014   .     S
C296   C365    1.340   .     S
C296   O403    1.390   .     S
C297   H299    1.084   .     S
C297   C313    1.402   .     A
C297   C301    1.379   .     A
C298   C314    1.400   .     A
C298   H300    1.084   .     S
C298   C302    1.382   .     A
C301   H303    1.082   .     S
C301   C305    1.390   .     A
C302   H304    1.083   .     S
C302   C306    1.396   .     A
C305   C307    1.400   .     A
C306   C308    1.402   .     A
C307   H309    1.084   .     S
C307   C311    1.393   .     A
C308   H310    1.083   .     S
C308   C312    1.391   .     A
C311   C313    1.410   .     A
C311   N335    1.442   .     S
C312   C314    1.409   .     A
C312   N338    1.442   .     S
C314   C103    1.445   1_565 S
C315   C329    1.411   .     A
C315   C319    1.409   .     A
C315   H317    1.083   .     S
C316   H318    1.083   .     S
C316   C330    1.411   .     A
C316   C320    1.409   .     A
C319   H321    1.081   .     S
C319   N323    1.363   .     A
C320   H322    1.081   .     S
C320   N324    1.364   .     A
N323   C325    1.378   .     A
N324   C326    1.376   .     A
C325   N341    1.431   .     S
C325   C327    1.416   .     A
C326   C328    1.415   .     A
C326   N344    1.427   .     S
C327   C329    1.416   .     A
C327   O347    1.382   .     S
C328   O349    1.382   .     S
C328   C330    1.415   .     A
C329   C750    1.517   1_554 S
C330   C749    1.517   .     S
O331   C365    1.390   .     S
O331   H402    0.992   .     S
H334   O403    0.992   .     S
N335   O336    1.301   .     A
N335   O337    1.302   .     A
N338   O340    1.302   .     A
N338   O129    1.301   1_565 S
N341   O342    1.301   .     A
N341   O343    1.299   .     A
N344   O345    1.301   .     A
N344   O346    1.300   .     A
O347   H348    0.990   .     S
O349   H350    0.990   .     S
O351   C355    1.292   .     A
O351   Zn363   1.983   .     S
O352   C356    1.293   .     A
O352   Zn364   1.983   .     S
O353   Zn364   1.971   .     S
O353   C355    1.286   .     A
O354   C356    1.289   .     A
O354   Zn363   1.971   .     S
C355   C375    1.435   .     S
C356   C376    1.446   .     S
O357   Zn363   1.987   .     S
O357   C361    1.275   .     A
O358   C362    1.277   .     A
O358   Zn364   1.987   .     S
O359   Zn364   1.982   .     S
O359   C361    1.283   .     A
O360   C362    1.281   .     A
O360   Zn363   1.982   .     S
C361   C365    1.410   .     S
C362   C366    1.408   .     S
Zn363  N394    2.014   .     S
Zn364  N393    2.014   .     S
C366   C225    1.340   1_655 S
C366   O263    1.390   1_655 S
C367   H369    1.084   .     S
C367   C383    1.402   .     A
C367   C371    1.379   .     A
C368   C384    1.400   .     A
C368   H370    1.084   .     S
C368   C372    1.382   .     A
C371   H373    1.082   .     S
C371   C375    1.390   .     A
C372   H374    1.083   .     S
C372   C376    1.396   .     A
C375   C377    1.400   .     A
C376   C378    1.402   .     A
C377   H379    1.084   .     S
C377   C381    1.393   .     A
C378   H380    1.083   .     S
C378   C382    1.391   .     A
C381   C383    1.410   .     A
C381   N405    1.442   .     S
C382   C384    1.409   .     A
C382   N408    1.442   .     S
C384   C173    1.445   1_565 S
C385   C399    1.411   .     A
C385   C389    1.409   .     A
C385   H387    1.083   .     S
C386   H388    1.083   .     S
C386   C400    1.411   .     A
C386   C390    1.409   .     A
C389   H391    1.081   .     S
C389   N393    1.363   .     A
C390   H392    1.081   .     S
C390   N394    1.364   .     A
N393   C395    1.378   .     A
N394   C396    1.376   .     A
C395   N411    1.431   .     S
C395   C397    1.416   .     A
C396   C398    1.415   .     A
C396   N414    1.427   .     S
C397   C399    1.416   .     A
C397   O417    1.382   .     S
C398   O419    1.382   .     S
C398   C400    1.415   .     A
C399   C820    1.517   1_554 S
C400   C819    1.517   .     S
O401   C225    1.390   1_655 S
O401   H262    0.992   1_655 S
H404   O263    0.992   1_655 S
N405   O406    1.301   .     A
N405   O407    1.302   .     A
N408   O410    1.302   .     A
N408   O199    1.301   1_565 S
N411   O412    1.301   .     A
N411   O413    1.299   .     A
N414   O415    1.301   .     A
N414   O416    1.300   .     A
O417   H418    0.990   .     S
O419   H420    0.990   .     S
O421   C425    1.292   .     A
O421   Zn433   1.983   .     S
O422   C426    1.293   .     A
O422   Zn434   1.983   .     S
O423   Zn434   1.971   .     S
O423   C425    1.286   .     A
O424   C426    1.289   .     A
O424   Zn433   1.971   .     S
C425   C445    1.435   .     S
C426   C446    1.446   .     S
O427   Zn433   1.987   .     S
O427   C431    1.275   .     A
O428   C432    1.277   .     A
O428   Zn434   1.987   .     S
O429   Zn434   1.982   .     S
O429   C431    1.283   .     A
O430   C432    1.281   .     A
O430   Zn433   1.982   .     S
C431   C435    1.410   .     S
C432   C436    1.408   .     S
Zn433  N464    2.014   .     S
Zn434  N463    2.014   .     S
C435   C576    1.340   1_455 S
C435   O611    1.390   1_455 S
C436   C505    1.340   .     S
C436   O543    1.390   .     S
C437   H439    1.084   .     S
C437   C453    1.402   .     A
C437   C441    1.379   .     A
C438   C454    1.400   .     A
C438   H440    1.084   .     S
C438   C442    1.382   .     A
C441   H443    1.082   .     S
C441   C445    1.390   .     A
C442   H444    1.083   .     S
C442   C446    1.396   .     A
C445   C447    1.400   .     A
C446   C448    1.402   .     A
C447   H449    1.084   .     S
C447   C451    1.393   .     A
C448   H450    1.083   .     S
C448   C452    1.391   .     A
C451   C453    1.410   .     A
C451   N475    1.442   .     S
C452   C454    1.409   .     A
C452   N478    1.442   .     S
C453   C664    1.445   1_545 S
C454   C663    1.445   .     S
C455   C469    1.411   .     A
C455   C459    1.409   .     A
C455   H457    1.083   .     S
C456   H458    1.083   .     S
C456   C470    1.411   .     A
C456   C460    1.409   .     A
C459   H461    1.081   .     S
C459   N463    1.363   .     A
C460   H462    1.081   .     S
C460   N464    1.364   .     A
N463   C465    1.378   .     A
N464   C466    1.376   .     A
C465   N481    1.431   .     S
C465   C467    1.416   .     A
C466   C468    1.415   .     A
C466   N484    1.427   .     S
C467   C469    1.416   .     A
C467   O487    1.382   .     S
C468   O489    1.382   .     S
C468   C470    1.415   .     A
C470   C49     1.517   1_556 S
O471   C505    1.390   .     S
O471   H542    0.992   .     S
H472   O611    0.992   1_455 S
O473   C576    1.390   1_455 S
O473   H614    0.992   1_455 S
H474   O543    0.992   .     S
N475   O476    1.301   .     A
N475   O477    1.302   .     A
N478   O480    1.302   .     A
N478   O689    1.301   .     S
O479   N688    1.301   1_545 S
N481   O482    1.301   .     A
N481   O483    1.299   .     A
N484   O485    1.301   .     A
N484   O486    1.300   .     A
O487   H488    0.990   .     S
O489   H490    0.990   .     S
O491   C495    1.292   .     A
O491   Zn503   1.983   .     S
O492   C496    1.293   .     A
O492   Zn504   1.983   .     S
O493   Zn504   1.971   .     S
O493   C495    1.286   .     A
O494   C496    1.289   .     A
O494   Zn503   1.971   .     S
C495   C515    1.435   .     S
C496   C516    1.446   .     S
O497   Zn503   1.987   .     S
O497   C501    1.275   .     A
O498   C502    1.277   .     A
O498   Zn504   1.987   .     S
O499   Zn504   1.982   .     S
O499   C501    1.283   .     A
O500   C502    1.281   .     A
O500   Zn503   1.982   .     S
C501   C505    1.410   .     S
C502   C506    1.408   .     S
Zn503  N534    2.014   .     S
Zn504  N533    2.014   .     S
C506   C575    1.340   .     S
C506   O613    1.390   .     S
C507   H509    1.084   .     S
C507   C523    1.402   .     A
C507   C511    1.379   .     A
C508   C524    1.400   .     A
C508   H510    1.084   .     S
C508   C512    1.382   .     A
C511   H513    1.082   .     S
C511   C515    1.390   .     A
C512   H514    1.083   .     S
C512   C516    1.396   .     A
C515   C517    1.400   .     A
C516   C518    1.402   .     A
C517   H519    1.084   .     S
C517   C521    1.393   .     A
C518   H520    1.083   .     S
C518   C522    1.391   .     A
C521   C523    1.410   .     A
C521   N545    1.442   .     S
C522   C524    1.409   .     A
C522   N548    1.442   .     S
C523   C734    1.445   1_545 S
C524   C733    1.445   .     S
C525   C539    1.411   .     A
C525   C529    1.409   .     A
C525   H527    1.083   .     S
C526   H528    1.083   .     S
C526   C540    1.411   .     A
C526   C530    1.409   .     A
C529   H531    1.081   .     S
C529   N533    1.363   .     A
C530   H532    1.081   .     S
C530   N534    1.364   .     A
N533   C535    1.378   .     A
N534   C536    1.376   .     A
C535   N551    1.431   .     S
C535   C537    1.416   .     A
C536   C538    1.415   .     A
C536   N554    1.427   .     S
C537   C539    1.416   .     A
C537   O557    1.382   .     S
C538   O559    1.382   .     S
C538   C540    1.415   .     A
C540   C119    1.517   1_556 S
O541   C575    1.390   .     S
O541   H612    0.992   .     S
H544   O613    0.992   .     S
N545   O546    1.301   .     A
N545   O547    1.302   .     A
N548   O550    1.302   .     A
N548   O759    1.301   .     S
O549   N758    1.301   1_545 S
N551   O552    1.301   .     A
N551   O553    1.299   .     A
N554   O555    1.301   .     A
N554   O556    1.300   .     A
O557   H558    0.990   .     S
O559   H560    0.990   .     S
O561   C565    1.292   .     A
O561   Zn573   1.983   .     S
O562   C566    1.293   .     A
O562   Zn574   1.983   .     S
O563   Zn574   1.971   .     S
O563   C565    1.286   .     A
O564   C566    1.289   .     A
O564   Zn573   1.971   .     S
C565   C585    1.435   .     S
C566   C586    1.446   .     S
O567   Zn573   1.987   .     S
O567   C571    1.275   .     A
O568   C572    1.277   .     A
O568   Zn574   1.987   .     S
O569   Zn574   1.982   .     S
O569   C571    1.283   .     A
O570   C572    1.281   .     A
O570   Zn573   1.982   .     S
C571   C575    1.410   .     S
C572   C576    1.408   .     S
Zn573  N604    2.014   .     S
Zn574  N603    2.014   .     S
C576   C435    1.340   1_655 S
C576   O473    1.390   1_655 S
C577   H579    1.084   .     S
C577   C593    1.402   .     A
C577   C581    1.379   .     A
C578   C594    1.400   .     A
C578   H580    1.084   .     S
C578   C582    1.382   .     A
C581   H583    1.082   .     S
C581   C585    1.390   .     A
C582   H584    1.083   .     S
C582   C586    1.396   .     A
C585   C587    1.400   .     A
C586   C588    1.402   .     A
C587   H589    1.084   .     S
C587   C591    1.393   .     A
C588   H590    1.083   .     S
C588   C592    1.391   .     A
C591   C593    1.410   .     A
C591   N615    1.442   .     S
C592   C594    1.409   .     A
C592   N618    1.442   .     S
C593   C804    1.445   1_545 S
C594   C803    1.445   .     S
C595   C609    1.411   .     A
C595   C599    1.409   .     A
C595   H597    1.083   .     S
C596   H598    1.083   .     S
C596   C610    1.411   .     A
C596   C600    1.409   .     A
C599   H601    1.081   .     S
C599   N603    1.363   .     A
C600   H602    1.081   .     S
C600   N604    1.364   .     A
N603   C605    1.378   .     A
N604   C606    1.376   .     A
C605   N621    1.431   .     S
C605   C607    1.416   .     A
C606   C608    1.415   .     A
C606   N624    1.427   .     S
C607   C609    1.416   .     A
C607   O627    1.382   .     S
C608   O629    1.382   .     S
C608   C610    1.415   .     A
C610   C189    1.517   1_556 S
O611   C435    1.390   1_655 S
O611   H472    0.992   1_655 S
H614   O473    0.992   1_655 S
N615   O616    1.301   .     A
N615   O617    1.302   .     A
N618   O620    1.302   .     A
N618   O829    1.301   .     S
O619   N828    1.301   1_545 S
N621   O622    1.301   .     A
N621   O623    1.299   .     A
N624   O625    1.301   .     A
N624   O626    1.300   .     A
O627   H628    0.990   .     S
O629   H630    0.990   .     S
O631   C635    1.292   .     A
O631   Zn643   1.983   .     S
O632   C636    1.293   .     A
O632   Zn644   1.983   .     S
O633   Zn644   1.971   .     S
O633   C635    1.286   .     A
O634   C636    1.289   .     A
O634   Zn643   1.971   .     S
C635   C655    1.435   .     S
C636   C656    1.446   .     S
O637   Zn643   1.987   .     S
O637   C641    1.275   .     A
O638   C642    1.277   .     A
O638   Zn644   1.987   .     S
O639   Zn644   1.982   .     S
O639   C641    1.283   .     A
O640   C642    1.281   .     A
O640   Zn643   1.982   .     S
C641   C645    1.410   .     S
C642   C646    1.408   .     S
Zn643  N674    2.014   .     S
Zn644  N673    2.014   .     S
C645   C786    1.340   1_455 S
C645   O821    1.390   1_455 S
C646   C715    1.340   .     S
C646   O753    1.390   .     S
C647   H649    1.084   .     S
C647   C663    1.402   .     A
C647   C651    1.379   .     A
C648   C664    1.400   .     A
C648   H650    1.084   .     S
C648   C652    1.382   .     A
C651   H653    1.082   .     S
C651   C655    1.390   .     A
C652   H654    1.083   .     S
C652   C656    1.396   .     A
C655   C657    1.400   .     A
C656   C658    1.402   .     A
C657   H659    1.084   .     S
C657   C661    1.393   .     A
C658   H660    1.083   .     S
C658   C662    1.391   .     A
C661   C663    1.410   .     A
C661   N685    1.442   .     S
C662   C664    1.409   .     A
C662   N688    1.442   .     S
C664   C453    1.445   1_565 S
C665   C679    1.411   .     A
C665   C669    1.409   .     A
C665   H667    1.083   .     S
C666   H668    1.083   .     S
C666   C680    1.411   .     A
C666   C670    1.409   .     A
C669   H671    1.081   .     S
C669   N673    1.363   .     A
C670   H672    1.081   .     S
C670   N674    1.364   .     A
N673   C675    1.378   .     A
N674   C676    1.376   .     A
C675   N691    1.431   .     S
C675   C677    1.416   .     A
C676   C678    1.415   .     A
C676   N694    1.427   .     S
C677   C679    1.416   .     A
C677   O697    1.382   .     S
C678   O699    1.382   .     S
C678   C680    1.415   .     A
C680   C259    1.517   1_556 S
O681   C715    1.390   .     S
O681   H752    0.992   .     S
H682   O821    0.992   1_455 S
O683   C786    1.390   1_455 S
O683   H824    0.992   1_455 S
H684   O753    0.992   .     S
N685   O686    1.301   .     A
N685   O687    1.302   .     A
N688   O690    1.302   .     A
N688   O479    1.301   1_565 S
N691   O692    1.301   .     A
N691   O693    1.299   .     A
N694   O695    1.301   .     A
N694   O696    1.300   .     A
O697   H698    0.990   .     S
O699   H700    0.990   .     S
O701   C705    1.292   .     A
O701   Zn713   1.983   .     S
O702   C706    1.293   .     A
O702   Zn714   1.983   .     S
O703   Zn714   1.971   .     S
O703   C705    1.286   .     A
O704   C706    1.289   .     A
O704   Zn713   1.971   .     S
C705   C725    1.435   .     S
C706   C726    1.446   .     S
O707   Zn713   1.987   .     S
O707   C711    1.275   .     A
O708   C712    1.277   .     A
O708   Zn714   1.987   .     S
O709   Zn714   1.982   .     S
O709   C711    1.283   .     A
O710   C712    1.281   .     A
O710   Zn713   1.982   .     S
C711   C715    1.410   .     S
C712   C716    1.408   .     S
Zn713  N744    2.014   .     S
Zn714  N743    2.014   .     S
C716   C785    1.340   .     S
C716   O823    1.390   .     S
C717   H719    1.084   .     S
C717   C733    1.402   .     A
C717   C721    1.379   .     A
C718   C734    1.400   .     A
C718   H720    1.084   .     S
C718   C722    1.382   .     A
C721   H723    1.082   .     S
C721   C725    1.390   .     A
C722   H724    1.083   .     S
C722   C726    1.396   .     A
C725   C727    1.400   .     A
C726   C728    1.402   .     A
C727   H729    1.084   .     S
C727   C731    1.393   .     A
C728   H730    1.083   .     S
C728   C732    1.391   .     A
C731   C733    1.410   .     A
C731   N755    1.442   .     S
C732   C734    1.409   .     A
C732   N758    1.442   .     S
C734   C523    1.445   1_565 S
C735   C749    1.411   .     A
C735   C739    1.409   .     A
C735   H737    1.083   .     S
C736   H738    1.083   .     S
C736   C750    1.411   .     A
C736   C740    1.409   .     A
C739   H741    1.081   .     S
C739   N743    1.363   .     A
C740   H742    1.081   .     S
C740   N744    1.364   .     A
N743   C745    1.378   .     A
N744   C746    1.376   .     A
C745   N761    1.431   .     S
C745   C747    1.416   .     A
C746   C748    1.415   .     A
C746   N764    1.427   .     S
C747   C749    1.416   .     A
C747   O767    1.382   .     S
C748   O769    1.382   .     S
C748   C750    1.415   .     A
C750   C329    1.517   1_556 S
O751   C785    1.390   .     S
O751   H822    0.992   .     S
H754   O823    0.992   .     S
N755   O756    1.301   .     A
N755   O757    1.302   .     A
N758   O760    1.302   .     A
N758   O549    1.301   1_565 S
N761   O762    1.301   .     A
N761   O763    1.299   .     A
N764   O765    1.301   .     A
N764   O766    1.300   .     A
O767   H768    0.990   .     S
O769   H770    0.990   .     S
O771   C775    1.292   .     A
O771   Zn783   1.983   .     S
O772   C776    1.293   .     A
O772   Zn784   1.983   .     S
O773   Zn784   1.971   .     S
O773   C775    1.286   .     A
O774   C776    1.289   .     A
O774   Zn783   1.971   .     S
C775   C795    1.435   .     S
C776   C796    1.446   .     S
O777   Zn783   1.987   .     S
O777   C781    1.275   .     A
O778   C782    1.277   .     A
O778   Zn784   1.987   .     S
O779   Zn784   1.982   .     S
O779   C781    1.283   .     A
O780   C782    1.281   .     A
O780   Zn783   1.982   .     S
C781   C785    1.410   .     S
C782   C786    1.408   .     S
Zn783  N814    2.014   .     S
Zn784  N813    2.014   .     S
C786   C645    1.340   1_655 S
C786   O683    1.390   1_655 S
C787   H789    1.084   .     S
C787   C803    1.402   .     A
C787   C791    1.379   .     A
C788   C804    1.400   .     A
C788   H790    1.084   .     S
C788   C792    1.382   .     A
C791   H793    1.082   .     S
C791   C795    1.390   .     A
C792   H794    1.083   .     S
C792   C796    1.396   .     A
C795   C797    1.400   .     A
C796   C798    1.402   .     A
C797   H799    1.084   .     S
C797   C801    1.393   .     A
C798   H800    1.083   .     S
C798   C802    1.391   .     A
C801   C803    1.410   .     A
C801   N825    1.442   .     S
C802   C804    1.409   .     A
C802   N828    1.442   .     S
C804   C593    1.445   1_565 S
C805   C819    1.411   .     A
C805   C809    1.409   .     A
C805   H807    1.083   .     S
C806   H808    1.083   .     S
C806   C820    1.411   .     A
C806   C810    1.409   .     A
C809   H811    1.081   .     S
C809   N813    1.363   .     A
C810   H812    1.081   .     S
C810   N814    1.364   .     A
N813   C815    1.378   .     A
N814   C816    1.376   .     A
C815   N831    1.431   .     S
C815   C817    1.416   .     A
C816   C818    1.415   .     A
C816   N834    1.427   .     S
C817   C819    1.416   .     A
C817   O837    1.382   .     S
C818   O839    1.382   .     S
C818   C820    1.415   .     A
C820   C399    1.517   1_556 S
O821   C645    1.390   1_655 S
O821   H682    0.992   1_655 S
H824   O683    0.992   1_655 S
N825   O826    1.301   .     A
N825   O827    1.302   .     A
N828   O830    1.302   .     A
N828   O619    1.301   1_565 S
N831   O832    1.301   .     A
N831   O833    1.299   .     A
N834   O835    1.301   .     A
N834   O836    1.300   .     A
O837   H838    0.990   .     S
O839   H840    0.990   .     S
