data_str_m3_o1_o17_pcu_sym.65
_audit_creation_date              2020-01-03
_audit_creation_method            'Materials Studio'
_symmetry_space_group_name_H-M    'P1'
_symmetry_Int_Tables_number       1
_symmetry_cell_setting            triclinic
loop_
_symmetry_equiv_pos_as_xyz
  x,y,z
_cell_length_a                    32.1358
_cell_length_b                    29.9695
_cell_length_c                    29.9690
_cell_angle_alpha                 90.1394
_cell_angle_beta                  93.8977
_cell_angle_gamma                 89.8546
loop_
_atom_site_label
_atom_site_type_symbol
_atom_site_fract_x
_atom_site_fract_y
_atom_site_fract_z
_atom_site_U_iso_or_equiv
_atom_site_adp_type
_atom_site_occupancy
O1     O     0.10559   0.20487   0.24999   0.00000  Uiso   1.00
O2     O     0.22774   0.12846   0.25000   0.00000  Uiso   1.00
O3     O     0.22774   0.20487   0.25000   0.00000  Uiso   1.00
O4     O     0.10559   0.12846   0.24999   0.00000  Uiso   1.00
C5     C     0.08677   0.16670   0.24989   0.00000  Uiso   1.00
C6     C     0.24656   0.16663   0.25011   0.00000  Uiso   1.00
O7     O     0.16666   0.20489   0.18392   0.00000  Uiso   1.00
O8     O     0.16667   0.12844   0.31607   0.00000  Uiso   1.00
O9     O     0.16667   0.20489   0.31607   0.00000  Uiso   1.00
O10    O     0.16666   0.12844   0.18392   0.00000  Uiso   1.00
C11    C     0.16770   0.16664   0.16367   0.00000  Uiso   1.00
C12    C     0.16563   0.16669   0.33633   0.00000  Uiso   1.00
Zn13   Zn    0.16667   0.21771   0.25000   0.00000  Uiso   1.00
Zn14   Zn    0.16667   0.11563   0.25000   0.00000  Uiso   1.00
C15    C     0.18300   0.20114   0.40814   0.00000  Uiso   1.00
C16    C     0.15032   0.13219   0.09186   0.00000  Uiso   1.00
C17    C     0.16329   0.16663   0.38410   0.00000  Uiso   1.00
C18    C     0.17004   0.16671   0.11590   0.00000  Uiso   1.00
C19    C     0.14164   0.13280   0.40547   0.00000  Uiso   1.00
C20    C     0.19167   0.20054   0.09453   0.00000  Uiso   1.00
C21    C     0.14716   0.12939   0.45251   0.00000  Uiso   1.00
C22    C     0.18615   0.20395   0.04749   0.00000  Uiso   1.00
C23    C     0.16568   0.16625   0.47663   0.00000  Uiso   1.00
C24    C     0.16763   0.16709   0.02337   0.00000  Uiso   1.00
C25    C     0.18237   0.20243   0.45398   0.00000  Uiso   1.00
C26    C     0.15094   0.13091   0.04602   0.00000  Uiso   1.00
C27    C     0.13521   0.09105   0.47656   0.00000  Uiso   1.00
C28    C     0.19809   0.24230   0.02344   0.00000  Uiso   1.00
C29    C     0.13554   0.09335   0.02297   0.00000  Uiso   1.00
C30    C     0.19777   0.23999   0.47703   0.00000  Uiso   1.00
H31    H     0.19828   0.22768   0.39093   0.00000  Uiso   1.00
H32    H     0.13504   0.10565   0.10907   0.00000  Uiso   1.00
H33    H     0.12508   0.06486   0.04151   0.00000  Uiso   1.00
H34    H     0.20823   0.26848   0.45849   0.00000  Uiso   1.00
C35    C     0.02196   0.12684   0.25820   0.00000  Uiso   1.00
C36    C     0.31137   0.20649   0.24180   0.00000  Uiso   1.00
C37    C     0.31265   0.12680   0.25819   0.00000  Uiso   1.00
C38    C     0.02068   0.20653   0.24181   0.00000  Uiso   1.00
H39    H     0.03867   0.09585   0.26486   0.00000  Uiso   1.00
H40    H     0.29467   0.23748   0.23514   0.00000  Uiso   1.00
H41    H     0.29699   0.09580   0.26480   0.00000  Uiso   1.00
H42    H     0.03634   0.23754   0.23520   0.00000  Uiso   1.00
C43    C     0.29079   0.16662   0.25002   0.00000  Uiso   1.00
C44    C     0.04255   0.16671   0.24998   0.00000  Uiso   1.00
C45    C     0.19343   0.02391   0.27905   0.00000  Uiso   1.00
C46    C     0.13990   0.30943   0.22095   0.00000  Uiso   1.00
C47    C     0.13979   0.02390   0.22106   0.00000  Uiso   1.00
C48    C     0.19354   0.30943   0.27894   0.00000  Uiso   1.00
N49    N     0.16667   0.28573   0.25000   0.00000  Uiso   1.00
N50    N     0.16667   0.04760   0.25000   0.00000  Uiso   1.00
C51    C     0.10731   0.10742   0.37898   0.00000  Uiso   1.00
H52    H     0.09455   0.12698   0.34970   0.00000  Uiso   1.00
H53    H     0.11913   0.07515   0.36665   0.00000  Uiso   1.00
H54    H     0.08015   0.10236   0.39933   0.00000  Uiso   1.00
C55    C     0.22600   0.22592   0.12101   0.00000  Uiso   1.00
H56    H     0.23879   0.20635   0.15027   0.00000  Uiso   1.00
H57    H     0.25315   0.23102   0.10064   0.00000  Uiso   1.00
H58    H     0.21417   0.25818   0.13336   0.00000  Uiso   1.00
C59    C     0.12757   0.04566   0.45538   0.00000  Uiso   1.00
H60    H     0.14960   0.03960   0.42904   0.00000  Uiso   1.00
H61    H     0.13331   0.01849   0.48027   0.00000  Uiso   1.00
H62    H     0.09476   0.04238   0.44182   0.00000  Uiso   1.00
C63    C     0.20571   0.28769   0.04461   0.00000  Uiso   1.00
H64    H     0.18369   0.29373   0.07098   0.00000  Uiso   1.00
H65    H     0.23852   0.29099   0.05815   0.00000  Uiso   1.00
H66    H     0.19993   0.31485   0.01973   0.00000  Uiso   1.00
C67    C     0.22326   0.04756   0.31236   0.00000  Uiso   1.00
H68    H     0.22283   0.08364   0.30999   0.00000  Uiso   1.00
H69    H     0.21560   0.03939   0.34696   0.00000  Uiso   1.00
H70    H     0.25585   0.03746   0.30737   0.00000  Uiso   1.00
C71    C     0.11007   0.28577   0.18764   0.00000  Uiso   1.00
H72    H     0.11050   0.24969   0.19001   0.00000  Uiso   1.00
H73    H     0.07748   0.29587   0.19263   0.00000  Uiso   1.00
H74    H     0.11773   0.29394   0.15304   0.00000  Uiso   1.00
C75    C     0.10900   0.04754   0.18877   0.00000  Uiso   1.00
H76    H     0.11081   0.08364   0.18969   0.00000  Uiso   1.00
H77    H     0.11428   0.03772   0.15389   0.00000  Uiso   1.00
H78    H     0.07664   0.03904   0.19634   0.00000  Uiso   1.00
C79    C     0.22433   0.28579   0.31123   0.00000  Uiso   1.00
H80    H     0.22252   0.24970   0.31031   0.00000  Uiso   1.00
H81    H     0.25669   0.29429   0.30366   0.00000  Uiso   1.00
H82    H     0.21906   0.29562   0.34611   0.00000  Uiso   1.00
O83    O     0.43892   0.20487   0.24999   0.00000  Uiso   1.00
O84    O     0.56108   0.12846   0.25000   0.00000  Uiso   1.00
O85    O     0.56108   0.20487   0.25000   0.00000  Uiso   1.00
O86    O     0.43892   0.12846   0.24999   0.00000  Uiso   1.00
C87    C     0.42011   0.16670   0.24989   0.00000  Uiso   1.00
C88    C     0.57989   0.16663   0.25011   0.00000  Uiso   1.00
O89    O     0.49999   0.20489   0.18392   0.00000  Uiso   1.00
O90    O     0.50001   0.12844   0.31607   0.00000  Uiso   1.00
O91    O     0.50001   0.20489   0.31607   0.00000  Uiso   1.00
O92    O     0.49999   0.12844   0.18392   0.00000  Uiso   1.00
C93    C     0.50103   0.16664   0.16367   0.00000  Uiso   1.00
C94    C     0.49897   0.16669   0.33633   0.00000  Uiso   1.00
Zn95   Zn    0.50000   0.21771   0.25000   0.00000  Uiso   1.00
Zn96   Zn    0.50000   0.11563   0.25000   0.00000  Uiso   1.00
C97    C     0.51634   0.20114   0.40814   0.00000  Uiso   1.00
C98    C     0.48365   0.13219   0.09186   0.00000  Uiso   1.00
C99    C     0.49662   0.16663   0.38410   0.00000  Uiso   1.00
C100   C     0.50337   0.16671   0.11590   0.00000  Uiso   1.00
C101   C     0.47497   0.13280   0.40547   0.00000  Uiso   1.00
C102   C     0.52501   0.20054   0.09453   0.00000  Uiso   1.00
C103   C     0.48049   0.12939   0.45251   0.00000  Uiso   1.00
C104   C     0.51948   0.20395   0.04749   0.00000  Uiso   1.00
C105   C     0.49901   0.16625   0.47663   0.00000  Uiso   1.00
C106   C     0.50096   0.16709   0.02337   0.00000  Uiso   1.00
C107   C     0.51570   0.20243   0.45398   0.00000  Uiso   1.00
C108   C     0.48428   0.13091   0.04602   0.00000  Uiso   1.00
C109   C     0.46854   0.09105   0.47656   0.00000  Uiso   1.00
C110   C     0.53142   0.24230   0.02344   0.00000  Uiso   1.00
C111   C     0.46887   0.09335   0.02297   0.00000  Uiso   1.00
C112   C     0.53110   0.23999   0.47703   0.00000  Uiso   1.00
H113   H     0.53162   0.22768   0.39093   0.00000  Uiso   1.00
H114   H     0.46838   0.10565   0.10907   0.00000  Uiso   1.00
H115   H     0.45841   0.06486   0.04151   0.00000  Uiso   1.00
H116   H     0.54156   0.26848   0.45849   0.00000  Uiso   1.00
C117   C     0.35529   0.12684   0.25820   0.00000  Uiso   1.00
C118   C     0.64471   0.20649   0.24180   0.00000  Uiso   1.00
C119   C     0.64599   0.12680   0.25819   0.00000  Uiso   1.00
C120   C     0.35401   0.20653   0.24181   0.00000  Uiso   1.00
H121   H     0.37200   0.09585   0.26486   0.00000  Uiso   1.00
H122   H     0.62800   0.23748   0.23514   0.00000  Uiso   1.00
H123   H     0.63032   0.09580   0.26480   0.00000  Uiso   1.00
H124   H     0.36968   0.23754   0.23520   0.00000  Uiso   1.00
C125   C     0.62412   0.16662   0.25002   0.00000  Uiso   1.00
C126   C     0.37588   0.16671   0.24998   0.00000  Uiso   1.00
C127   C     0.52677   0.02391   0.27905   0.00000  Uiso   1.00
C128   C     0.47323   0.30943   0.22095   0.00000  Uiso   1.00
C129   C     0.47313   0.02390   0.22106   0.00000  Uiso   1.00
C130   C     0.52687   0.30943   0.27894   0.00000  Uiso   1.00
N131   N     0.50000   0.28573   0.25000   0.00000  Uiso   1.00
N132   N     0.50000   0.04760   0.25000   0.00000  Uiso   1.00
C133   C     0.44065   0.10742   0.37898   0.00000  Uiso   1.00
H134   H     0.42788   0.12698   0.34970   0.00000  Uiso   1.00
H135   H     0.45247   0.07515   0.36665   0.00000  Uiso   1.00
H136   H     0.41348   0.10236   0.39933   0.00000  Uiso   1.00
C137   C     0.55934   0.22592   0.12101   0.00000  Uiso   1.00
H138   H     0.57212   0.20635   0.15027   0.00000  Uiso   1.00
H139   H     0.58648   0.23102   0.10064   0.00000  Uiso   1.00
H140   H     0.54751   0.25818   0.13336   0.00000  Uiso   1.00
C141   C     0.46090   0.04566   0.45538   0.00000  Uiso   1.00
H142   H     0.48293   0.03960   0.42904   0.00000  Uiso   1.00
H143   H     0.46664   0.01849   0.48027   0.00000  Uiso   1.00
H144   H     0.42809   0.04238   0.44182   0.00000  Uiso   1.00
C145   C     0.53904   0.28769   0.04461   0.00000  Uiso   1.00
H146   H     0.51703   0.29373   0.07098   0.00000  Uiso   1.00
H147   H     0.57186   0.29099   0.05815   0.00000  Uiso   1.00
H148   H     0.53326   0.31485   0.01973   0.00000  Uiso   1.00
C149   C     0.55660   0.04756   0.31236   0.00000  Uiso   1.00
H150   H     0.55616   0.08364   0.30999   0.00000  Uiso   1.00
H151   H     0.54894   0.03939   0.34696   0.00000  Uiso   1.00
H152   H     0.58919   0.03746   0.30737   0.00000  Uiso   1.00
C153   C     0.44340   0.28577   0.18764   0.00000  Uiso   1.00
H154   H     0.44384   0.24969   0.19001   0.00000  Uiso   1.00
H155   H     0.41082   0.29587   0.19263   0.00000  Uiso   1.00
H156   H     0.45106   0.29394   0.15304   0.00000  Uiso   1.00
C157   C     0.44233   0.04754   0.18877   0.00000  Uiso   1.00
H158   H     0.44415   0.08364   0.18969   0.00000  Uiso   1.00
H159   H     0.44761   0.03772   0.15389   0.00000  Uiso   1.00
H160   H     0.40998   0.03904   0.19634   0.00000  Uiso   1.00
C161   C     0.55767   0.28579   0.31123   0.00000  Uiso   1.00
H162   H     0.55585   0.24970   0.31031   0.00000  Uiso   1.00
H163   H     0.59002   0.29429   0.30366   0.00000  Uiso   1.00
H164   H     0.55239   0.29562   0.34611   0.00000  Uiso   1.00
O165   O     0.77226   0.20487   0.24999   0.00000  Uiso   1.00
O166   O     0.89441   0.12846   0.25000   0.00000  Uiso   1.00
O167   O     0.89441   0.20487   0.25000   0.00000  Uiso   1.00
O168   O     0.77226   0.12846   0.24999   0.00000  Uiso   1.00
C169   C     0.75344   0.16670   0.24989   0.00000  Uiso   1.00
C170   C     0.91323   0.16663   0.25011   0.00000  Uiso   1.00
O171   O     0.83333   0.20489   0.18392   0.00000  Uiso   1.00
O172   O     0.83334   0.12844   0.31607   0.00000  Uiso   1.00
O173   O     0.83334   0.20489   0.31607   0.00000  Uiso   1.00
O174   O     0.83333   0.12844   0.18392   0.00000  Uiso   1.00
C175   C     0.83436   0.16664   0.16367   0.00000  Uiso   1.00
C176   C     0.83230   0.16669   0.33633   0.00000  Uiso   1.00
Zn177  Zn    0.83333   0.21771   0.25000   0.00000  Uiso   1.00
Zn178  Zn    0.83333   0.11563   0.25000   0.00000  Uiso   1.00
C179   C     0.84967   0.20114   0.40814   0.00000  Uiso   1.00
C180   C     0.81698   0.13219   0.09186   0.00000  Uiso   1.00
C181   C     0.82996   0.16663   0.38410   0.00000  Uiso   1.00
C182   C     0.83670   0.16671   0.11590   0.00000  Uiso   1.00
C183   C     0.80831   0.13280   0.40547   0.00000  Uiso   1.00
C184   C     0.85834   0.20054   0.09453   0.00000  Uiso   1.00
C185   C     0.81383   0.12939   0.45251   0.00000  Uiso   1.00
C186   C     0.85281   0.20395   0.04749   0.00000  Uiso   1.00
C187   C     0.83234   0.16625   0.47663   0.00000  Uiso   1.00
C188   C     0.83430   0.16709   0.02337   0.00000  Uiso   1.00
C189   C     0.84904   0.20243   0.45398   0.00000  Uiso   1.00
C190   C     0.81761   0.13091   0.04602   0.00000  Uiso   1.00
C191   C     0.80187   0.09105   0.47656   0.00000  Uiso   1.00
C192   C     0.86476   0.24230   0.02344   0.00000  Uiso   1.00
C193   C     0.80220   0.09335   0.02297   0.00000  Uiso   1.00
C194   C     0.86444   0.23999   0.47703   0.00000  Uiso   1.00
H195   H     0.86495   0.22768   0.39093   0.00000  Uiso   1.00
H196   H     0.80171   0.10565   0.10907   0.00000  Uiso   1.00
H197   H     0.79174   0.06486   0.04151   0.00000  Uiso   1.00
H198   H     0.87489   0.26848   0.45849   0.00000  Uiso   1.00
C199   C     0.68863   0.12684   0.25820   0.00000  Uiso   1.00
C200   C     0.97804   0.20649   0.24180   0.00000  Uiso   1.00
C201   C     0.97932   0.12680   0.25819   0.00000  Uiso   1.00
C202   C     0.68735   0.20653   0.24181   0.00000  Uiso   1.00
H203   H     0.70533   0.09585   0.26486   0.00000  Uiso   1.00
H204   H     0.96133   0.23748   0.23514   0.00000  Uiso   1.00
H205   H     0.96366   0.09580   0.26480   0.00000  Uiso   1.00
H206   H     0.70301   0.23754   0.23520   0.00000  Uiso   1.00
C207   C     0.95746   0.16662   0.25002   0.00000  Uiso   1.00
C208   C     0.70921   0.16671   0.24998   0.00000  Uiso   1.00
C209   C     0.86010   0.02391   0.27905   0.00000  Uiso   1.00
C210   C     0.80657   0.30943   0.22095   0.00000  Uiso   1.00
C211   C     0.80646   0.02390   0.22106   0.00000  Uiso   1.00
C212   C     0.86021   0.30943   0.27894   0.00000  Uiso   1.00
N213   N     0.83333   0.28573   0.25000   0.00000  Uiso   1.00
N214   N     0.83333   0.04760   0.25000   0.00000  Uiso   1.00
C215   C     0.77398   0.10742   0.37898   0.00000  Uiso   1.00
H216   H     0.76122   0.12698   0.34970   0.00000  Uiso   1.00
H217   H     0.78580   0.07515   0.36665   0.00000  Uiso   1.00
H218   H     0.74682   0.10236   0.39933   0.00000  Uiso   1.00
C219   C     0.89267   0.22592   0.12101   0.00000  Uiso   1.00
H220   H     0.90545   0.20635   0.15027   0.00000  Uiso   1.00
H221   H     0.91982   0.23102   0.10064   0.00000  Uiso   1.00
H222   H     0.88084   0.25818   0.13336   0.00000  Uiso   1.00
C223   C     0.79423   0.04566   0.45538   0.00000  Uiso   1.00
H224   H     0.81627   0.03960   0.42904   0.00000  Uiso   1.00
H225   H     0.79997   0.01849   0.48027   0.00000  Uiso   1.00
H226   H     0.76142   0.04238   0.44182   0.00000  Uiso   1.00
C227   C     0.87237   0.28769   0.04461   0.00000  Uiso   1.00
H228   H     0.85036   0.29373   0.07098   0.00000  Uiso   1.00
H229   H     0.90519   0.29099   0.05815   0.00000  Uiso   1.00
H230   H     0.86659   0.31485   0.01973   0.00000  Uiso   1.00
C231   C     0.88993   0.04756   0.31236   0.00000  Uiso   1.00
H232   H     0.88950   0.08364   0.30999   0.00000  Uiso   1.00
H233   H     0.88227   0.03939   0.34696   0.00000  Uiso   1.00
H234   H     0.92252   0.03746   0.30737   0.00000  Uiso   1.00
C235   C     0.77674   0.28577   0.18764   0.00000  Uiso   1.00
H236   H     0.77717   0.24969   0.19001   0.00000  Uiso   1.00
H237   H     0.74415   0.29587   0.19263   0.00000  Uiso   1.00
H238   H     0.78440   0.29394   0.15304   0.00000  Uiso   1.00
C239   C     0.77567   0.04754   0.18877   0.00000  Uiso   1.00
H240   H     0.77748   0.08364   0.18969   0.00000  Uiso   1.00
H241   H     0.78094   0.03772   0.15389   0.00000  Uiso   1.00
H242   H     0.74331   0.03904   0.19634   0.00000  Uiso   1.00
C243   C     0.89100   0.28579   0.31123   0.00000  Uiso   1.00
H244   H     0.88919   0.24970   0.31031   0.00000  Uiso   1.00
H245   H     0.92336   0.29429   0.30366   0.00000  Uiso   1.00
H246   H     0.88572   0.29562   0.34611   0.00000  Uiso   1.00
O247   O     0.10559   0.53821   0.24999   0.00000  Uiso   1.00
O248   O     0.22774   0.46179   0.25000   0.00000  Uiso   1.00
O249   O     0.22774   0.53821   0.25000   0.00000  Uiso   1.00
O250   O     0.10559   0.46179   0.24999   0.00000  Uiso   1.00
C251   C     0.08677   0.50003   0.24989   0.00000  Uiso   1.00
C252   C     0.24656   0.49997   0.25011   0.00000  Uiso   1.00
O253   O     0.16666   0.53823   0.18392   0.00000  Uiso   1.00
O254   O     0.16667   0.46177   0.31607   0.00000  Uiso   1.00
O255   O     0.16667   0.53823   0.31607   0.00000  Uiso   1.00
O256   O     0.16666   0.46177   0.18392   0.00000  Uiso   1.00
C257   C     0.16770   0.49998   0.16367   0.00000  Uiso   1.00
C258   C     0.16563   0.50002   0.33633   0.00000  Uiso   1.00
Zn259  Zn    0.16667   0.55104   0.25000   0.00000  Uiso   1.00
Zn260  Zn    0.16667   0.44896   0.25000   0.00000  Uiso   1.00
C261   C     0.18300   0.53448   0.40814   0.00000  Uiso   1.00
C262   C     0.15032   0.46552   0.09186   0.00000  Uiso   1.00
C263   C     0.16329   0.49996   0.38410   0.00000  Uiso   1.00
C264   C     0.17004   0.50004   0.11590   0.00000  Uiso   1.00
C265   C     0.14164   0.46613   0.40547   0.00000  Uiso   1.00
C266   C     0.19167   0.53387   0.09453   0.00000  Uiso   1.00
C267   C     0.14716   0.46272   0.45251   0.00000  Uiso   1.00
C268   C     0.18615   0.53729   0.04749   0.00000  Uiso   1.00
C269   C     0.16568   0.49958   0.47663   0.00000  Uiso   1.00
C270   C     0.16763   0.50042   0.02337   0.00000  Uiso   1.00
C271   C     0.18237   0.53577   0.45398   0.00000  Uiso   1.00
C272   C     0.15094   0.46424   0.04602   0.00000  Uiso   1.00
C273   C     0.13521   0.42438   0.47656   0.00000  Uiso   1.00
C274   C     0.19809   0.57563   0.02344   0.00000  Uiso   1.00
C275   C     0.13554   0.42668   0.02297   0.00000  Uiso   1.00
C276   C     0.19777   0.57333   0.47703   0.00000  Uiso   1.00
H277   H     0.19828   0.56102   0.39093   0.00000  Uiso   1.00
H278   H     0.13504   0.43898   0.10907   0.00000  Uiso   1.00
H279   H     0.12508   0.39820   0.04151   0.00000  Uiso   1.00
H280   H     0.20823   0.60181   0.45849   0.00000  Uiso   1.00
C281   C     0.02196   0.46018   0.25820   0.00000  Uiso   1.00
C282   C     0.31137   0.53982   0.24180   0.00000  Uiso   1.00
C283   C     0.31265   0.46014   0.25819   0.00000  Uiso   1.00
C284   C     0.02068   0.53986   0.24181   0.00000  Uiso   1.00
H285   H     0.03867   0.42919   0.26486   0.00000  Uiso   1.00
H286   H     0.29467   0.57081   0.23514   0.00000  Uiso   1.00
H287   H     0.29699   0.42913   0.26480   0.00000  Uiso   1.00
H288   H     0.03634   0.57087   0.23520   0.00000  Uiso   1.00
C289   C     0.29079   0.49996   0.25002   0.00000  Uiso   1.00
C290   C     0.04255   0.50004   0.24998   0.00000  Uiso   1.00
C291   C     0.19343   0.35724   0.27905   0.00000  Uiso   1.00
C292   C     0.13990   0.64276   0.22095   0.00000  Uiso   1.00
C293   C     0.13979   0.35723   0.22106   0.00000  Uiso   1.00
C294   C     0.19354   0.64277   0.27894   0.00000  Uiso   1.00
N295   N     0.16667   0.61907   0.25000   0.00000  Uiso   1.00
N296   N     0.16667   0.38093   0.25000   0.00000  Uiso   1.00
C297   C     0.10731   0.44076   0.37898   0.00000  Uiso   1.00
H298   H     0.09455   0.46031   0.34970   0.00000  Uiso   1.00
H299   H     0.11913   0.40849   0.36665   0.00000  Uiso   1.00
H300   H     0.08015   0.43569   0.39933   0.00000  Uiso   1.00
C301   C     0.22600   0.55925   0.12101   0.00000  Uiso   1.00
H302   H     0.23879   0.53969   0.15027   0.00000  Uiso   1.00
H303   H     0.25315   0.56435   0.10064   0.00000  Uiso   1.00
H304   H     0.21417   0.59151   0.13336   0.00000  Uiso   1.00
C305   C     0.12757   0.37899   0.45538   0.00000  Uiso   1.00
H306   H     0.14960   0.37293   0.42904   0.00000  Uiso   1.00
H307   H     0.13331   0.35183   0.48027   0.00000  Uiso   1.00
H308   H     0.09476   0.37571   0.44182   0.00000  Uiso   1.00
C309   C     0.20571   0.62102   0.04461   0.00000  Uiso   1.00
H310   H     0.18369   0.62706   0.07098   0.00000  Uiso   1.00
H311   H     0.23852   0.62433   0.05815   0.00000  Uiso   1.00
H312   H     0.19993   0.64818   0.01973   0.00000  Uiso   1.00
C313   C     0.22326   0.38090   0.31236   0.00000  Uiso   1.00
H314   H     0.22283   0.41698   0.30999   0.00000  Uiso   1.00
H315   H     0.21560   0.37273   0.34696   0.00000  Uiso   1.00
H316   H     0.25585   0.37080   0.30737   0.00000  Uiso   1.00
C317   C     0.11007   0.61910   0.18764   0.00000  Uiso   1.00
H318   H     0.11050   0.58302   0.19001   0.00000  Uiso   1.00
H319   H     0.07748   0.62920   0.19263   0.00000  Uiso   1.00
H320   H     0.11773   0.62727   0.15304   0.00000  Uiso   1.00
C321   C     0.10900   0.38087   0.18877   0.00000  Uiso   1.00
H322   H     0.11081   0.41697   0.18969   0.00000  Uiso   1.00
H323   H     0.11428   0.37105   0.15389   0.00000  Uiso   1.00
H324   H     0.07664   0.37237   0.19634   0.00000  Uiso   1.00
C325   C     0.22433   0.61913   0.31123   0.00000  Uiso   1.00
H326   H     0.22252   0.58303   0.31031   0.00000  Uiso   1.00
H327   H     0.25669   0.62763   0.30366   0.00000  Uiso   1.00
H328   H     0.21906   0.62895   0.34611   0.00000  Uiso   1.00
O329   O     0.43892   0.53821   0.24999   0.00000  Uiso   1.00
O330   O     0.56108   0.46179   0.25000   0.00000  Uiso   1.00
O331   O     0.56108   0.53821   0.25000   0.00000  Uiso   1.00
O332   O     0.43892   0.46179   0.24999   0.00000  Uiso   1.00
C333   C     0.42011   0.50003   0.24989   0.00000  Uiso   1.00
C334   C     0.57989   0.49997   0.25011   0.00000  Uiso   1.00
O335   O     0.49999   0.53823   0.18392   0.00000  Uiso   1.00
O336   O     0.50001   0.46177   0.31607   0.00000  Uiso   1.00
O337   O     0.50001   0.53823   0.31607   0.00000  Uiso   1.00
O338   O     0.49999   0.46177   0.18392   0.00000  Uiso   1.00
C339   C     0.50103   0.49998   0.16367   0.00000  Uiso   1.00
C340   C     0.49897   0.50002   0.33633   0.00000  Uiso   1.00
Zn341  Zn    0.50000   0.55104   0.25000   0.00000  Uiso   1.00
Zn342  Zn    0.50000   0.44896   0.25000   0.00000  Uiso   1.00
C343   C     0.51634   0.53448   0.40814   0.00000  Uiso   1.00
C344   C     0.48365   0.46552   0.09186   0.00000  Uiso   1.00
C345   C     0.49662   0.49996   0.38410   0.00000  Uiso   1.00
C346   C     0.50337   0.50004   0.11590   0.00000  Uiso   1.00
C347   C     0.47497   0.46613   0.40547   0.00000  Uiso   1.00
C348   C     0.52501   0.53387   0.09453   0.00000  Uiso   1.00
C349   C     0.48049   0.46272   0.45251   0.00000  Uiso   1.00
C350   C     0.51948   0.53729   0.04749   0.00000  Uiso   1.00
C351   C     0.49901   0.49958   0.47663   0.00000  Uiso   1.00
C352   C     0.50096   0.50042   0.02337   0.00000  Uiso   1.00
C353   C     0.51570   0.53577   0.45398   0.00000  Uiso   1.00
C354   C     0.48428   0.46424   0.04602   0.00000  Uiso   1.00
C355   C     0.46854   0.42438   0.47656   0.00000  Uiso   1.00
C356   C     0.53142   0.57563   0.02344   0.00000  Uiso   1.00
C357   C     0.46887   0.42668   0.02297   0.00000  Uiso   1.00
C358   C     0.53110   0.57333   0.47703   0.00000  Uiso   1.00
H359   H     0.53162   0.56102   0.39093   0.00000  Uiso   1.00
H360   H     0.46838   0.43898   0.10907   0.00000  Uiso   1.00
H361   H     0.45841   0.39820   0.04151   0.00000  Uiso   1.00
H362   H     0.54156   0.60181   0.45849   0.00000  Uiso   1.00
C363   C     0.35529   0.46018   0.25820   0.00000  Uiso   1.00
C364   C     0.64471   0.53982   0.24180   0.00000  Uiso   1.00
C365   C     0.64599   0.46014   0.25819   0.00000  Uiso   1.00
C366   C     0.35401   0.53986   0.24181   0.00000  Uiso   1.00
H367   H     0.37200   0.42919   0.26486   0.00000  Uiso   1.00
H368   H     0.62800   0.57081   0.23514   0.00000  Uiso   1.00
H369   H     0.63032   0.42913   0.26480   0.00000  Uiso   1.00
H370   H     0.36968   0.57087   0.23520   0.00000  Uiso   1.00
C371   C     0.62412   0.49996   0.25002   0.00000  Uiso   1.00
C372   C     0.37588   0.50004   0.24998   0.00000  Uiso   1.00
C373   C     0.52677   0.35724   0.27905   0.00000  Uiso   1.00
C374   C     0.47323   0.64276   0.22095   0.00000  Uiso   1.00
C375   C     0.47313   0.35723   0.22106   0.00000  Uiso   1.00
C376   C     0.52687   0.64277   0.27894   0.00000  Uiso   1.00
N377   N     0.50000   0.61907   0.25000   0.00000  Uiso   1.00
N378   N     0.50000   0.38093   0.25000   0.00000  Uiso   1.00
C379   C     0.44065   0.44076   0.37898   0.00000  Uiso   1.00
H380   H     0.42788   0.46031   0.34970   0.00000  Uiso   1.00
H381   H     0.45247   0.40849   0.36665   0.00000  Uiso   1.00
H382   H     0.41348   0.43569   0.39933   0.00000  Uiso   1.00
C383   C     0.55934   0.55925   0.12101   0.00000  Uiso   1.00
H384   H     0.57212   0.53969   0.15027   0.00000  Uiso   1.00
H385   H     0.58648   0.56435   0.10064   0.00000  Uiso   1.00
H386   H     0.54751   0.59151   0.13336   0.00000  Uiso   1.00
C387   C     0.46090   0.37899   0.45538   0.00000  Uiso   1.00
H388   H     0.48293   0.37293   0.42904   0.00000  Uiso   1.00
H389   H     0.46664   0.35183   0.48027   0.00000  Uiso   1.00
H390   H     0.42809   0.37571   0.44182   0.00000  Uiso   1.00
C391   C     0.53904   0.62102   0.04461   0.00000  Uiso   1.00
H392   H     0.51703   0.62706   0.07098   0.00000  Uiso   1.00
H393   H     0.57186   0.62433   0.05815   0.00000  Uiso   1.00
H394   H     0.53326   0.64818   0.01973   0.00000  Uiso   1.00
C395   C     0.55660   0.38090   0.31236   0.00000  Uiso   1.00
H396   H     0.55616   0.41698   0.30999   0.00000  Uiso   1.00
H397   H     0.54894   0.37273   0.34696   0.00000  Uiso   1.00
H398   H     0.58919   0.37080   0.30737   0.00000  Uiso   1.00
C399   C     0.44340   0.61910   0.18764   0.00000  Uiso   1.00
H400   H     0.44384   0.58302   0.19001   0.00000  Uiso   1.00
H401   H     0.41082   0.62920   0.19263   0.00000  Uiso   1.00
H402   H     0.45106   0.62727   0.15304   0.00000  Uiso   1.00
C403   C     0.44233   0.38087   0.18877   0.00000  Uiso   1.00
H404   H     0.44415   0.41697   0.18969   0.00000  Uiso   1.00
H405   H     0.44761   0.37105   0.15389   0.00000  Uiso   1.00
H406   H     0.40998   0.37237   0.19634   0.00000  Uiso   1.00
C407   C     0.55767   0.61913   0.31123   0.00000  Uiso   1.00
H408   H     0.55585   0.58303   0.31031   0.00000  Uiso   1.00
H409   H     0.59002   0.62763   0.30366   0.00000  Uiso   1.00
H410   H     0.55239   0.62895   0.34611   0.00000  Uiso   1.00
O411   O     0.77226   0.53821   0.24999   0.00000  Uiso   1.00
O412   O     0.89441   0.46179   0.25000   0.00000  Uiso   1.00
O413   O     0.89441   0.53821   0.25000   0.00000  Uiso   1.00
O414   O     0.77226   0.46179   0.24999   0.00000  Uiso   1.00
C415   C     0.75344   0.50003   0.24989   0.00000  Uiso   1.00
C416   C     0.91323   0.49997   0.25011   0.00000  Uiso   1.00
O417   O     0.83333   0.53823   0.18392   0.00000  Uiso   1.00
O418   O     0.83334   0.46177   0.31607   0.00000  Uiso   1.00
O419   O     0.83334   0.53823   0.31607   0.00000  Uiso   1.00
O420   O     0.83333   0.46177   0.18392   0.00000  Uiso   1.00
C421   C     0.83436   0.49998   0.16367   0.00000  Uiso   1.00
C422   C     0.83230   0.50002   0.33633   0.00000  Uiso   1.00
Zn423  Zn    0.83333   0.55104   0.25000   0.00000  Uiso   1.00
Zn424  Zn    0.83333   0.44896   0.25000   0.00000  Uiso   1.00
C425   C     0.84967   0.53448   0.40814   0.00000  Uiso   1.00
C426   C     0.81698   0.46552   0.09186   0.00000  Uiso   1.00
C427   C     0.82996   0.49996   0.38410   0.00000  Uiso   1.00
C428   C     0.83670   0.50004   0.11590   0.00000  Uiso   1.00
C429   C     0.80831   0.46613   0.40547   0.00000  Uiso   1.00
C430   C     0.85834   0.53387   0.09453   0.00000  Uiso   1.00
C431   C     0.81383   0.46272   0.45251   0.00000  Uiso   1.00
C432   C     0.85281   0.53729   0.04749   0.00000  Uiso   1.00
C433   C     0.83234   0.49958   0.47663   0.00000  Uiso   1.00
C434   C     0.83430   0.50042   0.02337   0.00000  Uiso   1.00
C435   C     0.84904   0.53577   0.45398   0.00000  Uiso   1.00
C436   C     0.81761   0.46424   0.04602   0.00000  Uiso   1.00
C437   C     0.80187   0.42438   0.47656   0.00000  Uiso   1.00
C438   C     0.86476   0.57563   0.02344   0.00000  Uiso   1.00
C439   C     0.80220   0.42668   0.02297   0.00000  Uiso   1.00
C440   C     0.86444   0.57333   0.47703   0.00000  Uiso   1.00
H441   H     0.86495   0.56102   0.39093   0.00000  Uiso   1.00
H442   H     0.80171   0.43898   0.10907   0.00000  Uiso   1.00
H443   H     0.79174   0.39820   0.04151   0.00000  Uiso   1.00
H444   H     0.87489   0.60181   0.45849   0.00000  Uiso   1.00
C445   C     0.68863   0.46018   0.25820   0.00000  Uiso   1.00
C446   C     0.97804   0.53982   0.24180   0.00000  Uiso   1.00
C447   C     0.97932   0.46014   0.25819   0.00000  Uiso   1.00
C448   C     0.68735   0.53986   0.24181   0.00000  Uiso   1.00
H449   H     0.70533   0.42919   0.26486   0.00000  Uiso   1.00
H450   H     0.96133   0.57081   0.23514   0.00000  Uiso   1.00
H451   H     0.96366   0.42913   0.26480   0.00000  Uiso   1.00
H452   H     0.70301   0.57087   0.23520   0.00000  Uiso   1.00
C453   C     0.95746   0.49996   0.25002   0.00000  Uiso   1.00
C454   C     0.70921   0.50004   0.24998   0.00000  Uiso   1.00
C455   C     0.86010   0.35724   0.27905   0.00000  Uiso   1.00
C456   C     0.80657   0.64276   0.22095   0.00000  Uiso   1.00
C457   C     0.80646   0.35723   0.22106   0.00000  Uiso   1.00
C458   C     0.86021   0.64277   0.27894   0.00000  Uiso   1.00
N459   N     0.83333   0.61907   0.25000   0.00000  Uiso   1.00
N460   N     0.83333   0.38093   0.25000   0.00000  Uiso   1.00
C461   C     0.77398   0.44076   0.37898   0.00000  Uiso   1.00
H462   H     0.76122   0.46031   0.34970   0.00000  Uiso   1.00
H463   H     0.78580   0.40849   0.36665   0.00000  Uiso   1.00
H464   H     0.74682   0.43569   0.39933   0.00000  Uiso   1.00
C465   C     0.89267   0.55925   0.12101   0.00000  Uiso   1.00
H466   H     0.90545   0.53969   0.15027   0.00000  Uiso   1.00
H467   H     0.91982   0.56435   0.10064   0.00000  Uiso   1.00
H468   H     0.88084   0.59151   0.13336   0.00000  Uiso   1.00
C469   C     0.79423   0.37899   0.45538   0.00000  Uiso   1.00
H470   H     0.81627   0.37293   0.42904   0.00000  Uiso   1.00
H471   H     0.79997   0.35183   0.48027   0.00000  Uiso   1.00
H472   H     0.76142   0.37571   0.44182   0.00000  Uiso   1.00
C473   C     0.87237   0.62102   0.04461   0.00000  Uiso   1.00
H474   H     0.85036   0.62706   0.07098   0.00000  Uiso   1.00
H475   H     0.90519   0.62433   0.05815   0.00000  Uiso   1.00
H476   H     0.86659   0.64818   0.01973   0.00000  Uiso   1.00
C477   C     0.88993   0.38090   0.31236   0.00000  Uiso   1.00
H478   H     0.88950   0.41698   0.30999   0.00000  Uiso   1.00
H479   H     0.88227   0.37273   0.34696   0.00000  Uiso   1.00
H480   H     0.92252   0.37080   0.30737   0.00000  Uiso   1.00
C481   C     0.77674   0.61910   0.18764   0.00000  Uiso   1.00
H482   H     0.77717   0.58302   0.19001   0.00000  Uiso   1.00
H483   H     0.74415   0.62920   0.19263   0.00000  Uiso   1.00
H484   H     0.78440   0.62727   0.15304   0.00000  Uiso   1.00
C485   C     0.77567   0.38087   0.18877   0.00000  Uiso   1.00
H486   H     0.77748   0.41697   0.18969   0.00000  Uiso   1.00
H487   H     0.78094   0.37105   0.15389   0.00000  Uiso   1.00
H488   H     0.74331   0.37237   0.19634   0.00000  Uiso   1.00
C489   C     0.89100   0.61913   0.31123   0.00000  Uiso   1.00
H490   H     0.88919   0.58303   0.31031   0.00000  Uiso   1.00
H491   H     0.92336   0.62763   0.30366   0.00000  Uiso   1.00
H492   H     0.88572   0.62895   0.34611   0.00000  Uiso   1.00
O493   O     0.10559   0.87154   0.24999   0.00000  Uiso   1.00
O494   O     0.22774   0.79513   0.25000   0.00000  Uiso   1.00
O495   O     0.22774   0.87154   0.25000   0.00000  Uiso   1.00
O496   O     0.10559   0.79513   0.24999   0.00000  Uiso   1.00
C497   C     0.08677   0.83337   0.24989   0.00000  Uiso   1.00
C498   C     0.24656   0.83330   0.25011   0.00000  Uiso   1.00
O499   O     0.16666   0.87156   0.18392   0.00000  Uiso   1.00
O500   O     0.16667   0.79511   0.31607   0.00000  Uiso   1.00
O501   O     0.16667   0.87156   0.31607   0.00000  Uiso   1.00
O502   O     0.16666   0.79511   0.18392   0.00000  Uiso   1.00
C503   C     0.16770   0.83331   0.16367   0.00000  Uiso   1.00
C504   C     0.16563   0.83336   0.33633   0.00000  Uiso   1.00
Zn505  Zn    0.16667   0.88437   0.25000   0.00000  Uiso   1.00
Zn506  Zn    0.16667   0.78229   0.25000   0.00000  Uiso   1.00
C507   C     0.18300   0.86781   0.40814   0.00000  Uiso   1.00
C508   C     0.15032   0.79886   0.09186   0.00000  Uiso   1.00
C509   C     0.16329   0.83329   0.38410   0.00000  Uiso   1.00
C510   C     0.17004   0.83338   0.11590   0.00000  Uiso   1.00
C511   C     0.14164   0.79946   0.40547   0.00000  Uiso   1.00
C512   C     0.19167   0.86721   0.09453   0.00000  Uiso   1.00
C513   C     0.14716   0.79605   0.45251   0.00000  Uiso   1.00
C514   C     0.18615   0.87062   0.04749   0.00000  Uiso   1.00
C515   C     0.16568   0.83292   0.47663   0.00000  Uiso   1.00
C516   C     0.16763   0.83376   0.02337   0.00000  Uiso   1.00
C517   C     0.18237   0.86910   0.45398   0.00000  Uiso   1.00
C518   C     0.15094   0.79757   0.04602   0.00000  Uiso   1.00
C519   C     0.13521   0.75771   0.47656   0.00000  Uiso   1.00
C520   C     0.19809   0.90896   0.02344   0.00000  Uiso   1.00
C521   C     0.13554   0.76001   0.02297   0.00000  Uiso   1.00
C522   C     0.19777   0.90666   0.47703   0.00000  Uiso   1.00
H523   H     0.19828   0.89435   0.39093   0.00000  Uiso   1.00
H524   H     0.13504   0.77232   0.10907   0.00000  Uiso   1.00
H525   H     0.12508   0.73153   0.04151   0.00000  Uiso   1.00
H526   H     0.20823   0.93515   0.45849   0.00000  Uiso   1.00
C527   C     0.02196   0.79351   0.25820   0.00000  Uiso   1.00
C528   C     0.31137   0.87316   0.24180   0.00000  Uiso   1.00
C529   C     0.31265   0.79347   0.25819   0.00000  Uiso   1.00
C530   C     0.02068   0.87320   0.24181   0.00000  Uiso   1.00
H531   H     0.03867   0.76252   0.26486   0.00000  Uiso   1.00
H532   H     0.29467   0.90415   0.23514   0.00000  Uiso   1.00
H533   H     0.29699   0.76246   0.26480   0.00000  Uiso   1.00
H534   H     0.03634   0.90420   0.23520   0.00000  Uiso   1.00
C535   C     0.29079   0.83329   0.25002   0.00000  Uiso   1.00
C536   C     0.04255   0.83338   0.24998   0.00000  Uiso   1.00
C537   C     0.19343   0.69057   0.27905   0.00000  Uiso   1.00
C538   C     0.13990   0.97609   0.22095   0.00000  Uiso   1.00
C539   C     0.13979   0.69057   0.22106   0.00000  Uiso   1.00
C540   C     0.19354   0.97610   0.27894   0.00000  Uiso   1.00
N541   N     0.16667   0.95240   0.25000   0.00000  Uiso   1.00
N542   N     0.16667   0.71427   0.25000   0.00000  Uiso   1.00
C543   C     0.10731   0.77409   0.37898   0.00000  Uiso   1.00
H544   H     0.09455   0.79365   0.34970   0.00000  Uiso   1.00
H545   H     0.11913   0.74182   0.36665   0.00000  Uiso   1.00
H546   H     0.08015   0.76902   0.39933   0.00000  Uiso   1.00
C547   C     0.22600   0.89259   0.12101   0.00000  Uiso   1.00
H548   H     0.23879   0.87302   0.15027   0.00000  Uiso   1.00
H549   H     0.25315   0.89768   0.10064   0.00000  Uiso   1.00
H550   H     0.21417   0.92485   0.13336   0.00000  Uiso   1.00
C551   C     0.12757   0.71233   0.45538   0.00000  Uiso   1.00
H552   H     0.14960   0.70626   0.42904   0.00000  Uiso   1.00
H553   H     0.13331   0.68516   0.48027   0.00000  Uiso   1.00
H554   H     0.09476   0.70905   0.44182   0.00000  Uiso   1.00
C555   C     0.20571   0.95435   0.04461   0.00000  Uiso   1.00
H556   H     0.18369   0.96039   0.07098   0.00000  Uiso   1.00
H557   H     0.23852   0.95766   0.05815   0.00000  Uiso   1.00
H558   H     0.19993   0.98152   0.01973   0.00000  Uiso   1.00
C559   C     0.22326   0.71423   0.31236   0.00000  Uiso   1.00
H560   H     0.22283   0.75031   0.30999   0.00000  Uiso   1.00
H561   H     0.21560   0.70606   0.34696   0.00000  Uiso   1.00
H562   H     0.25585   0.70413   0.30737   0.00000  Uiso   1.00
C563   C     0.11007   0.95244   0.18764   0.00000  Uiso   1.00
H564   H     0.11050   0.91636   0.19001   0.00000  Uiso   1.00
H565   H     0.07748   0.96254   0.19263   0.00000  Uiso   1.00
H566   H     0.11773   0.96060   0.15304   0.00000  Uiso   1.00
C567   C     0.10900   0.71421   0.18877   0.00000  Uiso   1.00
H568   H     0.11081   0.75030   0.18969   0.00000  Uiso   1.00
H569   H     0.11428   0.70438   0.15389   0.00000  Uiso   1.00
H570   H     0.07664   0.70571   0.19634   0.00000  Uiso   1.00
C571   C     0.22433   0.95246   0.31123   0.00000  Uiso   1.00
H572   H     0.22252   0.91636   0.31031   0.00000  Uiso   1.00
H573   H     0.25669   0.96096   0.30366   0.00000  Uiso   1.00
H574   H     0.21906   0.96228   0.34611   0.00000  Uiso   1.00
O575   O     0.43892   0.87154   0.24999   0.00000  Uiso   1.00
O576   O     0.56108   0.79513   0.25000   0.00000  Uiso   1.00
O577   O     0.56108   0.87154   0.25000   0.00000  Uiso   1.00
O578   O     0.43892   0.79513   0.24999   0.00000  Uiso   1.00
C579   C     0.42011   0.83337   0.24989   0.00000  Uiso   1.00
C580   C     0.57989   0.83330   0.25011   0.00000  Uiso   1.00
O581   O     0.49999   0.87156   0.18392   0.00000  Uiso   1.00
O582   O     0.50001   0.79511   0.31607   0.00000  Uiso   1.00
O583   O     0.50001   0.87156   0.31607   0.00000  Uiso   1.00
O584   O     0.49999   0.79511   0.18392   0.00000  Uiso   1.00
C585   C     0.50103   0.83331   0.16367   0.00000  Uiso   1.00
C586   C     0.49897   0.83336   0.33633   0.00000  Uiso   1.00
Zn587  Zn    0.50000   0.88437   0.25000   0.00000  Uiso   1.00
Zn588  Zn    0.50000   0.78229   0.25000   0.00000  Uiso   1.00
C589   C     0.51634   0.86781   0.40814   0.00000  Uiso   1.00
C590   C     0.48365   0.79886   0.09186   0.00000  Uiso   1.00
C591   C     0.49662   0.83329   0.38410   0.00000  Uiso   1.00
C592   C     0.50337   0.83338   0.11590   0.00000  Uiso   1.00
C593   C     0.47497   0.79946   0.40547   0.00000  Uiso   1.00
C594   C     0.52501   0.86721   0.09453   0.00000  Uiso   1.00
C595   C     0.48049   0.79605   0.45251   0.00000  Uiso   1.00
C596   C     0.51948   0.87062   0.04749   0.00000  Uiso   1.00
C597   C     0.49901   0.83292   0.47663   0.00000  Uiso   1.00
C598   C     0.50096   0.83376   0.02337   0.00000  Uiso   1.00
C599   C     0.51570   0.86910   0.45398   0.00000  Uiso   1.00
C600   C     0.48428   0.79757   0.04602   0.00000  Uiso   1.00
C601   C     0.46854   0.75771   0.47656   0.00000  Uiso   1.00
C602   C     0.53142   0.90896   0.02344   0.00000  Uiso   1.00
C603   C     0.46887   0.76001   0.02297   0.00000  Uiso   1.00
C604   C     0.53110   0.90666   0.47703   0.00000  Uiso   1.00
H605   H     0.53162   0.89435   0.39093   0.00000  Uiso   1.00
H606   H     0.46838   0.77232   0.10907   0.00000  Uiso   1.00
H607   H     0.45841   0.73153   0.04151   0.00000  Uiso   1.00
H608   H     0.54156   0.93515   0.45849   0.00000  Uiso   1.00
C609   C     0.35529   0.79351   0.25820   0.00000  Uiso   1.00
C610   C     0.64471   0.87316   0.24180   0.00000  Uiso   1.00
C611   C     0.64599   0.79347   0.25819   0.00000  Uiso   1.00
C612   C     0.35401   0.87320   0.24181   0.00000  Uiso   1.00
H613   H     0.37200   0.76252   0.26486   0.00000  Uiso   1.00
H614   H     0.62800   0.90415   0.23514   0.00000  Uiso   1.00
H615   H     0.63032   0.76246   0.26480   0.00000  Uiso   1.00
H616   H     0.36968   0.90420   0.23520   0.00000  Uiso   1.00
C617   C     0.62412   0.83329   0.25002   0.00000  Uiso   1.00
C618   C     0.37588   0.83338   0.24998   0.00000  Uiso   1.00
C619   C     0.52677   0.69057   0.27905   0.00000  Uiso   1.00
C620   C     0.47323   0.97609   0.22095   0.00000  Uiso   1.00
C621   C     0.47313   0.69057   0.22106   0.00000  Uiso   1.00
C622   C     0.52687   0.97610   0.27894   0.00000  Uiso   1.00
N623   N     0.50000   0.95240   0.25000   0.00000  Uiso   1.00
N624   N     0.50000   0.71427   0.25000   0.00000  Uiso   1.00
C625   C     0.44065   0.77409   0.37898   0.00000  Uiso   1.00
H626   H     0.42788   0.79365   0.34970   0.00000  Uiso   1.00
H627   H     0.45247   0.74182   0.36665   0.00000  Uiso   1.00
H628   H     0.41348   0.76902   0.39933   0.00000  Uiso   1.00
C629   C     0.55934   0.89259   0.12101   0.00000  Uiso   1.00
H630   H     0.57212   0.87302   0.15027   0.00000  Uiso   1.00
H631   H     0.58648   0.89768   0.10064   0.00000  Uiso   1.00
H632   H     0.54751   0.92485   0.13336   0.00000  Uiso   1.00
C633   C     0.46090   0.71233   0.45538   0.00000  Uiso   1.00
H634   H     0.48293   0.70626   0.42904   0.00000  Uiso   1.00
H635   H     0.46664   0.68516   0.48027   0.00000  Uiso   1.00
H636   H     0.42809   0.70905   0.44182   0.00000  Uiso   1.00
C637   C     0.53904   0.95435   0.04461   0.00000  Uiso   1.00
H638   H     0.51703   0.96039   0.07098   0.00000  Uiso   1.00
H639   H     0.57186   0.95766   0.05815   0.00000  Uiso   1.00
H640   H     0.53326   0.98152   0.01973   0.00000  Uiso   1.00
C641   C     0.55660   0.71423   0.31236   0.00000  Uiso   1.00
H642   H     0.55616   0.75031   0.30999   0.00000  Uiso   1.00
H643   H     0.54894   0.70606   0.34696   0.00000  Uiso   1.00
H644   H     0.58919   0.70413   0.30737   0.00000  Uiso   1.00
C645   C     0.44340   0.95244   0.18764   0.00000  Uiso   1.00
H646   H     0.44384   0.91636   0.19001   0.00000  Uiso   1.00
H647   H     0.41082   0.96254   0.19263   0.00000  Uiso   1.00
H648   H     0.45106   0.96060   0.15304   0.00000  Uiso   1.00
C649   C     0.44233   0.71421   0.18877   0.00000  Uiso   1.00
H650   H     0.44415   0.75030   0.18969   0.00000  Uiso   1.00
H651   H     0.44761   0.70438   0.15389   0.00000  Uiso   1.00
H652   H     0.40998   0.70571   0.19634   0.00000  Uiso   1.00
C653   C     0.55767   0.95246   0.31123   0.00000  Uiso   1.00
H654   H     0.55585   0.91636   0.31031   0.00000  Uiso   1.00
H655   H     0.59002   0.96096   0.30366   0.00000  Uiso   1.00
H656   H     0.55239   0.96228   0.34611   0.00000  Uiso   1.00
O657   O     0.77226   0.87154   0.24999   0.00000  Uiso   1.00
O658   O     0.89441   0.79513   0.25000   0.00000  Uiso   1.00
O659   O     0.89441   0.87154   0.25000   0.00000  Uiso   1.00
O660   O     0.77226   0.79513   0.24999   0.00000  Uiso   1.00
C661   C     0.75344   0.83337   0.24989   0.00000  Uiso   1.00
C662   C     0.91323   0.83330   0.25011   0.00000  Uiso   1.00
O663   O     0.83333   0.87156   0.18392   0.00000  Uiso   1.00
O664   O     0.83334   0.79511   0.31607   0.00000  Uiso   1.00
O665   O     0.83334   0.87156   0.31607   0.00000  Uiso   1.00
O666   O     0.83333   0.79511   0.18392   0.00000  Uiso   1.00
C667   C     0.83436   0.83331   0.16367   0.00000  Uiso   1.00
C668   C     0.83230   0.83336   0.33633   0.00000  Uiso   1.00
Zn669  Zn    0.83333   0.88437   0.25000   0.00000  Uiso   1.00
Zn670  Zn    0.83333   0.78229   0.25000   0.00000  Uiso   1.00
C671   C     0.84967   0.86781   0.40814   0.00000  Uiso   1.00
C672   C     0.81698   0.79886   0.09186   0.00000  Uiso   1.00
C673   C     0.82996   0.83329   0.38410   0.00000  Uiso   1.00
C674   C     0.83670   0.83338   0.11590   0.00000  Uiso   1.00
C675   C     0.80831   0.79946   0.40547   0.00000  Uiso   1.00
C676   C     0.85834   0.86721   0.09453   0.00000  Uiso   1.00
C677   C     0.81383   0.79605   0.45251   0.00000  Uiso   1.00
C678   C     0.85281   0.87062   0.04749   0.00000  Uiso   1.00
C679   C     0.83234   0.83292   0.47663   0.00000  Uiso   1.00
C680   C     0.83430   0.83376   0.02337   0.00000  Uiso   1.00
C681   C     0.84904   0.86910   0.45398   0.00000  Uiso   1.00
C682   C     0.81761   0.79757   0.04602   0.00000  Uiso   1.00
C683   C     0.80187   0.75771   0.47656   0.00000  Uiso   1.00
C684   C     0.86476   0.90896   0.02344   0.00000  Uiso   1.00
C685   C     0.80220   0.76001   0.02297   0.00000  Uiso   1.00
C686   C     0.86444   0.90666   0.47703   0.00000  Uiso   1.00
H687   H     0.86495   0.89435   0.39093   0.00000  Uiso   1.00
H688   H     0.80171   0.77232   0.10907   0.00000  Uiso   1.00
H689   H     0.79174   0.73153   0.04151   0.00000  Uiso   1.00
H690   H     0.87489   0.93515   0.45849   0.00000  Uiso   1.00
C691   C     0.68863   0.79351   0.25820   0.00000  Uiso   1.00
C692   C     0.97804   0.87316   0.24180   0.00000  Uiso   1.00
C693   C     0.97932   0.79347   0.25819   0.00000  Uiso   1.00
C694   C     0.68735   0.87320   0.24181   0.00000  Uiso   1.00
H695   H     0.70533   0.76252   0.26486   0.00000  Uiso   1.00
H696   H     0.96133   0.90415   0.23514   0.00000  Uiso   1.00
H697   H     0.96366   0.76246   0.26480   0.00000  Uiso   1.00
H698   H     0.70301   0.90420   0.23520   0.00000  Uiso   1.00
C699   C     0.95746   0.83329   0.25002   0.00000  Uiso   1.00
C700   C     0.70921   0.83338   0.24998   0.00000  Uiso   1.00
C701   C     0.86010   0.69057   0.27905   0.00000  Uiso   1.00
C702   C     0.80657   0.97609   0.22095   0.00000  Uiso   1.00
C703   C     0.80646   0.69057   0.22106   0.00000  Uiso   1.00
C704   C     0.86021   0.97610   0.27894   0.00000  Uiso   1.00
N705   N     0.83333   0.95240   0.25000   0.00000  Uiso   1.00
N706   N     0.83333   0.71427   0.25000   0.00000  Uiso   1.00
C707   C     0.77398   0.77409   0.37898   0.00000  Uiso   1.00
H708   H     0.76122   0.79365   0.34970   0.00000  Uiso   1.00
H709   H     0.78580   0.74182   0.36665   0.00000  Uiso   1.00
H710   H     0.74682   0.76902   0.39933   0.00000  Uiso   1.00
C711   C     0.89267   0.89259   0.12101   0.00000  Uiso   1.00
H712   H     0.90545   0.87302   0.15027   0.00000  Uiso   1.00
H713   H     0.91982   0.89768   0.10064   0.00000  Uiso   1.00
H714   H     0.88084   0.92485   0.13336   0.00000  Uiso   1.00
C715   C     0.79423   0.71233   0.45538   0.00000  Uiso   1.00
H716   H     0.81627   0.70626   0.42904   0.00000  Uiso   1.00
H717   H     0.79997   0.68516   0.48027   0.00000  Uiso   1.00
H718   H     0.76142   0.70905   0.44182   0.00000  Uiso   1.00
C719   C     0.87237   0.95435   0.04461   0.00000  Uiso   1.00
H720   H     0.85036   0.96039   0.07098   0.00000  Uiso   1.00
H721   H     0.90519   0.95766   0.05815   0.00000  Uiso   1.00
H722   H     0.86659   0.98152   0.01973   0.00000  Uiso   1.00
C723   C     0.88993   0.71423   0.31236   0.00000  Uiso   1.00
H724   H     0.88950   0.75031   0.30999   0.00000  Uiso   1.00
H725   H     0.88227   0.70606   0.34696   0.00000  Uiso   1.00
H726   H     0.92252   0.70413   0.30737   0.00000  Uiso   1.00
C727   C     0.77674   0.95244   0.18764   0.00000  Uiso   1.00
H728   H     0.77717   0.91636   0.19001   0.00000  Uiso   1.00
H729   H     0.74415   0.96254   0.19263   0.00000  Uiso   1.00
H730   H     0.78440   0.96060   0.15304   0.00000  Uiso   1.00
C731   C     0.77567   0.71421   0.18877   0.00000  Uiso   1.00
H732   H     0.77748   0.75030   0.18969   0.00000  Uiso   1.00
H733   H     0.78094   0.70438   0.15389   0.00000  Uiso   1.00
H734   H     0.74331   0.70571   0.19634   0.00000  Uiso   1.00
C735   C     0.89100   0.95246   0.31123   0.00000  Uiso   1.00
H736   H     0.88919   0.91636   0.31031   0.00000  Uiso   1.00
H737   H     0.92336   0.96096   0.30366   0.00000  Uiso   1.00
H738   H     0.88572   0.96228   0.34611   0.00000  Uiso   1.00
O739   O     0.10559   0.20487   0.74999   0.00000  Uiso   1.00
O740   O     0.22774   0.12846   0.75000   0.00000  Uiso   1.00
O741   O     0.22774   0.20487   0.75000   0.00000  Uiso   1.00
O742   O     0.10559   0.12846   0.74999   0.00000  Uiso   1.00
C743   C     0.08677   0.16670   0.74989   0.00000  Uiso   1.00
C744   C     0.24656   0.16663   0.75011   0.00000  Uiso   1.00
O745   O     0.16666   0.20489   0.68392   0.00000  Uiso   1.00
O746   O     0.16667   0.12844   0.81607   0.00000  Uiso   1.00
O747   O     0.16667   0.20489   0.81607   0.00000  Uiso   1.00
O748   O     0.16666   0.12844   0.68392   0.00000  Uiso   1.00
C749   C     0.16770   0.16664   0.66367   0.00000  Uiso   1.00
C750   C     0.16563   0.16669   0.83633   0.00000  Uiso   1.00
Zn751  Zn    0.16667   0.21771   0.75000   0.00000  Uiso   1.00
Zn752  Zn    0.16667   0.11563   0.75000   0.00000  Uiso   1.00
C753   C     0.18300   0.20114   0.90814   0.00000  Uiso   1.00
C754   C     0.15032   0.13219   0.59186   0.00000  Uiso   1.00
C755   C     0.16329   0.16663   0.88410   0.00000  Uiso   1.00
C756   C     0.17004   0.16671   0.61590   0.00000  Uiso   1.00
C757   C     0.14164   0.13280   0.90547   0.00000  Uiso   1.00
C758   C     0.19167   0.20054   0.59453   0.00000  Uiso   1.00
C759   C     0.14716   0.12939   0.95251   0.00000  Uiso   1.00
C760   C     0.18615   0.20395   0.54749   0.00000  Uiso   1.00
C761   C     0.16568   0.16625   0.97663   0.00000  Uiso   1.00
C762   C     0.16763   0.16709   0.52337   0.00000  Uiso   1.00
C763   C     0.18237   0.20243   0.95398   0.00000  Uiso   1.00
C764   C     0.15094   0.13091   0.54602   0.00000  Uiso   1.00
C765   C     0.13521   0.09105   0.97656   0.00000  Uiso   1.00
C766   C     0.19809   0.24230   0.52344   0.00000  Uiso   1.00
C767   C     0.13554   0.09335   0.52297   0.00000  Uiso   1.00
C768   C     0.19777   0.23999   0.97703   0.00000  Uiso   1.00
H769   H     0.19828   0.22768   0.89093   0.00000  Uiso   1.00
H770   H     0.13504   0.10565   0.60907   0.00000  Uiso   1.00
H771   H     0.12508   0.06486   0.54151   0.00000  Uiso   1.00
H772   H     0.20823   0.26848   0.95849   0.00000  Uiso   1.00
C773   C     0.02196   0.12684   0.75820   0.00000  Uiso   1.00
C774   C     0.31137   0.20649   0.74180   0.00000  Uiso   1.00
C775   C     0.31265   0.12680   0.75819   0.00000  Uiso   1.00
C776   C     0.02068   0.20653   0.74181   0.00000  Uiso   1.00
H777   H     0.03867   0.09585   0.76486   0.00000  Uiso   1.00
H778   H     0.29467   0.23748   0.73514   0.00000  Uiso   1.00
H779   H     0.29699   0.09580   0.76480   0.00000  Uiso   1.00
H780   H     0.03634   0.23754   0.73520   0.00000  Uiso   1.00
C781   C     0.29079   0.16662   0.75002   0.00000  Uiso   1.00
C782   C     0.04255   0.16671   0.74998   0.00000  Uiso   1.00
C783   C     0.19343   0.02391   0.77905   0.00000  Uiso   1.00
C784   C     0.13990   0.30943   0.72095   0.00000  Uiso   1.00
C785   C     0.13979   0.02390   0.72106   0.00000  Uiso   1.00
C786   C     0.19354   0.30943   0.77894   0.00000  Uiso   1.00
N787   N     0.16667   0.28573   0.75000   0.00000  Uiso   1.00
N788   N     0.16667   0.04760   0.75000   0.00000  Uiso   1.00
C789   C     0.10731   0.10742   0.87898   0.00000  Uiso   1.00
H790   H     0.09455   0.12698   0.84970   0.00000  Uiso   1.00
H791   H     0.11913   0.07515   0.86665   0.00000  Uiso   1.00
H792   H     0.08015   0.10236   0.89933   0.00000  Uiso   1.00
C793   C     0.22600   0.22592   0.62101   0.00000  Uiso   1.00
H794   H     0.23879   0.20635   0.65027   0.00000  Uiso   1.00
H795   H     0.25315   0.23102   0.60064   0.00000  Uiso   1.00
H796   H     0.21417   0.25818   0.63336   0.00000  Uiso   1.00
C797   C     0.12757   0.04566   0.95538   0.00000  Uiso   1.00
H798   H     0.14960   0.03960   0.92904   0.00000  Uiso   1.00
H799   H     0.13331   0.01849   0.98027   0.00000  Uiso   1.00
H800   H     0.09476   0.04238   0.94182   0.00000  Uiso   1.00
C801   C     0.20571   0.28769   0.54461   0.00000  Uiso   1.00
H802   H     0.18369   0.29373   0.57098   0.00000  Uiso   1.00
H803   H     0.23852   0.29099   0.55815   0.00000  Uiso   1.00
H804   H     0.19993   0.31485   0.51973   0.00000  Uiso   1.00
C805   C     0.22326   0.04756   0.81236   0.00000  Uiso   1.00
H806   H     0.22283   0.08364   0.80999   0.00000  Uiso   1.00
H807   H     0.21560   0.03939   0.84696   0.00000  Uiso   1.00
H808   H     0.25585   0.03746   0.80737   0.00000  Uiso   1.00
C809   C     0.11007   0.28577   0.68764   0.00000  Uiso   1.00
H810   H     0.11050   0.24969   0.69001   0.00000  Uiso   1.00
H811   H     0.07748   0.29587   0.69263   0.00000  Uiso   1.00
H812   H     0.11773   0.29394   0.65304   0.00000  Uiso   1.00
C813   C     0.10900   0.04754   0.68877   0.00000  Uiso   1.00
H814   H     0.11081   0.08364   0.68969   0.00000  Uiso   1.00
H815   H     0.11428   0.03772   0.65389   0.00000  Uiso   1.00
H816   H     0.07664   0.03904   0.69634   0.00000  Uiso   1.00
C817   C     0.22433   0.28579   0.81123   0.00000  Uiso   1.00
H818   H     0.22252   0.24970   0.81031   0.00000  Uiso   1.00
H819   H     0.25669   0.29429   0.80366   0.00000  Uiso   1.00
H820   H     0.21906   0.29562   0.84611   0.00000  Uiso   1.00
O821   O     0.43892   0.20487   0.74999   0.00000  Uiso   1.00
O822   O     0.56108   0.12846   0.75000   0.00000  Uiso   1.00
O823   O     0.56108   0.20487   0.75000   0.00000  Uiso   1.00
O824   O     0.43892   0.12846   0.74999   0.00000  Uiso   1.00
C825   C     0.42011   0.16670   0.74989   0.00000  Uiso   1.00
C826   C     0.57989   0.16663   0.75011   0.00000  Uiso   1.00
O827   O     0.49999   0.20489   0.68392   0.00000  Uiso   1.00
O828   O     0.50001   0.12844   0.81607   0.00000  Uiso   1.00
O829   O     0.50001   0.20489   0.81607   0.00000  Uiso   1.00
O830   O     0.49999   0.12844   0.68392   0.00000  Uiso   1.00
C831   C     0.50103   0.16664   0.66367   0.00000  Uiso   1.00
C832   C     0.49897   0.16669   0.83633   0.00000  Uiso   1.00
Zn833  Zn    0.50000   0.21771   0.75000   0.00000  Uiso   1.00
Zn834  Zn    0.50000   0.11563   0.75000   0.00000  Uiso   1.00
C835   C     0.51634   0.20114   0.90814   0.00000  Uiso   1.00
C836   C     0.48365   0.13219   0.59186   0.00000  Uiso   1.00
C837   C     0.49662   0.16663   0.88410   0.00000  Uiso   1.00
C838   C     0.50337   0.16671   0.61590   0.00000  Uiso   1.00
C839   C     0.47497   0.13280   0.90547   0.00000  Uiso   1.00
C840   C     0.52501   0.20054   0.59453   0.00000  Uiso   1.00
C841   C     0.48049   0.12939   0.95251   0.00000  Uiso   1.00
C842   C     0.51948   0.20395   0.54749   0.00000  Uiso   1.00
C843   C     0.49901   0.16625   0.97663   0.00000  Uiso   1.00
C844   C     0.50096   0.16709   0.52337   0.00000  Uiso   1.00
C845   C     0.51570   0.20243   0.95398   0.00000  Uiso   1.00
C846   C     0.48428   0.13091   0.54602   0.00000  Uiso   1.00
C847   C     0.46854   0.09105   0.97656   0.00000  Uiso   1.00
C848   C     0.53142   0.24230   0.52344   0.00000  Uiso   1.00
C849   C     0.46887   0.09335   0.52297   0.00000  Uiso   1.00
C850   C     0.53110   0.23999   0.97703   0.00000  Uiso   1.00
H851   H     0.53162   0.22768   0.89093   0.00000  Uiso   1.00
H852   H     0.46838   0.10565   0.60907   0.00000  Uiso   1.00
H853   H     0.45841   0.06486   0.54151   0.00000  Uiso   1.00
H854   H     0.54156   0.26848   0.95849   0.00000  Uiso   1.00
C855   C     0.35529   0.12684   0.75820   0.00000  Uiso   1.00
C856   C     0.64471   0.20649   0.74180   0.00000  Uiso   1.00
C857   C     0.64599   0.12680   0.75819   0.00000  Uiso   1.00
C858   C     0.35401   0.20653   0.74181   0.00000  Uiso   1.00
H859   H     0.37200   0.09585   0.76486   0.00000  Uiso   1.00
H860   H     0.62800   0.23748   0.73514   0.00000  Uiso   1.00
H861   H     0.63032   0.09580   0.76480   0.00000  Uiso   1.00
H862   H     0.36968   0.23754   0.73520   0.00000  Uiso   1.00
C863   C     0.62412   0.16662   0.75002   0.00000  Uiso   1.00
C864   C     0.37588   0.16671   0.74998   0.00000  Uiso   1.00
C865   C     0.52677   0.02391   0.77905   0.00000  Uiso   1.00
C866   C     0.47323   0.30943   0.72095   0.00000  Uiso   1.00
C867   C     0.47313   0.02390   0.72106   0.00000  Uiso   1.00
C868   C     0.52687   0.30943   0.77894   0.00000  Uiso   1.00
N869   N     0.50000   0.28573   0.75000   0.00000  Uiso   1.00
N870   N     0.50000   0.04760   0.75000   0.00000  Uiso   1.00
C871   C     0.44065   0.10742   0.87898   0.00000  Uiso   1.00
H872   H     0.42788   0.12698   0.84970   0.00000  Uiso   1.00
H873   H     0.45247   0.07515   0.86665   0.00000  Uiso   1.00
H874   H     0.41348   0.10236   0.89933   0.00000  Uiso   1.00
C875   C     0.55934   0.22592   0.62101   0.00000  Uiso   1.00
H876   H     0.57212   0.20635   0.65027   0.00000  Uiso   1.00
H877   H     0.58648   0.23102   0.60064   0.00000  Uiso   1.00
H878   H     0.54751   0.25818   0.63336   0.00000  Uiso   1.00
C879   C     0.46090   0.04566   0.95538   0.00000  Uiso   1.00
H880   H     0.48293   0.03960   0.92904   0.00000  Uiso   1.00
H881   H     0.46664   0.01849   0.98027   0.00000  Uiso   1.00
H882   H     0.42809   0.04238   0.94182   0.00000  Uiso   1.00
C883   C     0.53904   0.28769   0.54461   0.00000  Uiso   1.00
H884   H     0.51703   0.29373   0.57098   0.00000  Uiso   1.00
H885   H     0.57186   0.29099   0.55815   0.00000  Uiso   1.00
H886   H     0.53326   0.31485   0.51973   0.00000  Uiso   1.00
C887   C     0.55660   0.04756   0.81236   0.00000  Uiso   1.00
H888   H     0.55616   0.08364   0.80999   0.00000  Uiso   1.00
H889   H     0.54894   0.03939   0.84696   0.00000  Uiso   1.00
H890   H     0.58919   0.03746   0.80737   0.00000  Uiso   1.00
C891   C     0.44340   0.28577   0.68764   0.00000  Uiso   1.00
H892   H     0.44384   0.24969   0.69001   0.00000  Uiso   1.00
H893   H     0.41082   0.29587   0.69263   0.00000  Uiso   1.00
H894   H     0.45106   0.29394   0.65304   0.00000  Uiso   1.00
C895   C     0.44233   0.04754   0.68877   0.00000  Uiso   1.00
H896   H     0.44415   0.08364   0.68969   0.00000  Uiso   1.00
H897   H     0.44761   0.03772   0.65389   0.00000  Uiso   1.00
H898   H     0.40998   0.03904   0.69634   0.00000  Uiso   1.00
C899   C     0.55767   0.28579   0.81123   0.00000  Uiso   1.00
H900   H     0.55585   0.24970   0.81031   0.00000  Uiso   1.00
H901   H     0.59002   0.29429   0.80366   0.00000  Uiso   1.00
H902   H     0.55239   0.29562   0.84611   0.00000  Uiso   1.00
O903   O     0.77226   0.20487   0.74999   0.00000  Uiso   1.00
O904   O     0.89441   0.12846   0.75000   0.00000  Uiso   1.00
O905   O     0.89441   0.20487   0.75000   0.00000  Uiso   1.00
O906   O     0.77226   0.12846   0.74999   0.00000  Uiso   1.00
C907   C     0.75344   0.16670   0.74989   0.00000  Uiso   1.00
C908   C     0.91323   0.16663   0.75011   0.00000  Uiso   1.00
O909   O     0.83333   0.20489   0.68392   0.00000  Uiso   1.00
O910   O     0.83334   0.12844   0.81607   0.00000  Uiso   1.00
O911   O     0.83334   0.20489   0.81607   0.00000  Uiso   1.00
O912   O     0.83333   0.12844   0.68392   0.00000  Uiso   1.00
C913   C     0.83436   0.16664   0.66367   0.00000  Uiso   1.00
C914   C     0.83230   0.16669   0.83633   0.00000  Uiso   1.00
Zn915  Zn    0.83333   0.21771   0.75000   0.00000  Uiso   1.00
Zn916  Zn    0.83333   0.11563   0.75000   0.00000  Uiso   1.00
C917   C     0.84967   0.20114   0.90814   0.00000  Uiso   1.00
C918   C     0.81698   0.13219   0.59186   0.00000  Uiso   1.00
C919   C     0.82996   0.16663   0.88410   0.00000  Uiso   1.00
C920   C     0.83670   0.16671   0.61590   0.00000  Uiso   1.00
C921   C     0.80831   0.13280   0.90547   0.00000  Uiso   1.00
C922   C     0.85834   0.20054   0.59453   0.00000  Uiso   1.00
C923   C     0.81383   0.12939   0.95251   0.00000  Uiso   1.00
C924   C     0.85281   0.20395   0.54749   0.00000  Uiso   1.00
C925   C     0.83234   0.16625   0.97663   0.00000  Uiso   1.00
C926   C     0.83430   0.16709   0.52337   0.00000  Uiso   1.00
C927   C     0.84904   0.20243   0.95398   0.00000  Uiso   1.00
C928   C     0.81761   0.13091   0.54602   0.00000  Uiso   1.00
C929   C     0.80187   0.09105   0.97656   0.00000  Uiso   1.00
C930   C     0.86476   0.24230   0.52344   0.00000  Uiso   1.00
C931   C     0.80220   0.09335   0.52297   0.00000  Uiso   1.00
C932   C     0.86444   0.23999   0.97703   0.00000  Uiso   1.00
H933   H     0.86495   0.22768   0.89093   0.00000  Uiso   1.00
H934   H     0.80171   0.10565   0.60907   0.00000  Uiso   1.00
H935   H     0.79174   0.06486   0.54151   0.00000  Uiso   1.00
H936   H     0.87489   0.26848   0.95849   0.00000  Uiso   1.00
C937   C     0.68863   0.12684   0.75820   0.00000  Uiso   1.00
C938   C     0.97804   0.20649   0.74180   0.00000  Uiso   1.00
C939   C     0.97932   0.12680   0.75819   0.00000  Uiso   1.00
C940   C     0.68735   0.20653   0.74181   0.00000  Uiso   1.00
H941   H     0.70533   0.09585   0.76486   0.00000  Uiso   1.00
H942   H     0.96133   0.23748   0.73514   0.00000  Uiso   1.00
H943   H     0.96366   0.09580   0.76480   0.00000  Uiso   1.00
H944   H     0.70301   0.23754   0.73520   0.00000  Uiso   1.00
C945   C     0.95746   0.16662   0.75002   0.00000  Uiso   1.00
C946   C     0.70921   0.16671   0.74998   0.00000  Uiso   1.00
C947   C     0.86010   0.02391   0.77905   0.00000  Uiso   1.00
C948   C     0.80657   0.30943   0.72095   0.00000  Uiso   1.00
C949   C     0.80646   0.02390   0.72106   0.00000  Uiso   1.00
C950   C     0.86021   0.30943   0.77894   0.00000  Uiso   1.00
N951   N     0.83333   0.28573   0.75000   0.00000  Uiso   1.00
N952   N     0.83333   0.04760   0.75000   0.00000  Uiso   1.00
C953   C     0.77398   0.10742   0.87898   0.00000  Uiso   1.00
H954   H     0.76122   0.12698   0.84970   0.00000  Uiso   1.00
H955   H     0.78580   0.07515   0.86665   0.00000  Uiso   1.00
H956   H     0.74682   0.10236   0.89933   0.00000  Uiso   1.00
C957   C     0.89267   0.22592   0.62101   0.00000  Uiso   1.00
H958   H     0.90545   0.20635   0.65027   0.00000  Uiso   1.00
H959   H     0.91982   0.23102   0.60064   0.00000  Uiso   1.00
H960   H     0.88084   0.25818   0.63336   0.00000  Uiso   1.00
C961   C     0.79423   0.04566   0.95538   0.00000  Uiso   1.00
H962   H     0.81627   0.03960   0.92904   0.00000  Uiso   1.00
H963   H     0.79997   0.01849   0.98027   0.00000  Uiso   1.00
H964   H     0.76142   0.04238   0.94182   0.00000  Uiso   1.00
C965   C     0.87237   0.28769   0.54461   0.00000  Uiso   1.00
H966   H     0.85036   0.29373   0.57098   0.00000  Uiso   1.00
H967   H     0.90519   0.29099   0.55815   0.00000  Uiso   1.00
H968   H     0.86659   0.31485   0.51973   0.00000  Uiso   1.00
C969   C     0.88993   0.04756   0.81236   0.00000  Uiso   1.00
H970   H     0.88950   0.08364   0.80999   0.00000  Uiso   1.00
H971   H     0.88227   0.03939   0.84696   0.00000  Uiso   1.00
H972   H     0.92252   0.03746   0.80737   0.00000  Uiso   1.00
C973   C     0.77674   0.28577   0.68764   0.00000  Uiso   1.00
H974   H     0.77717   0.24969   0.69001   0.00000  Uiso   1.00
H975   H     0.74415   0.29587   0.69263   0.00000  Uiso   1.00
H976   H     0.78440   0.29394   0.65304   0.00000  Uiso   1.00
C977   C     0.77567   0.04754   0.68877   0.00000  Uiso   1.00
H978   H     0.77748   0.08364   0.68969   0.00000  Uiso   1.00
H979   H     0.78094   0.03772   0.65389   0.00000  Uiso   1.00
H980   H     0.74331   0.03904   0.69634   0.00000  Uiso   1.00
C981   C     0.89100   0.28579   0.81123   0.00000  Uiso   1.00
H982   H     0.88919   0.24970   0.81031   0.00000  Uiso   1.00
H983   H     0.92336   0.29429   0.80366   0.00000  Uiso   1.00
H984   H     0.88572   0.29562   0.84611   0.00000  Uiso   1.00
O985   O     0.10559   0.53821   0.74999   0.00000  Uiso   1.00
O986   O     0.22774   0.46179   0.75000   0.00000  Uiso   1.00
O987   O     0.22774   0.53821   0.75000   0.00000  Uiso   1.00
O988   O     0.10559   0.46179   0.74999   0.00000  Uiso   1.00
C989   C     0.08677   0.50003   0.74989   0.00000  Uiso   1.00
C990   C     0.24656   0.49997   0.75011   0.00000  Uiso   1.00
O991   O     0.16666   0.53823   0.68392   0.00000  Uiso   1.00
O992   O     0.16667   0.46177   0.81607   0.00000  Uiso   1.00
O993   O     0.16667   0.53823   0.81607   0.00000  Uiso   1.00
O994   O     0.16666   0.46177   0.68392   0.00000  Uiso   1.00
C995   C     0.16770   0.49998   0.66367   0.00000  Uiso   1.00
C996   C     0.16563   0.50002   0.83633   0.00000  Uiso   1.00
Zn997  Zn    0.16667   0.55104   0.75000   0.00000  Uiso   1.00
Zn998  Zn    0.16667   0.44896   0.75000   0.00000  Uiso   1.00
C999   C     0.18300   0.53448   0.90814   0.00000  Uiso   1.00
C1000  C     0.15032   0.46552   0.59186   0.00000  Uiso   1.00
C1001  C     0.16329   0.49996   0.88410   0.00000  Uiso   1.00
C1002  C     0.17004   0.50004   0.61590   0.00000  Uiso   1.00
C1003  C     0.14164   0.46613   0.90547   0.00000  Uiso   1.00
C1004  C     0.19167   0.53387   0.59453   0.00000  Uiso   1.00
C1005  C     0.14716   0.46272   0.95251   0.00000  Uiso   1.00
C1006  C     0.18615   0.53729   0.54749   0.00000  Uiso   1.00
C1007  C     0.16568   0.49958   0.97663   0.00000  Uiso   1.00
C1008  C     0.16763   0.50042   0.52337   0.00000  Uiso   1.00
C1009  C     0.18237   0.53577   0.95398   0.00000  Uiso   1.00
C1010  C     0.15094   0.46424   0.54602   0.00000  Uiso   1.00
C1011  C     0.13521   0.42438   0.97656   0.00000  Uiso   1.00
C1012  C     0.19809   0.57563   0.52344   0.00000  Uiso   1.00
C1013  C     0.13554   0.42668   0.52297   0.00000  Uiso   1.00
C1014  C     0.19777   0.57333   0.97703   0.00000  Uiso   1.00
H1015  H     0.19828   0.56102   0.89093   0.00000  Uiso   1.00
H1016  H     0.13504   0.43898   0.60907   0.00000  Uiso   1.00
H1017  H     0.12508   0.39820   0.54151   0.00000  Uiso   1.00
H1018  H     0.20823   0.60181   0.95849   0.00000  Uiso   1.00
C1019  C     0.02196   0.46018   0.75820   0.00000  Uiso   1.00
C1020  C     0.31137   0.53982   0.74180   0.00000  Uiso   1.00
C1021  C     0.31265   0.46014   0.75819   0.00000  Uiso   1.00
C1022  C     0.02068   0.53986   0.74181   0.00000  Uiso   1.00
H1023  H     0.03867   0.42919   0.76486   0.00000  Uiso   1.00
H1024  H     0.29467   0.57081   0.73514   0.00000  Uiso   1.00
H1025  H     0.29699   0.42913   0.76480   0.00000  Uiso   1.00
H1026  H     0.03634   0.57087   0.73520   0.00000  Uiso   1.00
C1027  C     0.29079   0.49996   0.75002   0.00000  Uiso   1.00
C1028  C     0.04255   0.50004   0.74998   0.00000  Uiso   1.00
C1029  C     0.19343   0.35724   0.77905   0.00000  Uiso   1.00
C1030  C     0.13990   0.64276   0.72095   0.00000  Uiso   1.00
C1031  C     0.13979   0.35723   0.72106   0.00000  Uiso   1.00
C1032  C     0.19354   0.64277   0.77894   0.00000  Uiso   1.00
N1033  N     0.16667   0.61907   0.75000   0.00000  Uiso   1.00
N1034  N     0.16667   0.38093   0.75000   0.00000  Uiso   1.00
C1035  C     0.10731   0.44076   0.87898   0.00000  Uiso   1.00
H1036  H     0.09455   0.46031   0.84970   0.00000  Uiso   1.00
H1037  H     0.11913   0.40849   0.86665   0.00000  Uiso   1.00
H1038  H     0.08015   0.43569   0.89933   0.00000  Uiso   1.00
C1039  C     0.22600   0.55925   0.62101   0.00000  Uiso   1.00
H1040  H     0.23879   0.53969   0.65027   0.00000  Uiso   1.00
H1041  H     0.25315   0.56435   0.60064   0.00000  Uiso   1.00
H1042  H     0.21417   0.59151   0.63336   0.00000  Uiso   1.00
C1043  C     0.12757   0.37899   0.95538   0.00000  Uiso   1.00
H1044  H     0.14960   0.37293   0.92904   0.00000  Uiso   1.00
H1045  H     0.13331   0.35183   0.98027   0.00000  Uiso   1.00
H1046  H     0.09476   0.37571   0.94182   0.00000  Uiso   1.00
C1047  C     0.20571   0.62102   0.54461   0.00000  Uiso   1.00
H1048  H     0.18369   0.62706   0.57098   0.00000  Uiso   1.00
H1049  H     0.23852   0.62433   0.55815   0.00000  Uiso   1.00
H1050  H     0.19993   0.64818   0.51973   0.00000  Uiso   1.00
C1051  C     0.22326   0.38090   0.81236   0.00000  Uiso   1.00
H1052  H     0.22283   0.41698   0.80999   0.00000  Uiso   1.00
H1053  H     0.21560   0.37273   0.84696   0.00000  Uiso   1.00
H1054  H     0.25585   0.37080   0.80737   0.00000  Uiso   1.00
C1055  C     0.11007   0.61910   0.68764   0.00000  Uiso   1.00
H1056  H     0.11050   0.58302   0.69001   0.00000  Uiso   1.00
H1057  H     0.07748   0.62920   0.69263   0.00000  Uiso   1.00
H1058  H     0.11773   0.62727   0.65304   0.00000  Uiso   1.00
C1059  C     0.10900   0.38087   0.68877   0.00000  Uiso   1.00
H1060  H     0.11081   0.41697   0.68969   0.00000  Uiso   1.00
H1061  H     0.11428   0.37105   0.65389   0.00000  Uiso   1.00
H1062  H     0.07664   0.37237   0.69634   0.00000  Uiso   1.00
C1063  C     0.22433   0.61913   0.81123   0.00000  Uiso   1.00
H1064  H     0.22252   0.58303   0.81031   0.00000  Uiso   1.00
H1065  H     0.25669   0.62763   0.80366   0.00000  Uiso   1.00
H1066  H     0.21906   0.62895   0.84611   0.00000  Uiso   1.00
O1067  O     0.43892   0.53821   0.74999   0.00000  Uiso   1.00
O1068  O     0.56108   0.46179   0.75000   0.00000  Uiso   1.00
O1069  O     0.56108   0.53821   0.75000   0.00000  Uiso   1.00
O1070  O     0.43892   0.46179   0.74999   0.00000  Uiso   1.00
C1071  C     0.42011   0.50003   0.74989   0.00000  Uiso   1.00
C1072  C     0.57989   0.49997   0.75011   0.00000  Uiso   1.00
O1073  O     0.49999   0.53823   0.68392   0.00000  Uiso   1.00
O1074  O     0.50001   0.46177   0.81607   0.00000  Uiso   1.00
O1075  O     0.50001   0.53823   0.81607   0.00000  Uiso   1.00
O1076  O     0.49999   0.46177   0.68392   0.00000  Uiso   1.00
C1077  C     0.50103   0.49998   0.66367   0.00000  Uiso   1.00
C1078  C     0.49897   0.50002   0.83633   0.00000  Uiso   1.00
Zn1079 Zn    0.50000   0.55104   0.75000   0.00000  Uiso   1.00
Zn1080 Zn    0.50000   0.44896   0.75000   0.00000  Uiso   1.00
C1081  C     0.51634   0.53448   0.90814   0.00000  Uiso   1.00
C1082  C     0.48365   0.46552   0.59186   0.00000  Uiso   1.00
C1083  C     0.49662   0.49996   0.88410   0.00000  Uiso   1.00
C1084  C     0.50337   0.50004   0.61590   0.00000  Uiso   1.00
C1085  C     0.47497   0.46613   0.90547   0.00000  Uiso   1.00
C1086  C     0.52501   0.53387   0.59453   0.00000  Uiso   1.00
C1087  C     0.48049   0.46272   0.95251   0.00000  Uiso   1.00
C1088  C     0.51948   0.53729   0.54749   0.00000  Uiso   1.00
C1089  C     0.49901   0.49958   0.97663   0.00000  Uiso   1.00
C1090  C     0.50096   0.50042   0.52337   0.00000  Uiso   1.00
C1091  C     0.51570   0.53577   0.95398   0.00000  Uiso   1.00
C1092  C     0.48428   0.46424   0.54602   0.00000  Uiso   1.00
C1093  C     0.46854   0.42438   0.97656   0.00000  Uiso   1.00
C1094  C     0.53142   0.57563   0.52344   0.00000  Uiso   1.00
C1095  C     0.46887   0.42668   0.52297   0.00000  Uiso   1.00
C1096  C     0.53110   0.57333   0.97703   0.00000  Uiso   1.00
H1097  H     0.53162   0.56102   0.89093   0.00000  Uiso   1.00
H1098  H     0.46838   0.43898   0.60907   0.00000  Uiso   1.00
H1099  H     0.45841   0.39820   0.54151   0.00000  Uiso   1.00
H1100  H     0.54156   0.60181   0.95849   0.00000  Uiso   1.00
C1101  C     0.35529   0.46018   0.75820   0.00000  Uiso   1.00
C1102  C     0.64471   0.53982   0.74180   0.00000  Uiso   1.00
C1103  C     0.64599   0.46014   0.75819   0.00000  Uiso   1.00
C1104  C     0.35401   0.53986   0.74181   0.00000  Uiso   1.00
H1105  H     0.37200   0.42919   0.76486   0.00000  Uiso   1.00
H1106  H     0.62800   0.57081   0.73514   0.00000  Uiso   1.00
H1107  H     0.63032   0.42913   0.76480   0.00000  Uiso   1.00
H1108  H     0.36968   0.57087   0.73520   0.00000  Uiso   1.00
C1109  C     0.62412   0.49996   0.75002   0.00000  Uiso   1.00
C1110  C     0.37588   0.50004   0.74998   0.00000  Uiso   1.00
C1111  C     0.52677   0.35724   0.77905   0.00000  Uiso   1.00
C1112  C     0.47323   0.64276   0.72095   0.00000  Uiso   1.00
C1113  C     0.47313   0.35723   0.72106   0.00000  Uiso   1.00
C1114  C     0.52687   0.64277   0.77894   0.00000  Uiso   1.00
N1115  N     0.50000   0.61907   0.75000   0.00000  Uiso   1.00
N1116  N     0.50000   0.38093   0.75000   0.00000  Uiso   1.00
C1117  C     0.44065   0.44076   0.87898   0.00000  Uiso   1.00
H1118  H     0.42788   0.46031   0.84970   0.00000  Uiso   1.00
H1119  H     0.45247   0.40849   0.86665   0.00000  Uiso   1.00
H1120  H     0.41348   0.43569   0.89933   0.00000  Uiso   1.00
C1121  C     0.55934   0.55925   0.62101   0.00000  Uiso   1.00
H1122  H     0.57212   0.53969   0.65027   0.00000  Uiso   1.00
H1123  H     0.58648   0.56435   0.60064   0.00000  Uiso   1.00
H1124  H     0.54751   0.59151   0.63336   0.00000  Uiso   1.00
C1125  C     0.46090   0.37899   0.95538   0.00000  Uiso   1.00
H1126  H     0.48293   0.37293   0.92904   0.00000  Uiso   1.00
H1127  H     0.46664   0.35183   0.98027   0.00000  Uiso   1.00
H1128  H     0.42809   0.37571   0.94182   0.00000  Uiso   1.00
C1129  C     0.53904   0.62102   0.54461   0.00000  Uiso   1.00
H1130  H     0.51703   0.62706   0.57098   0.00000  Uiso   1.00
H1131  H     0.57186   0.62433   0.55815   0.00000  Uiso   1.00
H1132  H     0.53326   0.64818   0.51973   0.00000  Uiso   1.00
C1133  C     0.55660   0.38090   0.81236   0.00000  Uiso   1.00
H1134  H     0.55616   0.41698   0.80999   0.00000  Uiso   1.00
H1135  H     0.54894   0.37273   0.84696   0.00000  Uiso   1.00
H1136  H     0.58919   0.37080   0.80737   0.00000  Uiso   1.00
C1137  C     0.44340   0.61910   0.68764   0.00000  Uiso   1.00
H1138  H     0.44384   0.58302   0.69001   0.00000  Uiso   1.00
H1139  H     0.41082   0.62920   0.69263   0.00000  Uiso   1.00
H1140  H     0.45106   0.62727   0.65304   0.00000  Uiso   1.00
C1141  C     0.44233   0.38087   0.68877   0.00000  Uiso   1.00
H1142  H     0.44415   0.41697   0.68969   0.00000  Uiso   1.00
H1143  H     0.44761   0.37105   0.65389   0.00000  Uiso   1.00
H1144  H     0.40998   0.37237   0.69634   0.00000  Uiso   1.00
C1145  C     0.55767   0.61913   0.81123   0.00000  Uiso   1.00
H1146  H     0.55585   0.58303   0.81031   0.00000  Uiso   1.00
H1147  H     0.59002   0.62763   0.80366   0.00000  Uiso   1.00
H1148  H     0.55239   0.62895   0.84611   0.00000  Uiso   1.00
O1149  O     0.77226   0.53821   0.74999   0.00000  Uiso   1.00
O1150  O     0.89441   0.46179   0.75000   0.00000  Uiso   1.00
O1151  O     0.89441   0.53821   0.75000   0.00000  Uiso   1.00
O1152  O     0.77226   0.46179   0.74999   0.00000  Uiso   1.00
C1153  C     0.75344   0.50003   0.74989   0.00000  Uiso   1.00
C1154  C     0.91323   0.49997   0.75011   0.00000  Uiso   1.00
O1155  O     0.83333   0.53823   0.68392   0.00000  Uiso   1.00
O1156  O     0.83334   0.46177   0.81607   0.00000  Uiso   1.00
O1157  O     0.83334   0.53823   0.81607   0.00000  Uiso   1.00
O1158  O     0.83333   0.46177   0.68392   0.00000  Uiso   1.00
C1159  C     0.83436   0.49998   0.66367   0.00000  Uiso   1.00
C1160  C     0.83230   0.50002   0.83633   0.00000  Uiso   1.00
Zn1161 Zn    0.83333   0.55104   0.75000   0.00000  Uiso   1.00
Zn1162 Zn    0.83333   0.44896   0.75000   0.00000  Uiso   1.00
C1163  C     0.84967   0.53448   0.90814   0.00000  Uiso   1.00
C1164  C     0.81698   0.46552   0.59186   0.00000  Uiso   1.00
C1165  C     0.82996   0.49996   0.88410   0.00000  Uiso   1.00
C1166  C     0.83670   0.50004   0.61590   0.00000  Uiso   1.00
C1167  C     0.80831   0.46613   0.90547   0.00000  Uiso   1.00
C1168  C     0.85834   0.53387   0.59453   0.00000  Uiso   1.00
C1169  C     0.81383   0.46272   0.95251   0.00000  Uiso   1.00
C1170  C     0.85281   0.53729   0.54749   0.00000  Uiso   1.00
C1171  C     0.83234   0.49958   0.97663   0.00000  Uiso   1.00
C1172  C     0.83430   0.50042   0.52337   0.00000  Uiso   1.00
C1173  C     0.84904   0.53577   0.95398   0.00000  Uiso   1.00
C1174  C     0.81761   0.46424   0.54602   0.00000  Uiso   1.00
C1175  C     0.80187   0.42438   0.97656   0.00000  Uiso   1.00
C1176  C     0.86476   0.57563   0.52344   0.00000  Uiso   1.00
C1177  C     0.80220   0.42668   0.52297   0.00000  Uiso   1.00
C1178  C     0.86444   0.57333   0.97703   0.00000  Uiso   1.00
H1179  H     0.86495   0.56102   0.89093   0.00000  Uiso   1.00
H1180  H     0.80171   0.43898   0.60907   0.00000  Uiso   1.00
H1181  H     0.79174   0.39820   0.54151   0.00000  Uiso   1.00
H1182  H     0.87489   0.60181   0.95849   0.00000  Uiso   1.00
C1183  C     0.68863   0.46018   0.75820   0.00000  Uiso   1.00
C1184  C     0.97804   0.53982   0.74180   0.00000  Uiso   1.00
C1185  C     0.97932   0.46014   0.75819   0.00000  Uiso   1.00
C1186  C     0.68735   0.53986   0.74181   0.00000  Uiso   1.00
H1187  H     0.70533   0.42919   0.76486   0.00000  Uiso   1.00
H1188  H     0.96133   0.57081   0.73514   0.00000  Uiso   1.00
H1189  H     0.96366   0.42913   0.76480   0.00000  Uiso   1.00
H1190  H     0.70301   0.57087   0.73520   0.00000  Uiso   1.00
C1191  C     0.95746   0.49996   0.75002   0.00000  Uiso   1.00
C1192  C     0.70921   0.50004   0.74998   0.00000  Uiso   1.00
C1193  C     0.86010   0.35724   0.77905   0.00000  Uiso   1.00
C1194  C     0.80657   0.64276   0.72095   0.00000  Uiso   1.00
C1195  C     0.80646   0.35723   0.72106   0.00000  Uiso   1.00
C1196  C     0.86021   0.64277   0.77894   0.00000  Uiso   1.00
N1197  N     0.83333   0.61907   0.75000   0.00000  Uiso   1.00
N1198  N     0.83333   0.38093   0.75000   0.00000  Uiso   1.00
C1199  C     0.77398   0.44076   0.87898   0.00000  Uiso   1.00
H1200  H     0.76122   0.46031   0.84970   0.00000  Uiso   1.00
H1201  H     0.78580   0.40849   0.86665   0.00000  Uiso   1.00
H1202  H     0.74682   0.43569   0.89933   0.00000  Uiso   1.00
C1203  C     0.89267   0.55925   0.62101   0.00000  Uiso   1.00
H1204  H     0.90545   0.53969   0.65027   0.00000  Uiso   1.00
H1205  H     0.91982   0.56435   0.60064   0.00000  Uiso   1.00
H1206  H     0.88084   0.59151   0.63336   0.00000  Uiso   1.00
C1207  C     0.79423   0.37899   0.95538   0.00000  Uiso   1.00
H1208  H     0.81627   0.37293   0.92904   0.00000  Uiso   1.00
H1209  H     0.79997   0.35183   0.98027   0.00000  Uiso   1.00
H1210  H     0.76142   0.37571   0.94182   0.00000  Uiso   1.00
C1211  C     0.87237   0.62102   0.54461   0.00000  Uiso   1.00
H1212  H     0.85036   0.62706   0.57098   0.00000  Uiso   1.00
H1213  H     0.90519   0.62433   0.55815   0.00000  Uiso   1.00
H1214  H     0.86659   0.64818   0.51973   0.00000  Uiso   1.00
C1215  C     0.88993   0.38090   0.81236   0.00000  Uiso   1.00
H1216  H     0.88950   0.41698   0.80999   0.00000  Uiso   1.00
H1217  H     0.88227   0.37273   0.84696   0.00000  Uiso   1.00
H1218  H     0.92252   0.37080   0.80737   0.00000  Uiso   1.00
C1219  C     0.77674   0.61910   0.68764   0.00000  Uiso   1.00
H1220  H     0.77717   0.58302   0.69001   0.00000  Uiso   1.00
H1221  H     0.74415   0.62920   0.69263   0.00000  Uiso   1.00
H1222  H     0.78440   0.62727   0.65304   0.00000  Uiso   1.00
C1223  C     0.77567   0.38087   0.68877   0.00000  Uiso   1.00
H1224  H     0.77748   0.41697   0.68969   0.00000  Uiso   1.00
H1225  H     0.78094   0.37105   0.65389   0.00000  Uiso   1.00
H1226  H     0.74331   0.37237   0.69634   0.00000  Uiso   1.00
C1227  C     0.89100   0.61913   0.81123   0.00000  Uiso   1.00
H1228  H     0.88919   0.58303   0.81031   0.00000  Uiso   1.00
H1229  H     0.92336   0.62763   0.80366   0.00000  Uiso   1.00
H1230  H     0.88572   0.62895   0.84611   0.00000  Uiso   1.00
O1231  O     0.10559   0.87154   0.74999   0.00000  Uiso   1.00
O1232  O     0.22774   0.79513   0.75000   0.00000  Uiso   1.00
O1233  O     0.22774   0.87154   0.75000   0.00000  Uiso   1.00
O1234  O     0.10559   0.79513   0.74999   0.00000  Uiso   1.00
C1235  C     0.08677   0.83337   0.74989   0.00000  Uiso   1.00
C1236  C     0.24656   0.83330   0.75011   0.00000  Uiso   1.00
O1237  O     0.16666   0.87156   0.68392   0.00000  Uiso   1.00
O1238  O     0.16667   0.79511   0.81607   0.00000  Uiso   1.00
O1239  O     0.16667   0.87156   0.81607   0.00000  Uiso   1.00
O1240  O     0.16666   0.79511   0.68392   0.00000  Uiso   1.00
C1241  C     0.16770   0.83331   0.66367   0.00000  Uiso   1.00
C1242  C     0.16563   0.83336   0.83633   0.00000  Uiso   1.00
Zn1243 Zn    0.16667   0.88437   0.75000   0.00000  Uiso   1.00
Zn1244 Zn    0.16667   0.78229   0.75000   0.00000  Uiso   1.00
C1245  C     0.18300   0.86781   0.90814   0.00000  Uiso   1.00
C1246  C     0.15032   0.79886   0.59186   0.00000  Uiso   1.00
C1247  C     0.16329   0.83329   0.88410   0.00000  Uiso   1.00
C1248  C     0.17004   0.83338   0.61590   0.00000  Uiso   1.00
C1249  C     0.14164   0.79946   0.90547   0.00000  Uiso   1.00
C1250  C     0.19167   0.86721   0.59453   0.00000  Uiso   1.00
C1251  C     0.14716   0.79605   0.95251   0.00000  Uiso   1.00
C1252  C     0.18615   0.87062   0.54749   0.00000  Uiso   1.00
C1253  C     0.16568   0.83292   0.97663   0.00000  Uiso   1.00
C1254  C     0.16763   0.83376   0.52337   0.00000  Uiso   1.00
C1255  C     0.18237   0.86910   0.95398   0.00000  Uiso   1.00
C1256  C     0.15094   0.79757   0.54602   0.00000  Uiso   1.00
C1257  C     0.13521   0.75771   0.97656   0.00000  Uiso   1.00
C1258  C     0.19809   0.90896   0.52344   0.00000  Uiso   1.00
C1259  C     0.13554   0.76001   0.52297   0.00000  Uiso   1.00
C1260  C     0.19777   0.90666   0.97703   0.00000  Uiso   1.00
H1261  H     0.19828   0.89435   0.89093   0.00000  Uiso   1.00
H1262  H     0.13504   0.77232   0.60907   0.00000  Uiso   1.00
H1263  H     0.12508   0.73153   0.54151   0.00000  Uiso   1.00
H1264  H     0.20823   0.93515   0.95849   0.00000  Uiso   1.00
C1265  C     0.02196   0.79351   0.75820   0.00000  Uiso   1.00
C1266  C     0.31137   0.87316   0.74180   0.00000  Uiso   1.00
C1267  C     0.31265   0.79347   0.75819   0.00000  Uiso   1.00
C1268  C     0.02068   0.87320   0.74181   0.00000  Uiso   1.00
H1269  H     0.03867   0.76252   0.76486   0.00000  Uiso   1.00
H1270  H     0.29467   0.90415   0.73514   0.00000  Uiso   1.00
H1271  H     0.29699   0.76246   0.76480   0.00000  Uiso   1.00
H1272  H     0.03634   0.90420   0.73520   0.00000  Uiso   1.00
C1273  C     0.29079   0.83329   0.75002   0.00000  Uiso   1.00
C1274  C     0.04255   0.83338   0.74998   0.00000  Uiso   1.00
C1275  C     0.19343   0.69057   0.77905   0.00000  Uiso   1.00
C1276  C     0.13990   0.97609   0.72095   0.00000  Uiso   1.00
C1277  C     0.13979   0.69057   0.72106   0.00000  Uiso   1.00
C1278  C     0.19354   0.97610   0.77894   0.00000  Uiso   1.00
N1279  N     0.16667   0.95240   0.75000   0.00000  Uiso   1.00
N1280  N     0.16667   0.71427   0.75000   0.00000  Uiso   1.00
C1281  C     0.10731   0.77409   0.87898   0.00000  Uiso   1.00
H1282  H     0.09455   0.79365   0.84970   0.00000  Uiso   1.00
H1283  H     0.11913   0.74182   0.86665   0.00000  Uiso   1.00
H1284  H     0.08015   0.76902   0.89933   0.00000  Uiso   1.00
C1285  C     0.22600   0.89259   0.62101   0.00000  Uiso   1.00
H1286  H     0.23879   0.87302   0.65027   0.00000  Uiso   1.00
H1287  H     0.25315   0.89768   0.60064   0.00000  Uiso   1.00
H1288  H     0.21417   0.92485   0.63336   0.00000  Uiso   1.00
C1289  C     0.12757   0.71233   0.95538   0.00000  Uiso   1.00
H1290  H     0.14960   0.70626   0.92904   0.00000  Uiso   1.00
H1291  H     0.13331   0.68516   0.98027   0.00000  Uiso   1.00
H1292  H     0.09476   0.70905   0.94182   0.00000  Uiso   1.00
C1293  C     0.20571   0.95435   0.54461   0.00000  Uiso   1.00
H1294  H     0.18369   0.96039   0.57098   0.00000  Uiso   1.00
H1295  H     0.23852   0.95766   0.55815   0.00000  Uiso   1.00
H1296  H     0.19993   0.98152   0.51973   0.00000  Uiso   1.00
C1297  C     0.22326   0.71423   0.81236   0.00000  Uiso   1.00
H1298  H     0.22283   0.75031   0.80999   0.00000  Uiso   1.00
H1299  H     0.21560   0.70606   0.84696   0.00000  Uiso   1.00
H1300  H     0.25585   0.70413   0.80737   0.00000  Uiso   1.00
C1301  C     0.11007   0.95244   0.68764   0.00000  Uiso   1.00
H1302  H     0.11050   0.91636   0.69001   0.00000  Uiso   1.00
H1303  H     0.07748   0.96254   0.69263   0.00000  Uiso   1.00
H1304  H     0.11773   0.96060   0.65304   0.00000  Uiso   1.00
C1305  C     0.10900   0.71421   0.68877   0.00000  Uiso   1.00
H1306  H     0.11081   0.75030   0.68969   0.00000  Uiso   1.00
H1307  H     0.11428   0.70438   0.65389   0.00000  Uiso   1.00
H1308  H     0.07664   0.70571   0.69634   0.00000  Uiso   1.00
C1309  C     0.22433   0.95246   0.81123   0.00000  Uiso   1.00
H1310  H     0.22252   0.91636   0.81031   0.00000  Uiso   1.00
H1311  H     0.25669   0.96096   0.80366   0.00000  Uiso   1.00
H1312  H     0.21906   0.96228   0.84611   0.00000  Uiso   1.00
O1313  O     0.43892   0.87154   0.74999   0.00000  Uiso   1.00
O1314  O     0.56108   0.79513   0.75000   0.00000  Uiso   1.00
O1315  O     0.56108   0.87154   0.75000   0.00000  Uiso   1.00
O1316  O     0.43892   0.79513   0.74999   0.00000  Uiso   1.00
C1317  C     0.42011   0.83337   0.74989   0.00000  Uiso   1.00
C1318  C     0.57989   0.83330   0.75011   0.00000  Uiso   1.00
O1319  O     0.49999   0.87156   0.68392   0.00000  Uiso   1.00
O1320  O     0.50001   0.79511   0.81607   0.00000  Uiso   1.00
O1321  O     0.50001   0.87156   0.81607   0.00000  Uiso   1.00
O1322  O     0.49999   0.79511   0.68392   0.00000  Uiso   1.00
C1323  C     0.50103   0.83331   0.66367   0.00000  Uiso   1.00
C1324  C     0.49897   0.83336   0.83633   0.00000  Uiso   1.00
Zn1325 Zn    0.50000   0.88437   0.75000   0.00000  Uiso   1.00
Zn1326 Zn    0.50000   0.78229   0.75000   0.00000  Uiso   1.00
C1327  C     0.51634   0.86781   0.90814   0.00000  Uiso   1.00
C1328  C     0.48365   0.79886   0.59186   0.00000  Uiso   1.00
C1329  C     0.49662   0.83329   0.88410   0.00000  Uiso   1.00
C1330  C     0.50337   0.83338   0.61590   0.00000  Uiso   1.00
C1331  C     0.47497   0.79946   0.90547   0.00000  Uiso   1.00
C1332  C     0.52501   0.86721   0.59453   0.00000  Uiso   1.00
C1333  C     0.48049   0.79605   0.95251   0.00000  Uiso   1.00
C1334  C     0.51948   0.87062   0.54749   0.00000  Uiso   1.00
C1335  C     0.49901   0.83292   0.97663   0.00000  Uiso   1.00
C1336  C     0.50096   0.83376   0.52337   0.00000  Uiso   1.00
C1337  C     0.51570   0.86910   0.95398   0.00000  Uiso   1.00
C1338  C     0.48428   0.79757   0.54602   0.00000  Uiso   1.00
C1339  C     0.46854   0.75771   0.97656   0.00000  Uiso   1.00
C1340  C     0.53142   0.90896   0.52344   0.00000  Uiso   1.00
C1341  C     0.46887   0.76001   0.52297   0.00000  Uiso   1.00
C1342  C     0.53110   0.90666   0.97703   0.00000  Uiso   1.00
H1343  H     0.53162   0.89435   0.89093   0.00000  Uiso   1.00
H1344  H     0.46838   0.77232   0.60907   0.00000  Uiso   1.00
H1345  H     0.45841   0.73153   0.54151   0.00000  Uiso   1.00
H1346  H     0.54156   0.93515   0.95849   0.00000  Uiso   1.00
C1347  C     0.35529   0.79351   0.75820   0.00000  Uiso   1.00
C1348  C     0.64471   0.87316   0.74180   0.00000  Uiso   1.00
C1349  C     0.64599   0.79347   0.75819   0.00000  Uiso   1.00
C1350  C     0.35401   0.87320   0.74181   0.00000  Uiso   1.00
H1351  H     0.37200   0.76252   0.76486   0.00000  Uiso   1.00
H1352  H     0.62800   0.90415   0.73514   0.00000  Uiso   1.00
H1353  H     0.63032   0.76246   0.76480   0.00000  Uiso   1.00
H1354  H     0.36968   0.90420   0.73520   0.00000  Uiso   1.00
C1355  C     0.62412   0.83329   0.75002   0.00000  Uiso   1.00
C1356  C     0.37588   0.83338   0.74998   0.00000  Uiso   1.00
C1357  C     0.52677   0.69057   0.77905   0.00000  Uiso   1.00
C1358  C     0.47323   0.97609   0.72095   0.00000  Uiso   1.00
C1359  C     0.47313   0.69057   0.72106   0.00000  Uiso   1.00
C1360  C     0.52687   0.97610   0.77894   0.00000  Uiso   1.00
N1361  N     0.50000   0.95240   0.75000   0.00000  Uiso   1.00
N1362  N     0.50000   0.71427   0.75000   0.00000  Uiso   1.00
C1363  C     0.44065   0.77409   0.87898   0.00000  Uiso   1.00
H1364  H     0.42788   0.79365   0.84970   0.00000  Uiso   1.00
H1365  H     0.45247   0.74182   0.86665   0.00000  Uiso   1.00
H1366  H     0.41348   0.76902   0.89933   0.00000  Uiso   1.00
C1367  C     0.55934   0.89259   0.62101   0.00000  Uiso   1.00
H1368  H     0.57212   0.87302   0.65027   0.00000  Uiso   1.00
H1369  H     0.58648   0.89768   0.60064   0.00000  Uiso   1.00
H1370  H     0.54751   0.92485   0.63336   0.00000  Uiso   1.00
C1371  C     0.46090   0.71233   0.95538   0.00000  Uiso   1.00
H1372  H     0.48293   0.70626   0.92904   0.00000  Uiso   1.00
H1373  H     0.46664   0.68516   0.98027   0.00000  Uiso   1.00
H1374  H     0.42809   0.70905   0.94182   0.00000  Uiso   1.00
C1375  C     0.53904   0.95435   0.54461   0.00000  Uiso   1.00
H1376  H     0.51703   0.96039   0.57098   0.00000  Uiso   1.00
H1377  H     0.57186   0.95766   0.55815   0.00000  Uiso   1.00
H1378  H     0.53326   0.98152   0.51973   0.00000  Uiso   1.00
C1379  C     0.55660   0.71423   0.81236   0.00000  Uiso   1.00
H1380  H     0.55616   0.75031   0.80999   0.00000  Uiso   1.00
H1381  H     0.54894   0.70606   0.84696   0.00000  Uiso   1.00
H1382  H     0.58919   0.70413   0.80737   0.00000  Uiso   1.00
C1383  C     0.44340   0.95244   0.68764   0.00000  Uiso   1.00
H1384  H     0.44384   0.91636   0.69001   0.00000  Uiso   1.00
H1385  H     0.41082   0.96254   0.69263   0.00000  Uiso   1.00
H1386  H     0.45106   0.96060   0.65304   0.00000  Uiso   1.00
C1387  C     0.44233   0.71421   0.68877   0.00000  Uiso   1.00
H1388  H     0.44415   0.75030   0.68969   0.00000  Uiso   1.00
H1389  H     0.44761   0.70438   0.65389   0.00000  Uiso   1.00
H1390  H     0.40998   0.70571   0.69634   0.00000  Uiso   1.00
C1391  C     0.55767   0.95246   0.81123   0.00000  Uiso   1.00
H1392  H     0.55585   0.91636   0.81031   0.00000  Uiso   1.00
H1393  H     0.59002   0.96096   0.80366   0.00000  Uiso   1.00
H1394  H     0.55239   0.96228   0.84611   0.00000  Uiso   1.00
O1395  O     0.77226   0.87154   0.74999   0.00000  Uiso   1.00
O1396  O     0.89441   0.79513   0.75000   0.00000  Uiso   1.00
O1397  O     0.89441   0.87154   0.75000   0.00000  Uiso   1.00
O1398  O     0.77226   0.79513   0.74999   0.00000  Uiso   1.00
C1399  C     0.75344   0.83337   0.74989   0.00000  Uiso   1.00
C1400  C     0.91323   0.83330   0.75011   0.00000  Uiso   1.00
O1401  O     0.83333   0.87156   0.68392   0.00000  Uiso   1.00
O1402  O     0.83334   0.79511   0.81607   0.00000  Uiso   1.00
O1403  O     0.83334   0.87156   0.81607   0.00000  Uiso   1.00
O1404  O     0.83333   0.79511   0.68392   0.00000  Uiso   1.00
C1405  C     0.83436   0.83331   0.66367   0.00000  Uiso   1.00
C1406  C     0.83230   0.83336   0.83633   0.00000  Uiso   1.00
Zn1407 Zn    0.83333   0.88437   0.75000   0.00000  Uiso   1.00
Zn1408 Zn    0.83333   0.78229   0.75000   0.00000  Uiso   1.00
C1409  C     0.84967   0.86781   0.90814   0.00000  Uiso   1.00
C1410  C     0.81698   0.79886   0.59186   0.00000  Uiso   1.00
C1411  C     0.82996   0.83329   0.88410   0.00000  Uiso   1.00
C1412  C     0.83670   0.83338   0.61590   0.00000  Uiso   1.00
C1413  C     0.80831   0.79946   0.90547   0.00000  Uiso   1.00
C1414  C     0.85834   0.86721   0.59453   0.00000  Uiso   1.00
C1415  C     0.81383   0.79605   0.95251   0.00000  Uiso   1.00
C1416  C     0.85281   0.87062   0.54749   0.00000  Uiso   1.00
C1417  C     0.83234   0.83292   0.97663   0.00000  Uiso   1.00
C1418  C     0.83430   0.83376   0.52337   0.00000  Uiso   1.00
C1419  C     0.84904   0.86910   0.95398   0.00000  Uiso   1.00
C1420  C     0.81761   0.79757   0.54602   0.00000  Uiso   1.00
C1421  C     0.80187   0.75771   0.97656   0.00000  Uiso   1.00
C1422  C     0.86476   0.90896   0.52344   0.00000  Uiso   1.00
C1423  C     0.80220   0.76001   0.52297   0.00000  Uiso   1.00
C1424  C     0.86444   0.90666   0.97703   0.00000  Uiso   1.00
H1425  H     0.86495   0.89435   0.89093   0.00000  Uiso   1.00
H1426  H     0.80171   0.77232   0.60907   0.00000  Uiso   1.00
H1427  H     0.79174   0.73153   0.54151   0.00000  Uiso   1.00
H1428  H     0.87489   0.93515   0.95849   0.00000  Uiso   1.00
C1429  C     0.68863   0.79351   0.75820   0.00000  Uiso   1.00
C1430  C     0.97804   0.87316   0.74180   0.00000  Uiso   1.00
C1431  C     0.97932   0.79347   0.75819   0.00000  Uiso   1.00
C1432  C     0.68735   0.87320   0.74181   0.00000  Uiso   1.00
H1433  H     0.70533   0.76252   0.76486   0.00000  Uiso   1.00
H1434  H     0.96133   0.90415   0.73514   0.00000  Uiso   1.00
H1435  H     0.96366   0.76246   0.76480   0.00000  Uiso   1.00
H1436  H     0.70301   0.90420   0.73520   0.00000  Uiso   1.00
C1437  C     0.95746   0.83329   0.75002   0.00000  Uiso   1.00
C1438  C     0.70921   0.83338   0.74998   0.00000  Uiso   1.00
C1439  C     0.86010   0.69057   0.77905   0.00000  Uiso   1.00
C1440  C     0.80657   0.97609   0.72095   0.00000  Uiso   1.00
C1441  C     0.80646   0.69057   0.72106   0.00000  Uiso   1.00
C1442  C     0.86021   0.97610   0.77894   0.00000  Uiso   1.00
N1443  N     0.83333   0.95240   0.75000   0.00000  Uiso   1.00
N1444  N     0.83333   0.71427   0.75000   0.00000  Uiso   1.00
C1445  C     0.77398   0.77409   0.87898   0.00000  Uiso   1.00
H1446  H     0.76122   0.79365   0.84970   0.00000  Uiso   1.00
H1447  H     0.78580   0.74182   0.86665   0.00000  Uiso   1.00
H1448  H     0.74682   0.76902   0.89933   0.00000  Uiso   1.00
C1449  C     0.89267   0.89259   0.62101   0.00000  Uiso   1.00
H1450  H     0.90545   0.87302   0.65027   0.00000  Uiso   1.00
H1451  H     0.91982   0.89768   0.60064   0.00000  Uiso   1.00
H1452  H     0.88084   0.92485   0.63336   0.00000  Uiso   1.00
C1453  C     0.79423   0.71233   0.95538   0.00000  Uiso   1.00
H1454  H     0.81627   0.70626   0.92904   0.00000  Uiso   1.00
H1455  H     0.79997   0.68516   0.98027   0.00000  Uiso   1.00
H1456  H     0.76142   0.70905   0.94182   0.00000  Uiso   1.00
C1457  C     0.87237   0.95435   0.54461   0.00000  Uiso   1.00
H1458  H     0.85036   0.96039   0.57098   0.00000  Uiso   1.00
H1459  H     0.90519   0.95766   0.55815   0.00000  Uiso   1.00
H1460  H     0.86659   0.98152   0.51973   0.00000  Uiso   1.00
C1461  C     0.88993   0.71423   0.81236   0.00000  Uiso   1.00
H1462  H     0.88950   0.75031   0.80999   0.00000  Uiso   1.00
H1463  H     0.88227   0.70606   0.84696   0.00000  Uiso   1.00
H1464  H     0.92252   0.70413   0.80737   0.00000  Uiso   1.00
C1465  C     0.77674   0.95244   0.68764   0.00000  Uiso   1.00
H1466  H     0.77717   0.91636   0.69001   0.00000  Uiso   1.00
H1467  H     0.74415   0.96254   0.69263   0.00000  Uiso   1.00
H1468  H     0.78440   0.96060   0.65304   0.00000  Uiso   1.00
C1469  C     0.77567   0.71421   0.68877   0.00000  Uiso   1.00
H1470  H     0.77748   0.75030   0.68969   0.00000  Uiso   1.00
H1471  H     0.78094   0.70438   0.65389   0.00000  Uiso   1.00
H1472  H     0.74331   0.70571   0.69634   0.00000  Uiso   1.00
C1473  C     0.89100   0.95246   0.81123   0.00000  Uiso   1.00
H1474  H     0.88919   0.91636   0.81031   0.00000  Uiso   1.00
H1475  H     0.92336   0.96096   0.80366   0.00000  Uiso   1.00
H1476  H     0.88572   0.96228   0.84611   0.00000  Uiso   1.00
loop_
_geom_bond_atom_site_label_1
_geom_bond_atom_site_label_2
_geom_bond_distance
_geom_bond_site_symmetry_2
_ccdc_geom_bond_type
O1     C5      1.295   .     A
O1     Zn13    2.001   .     S
O2     C6      1.295   .     A
O2     Zn14    2.001   .     S
O3     C6      1.294   .     A
O3     Zn13    1.999   .     S
O4     C5      1.294   .     A
O4     Zn14    1.999   .     S
C5     C44     1.421   .     S
C6     C43     1.421   .     S
O7     C11     1.297   .     A
O7     Zn13    2.016   .     S
O8     C12     1.297   .     A
O8     Zn14    2.016   .     S
O9     Zn13    2.018   .     S
O9     C12     1.299   .     A
O10    Zn14    2.018   .     S
O10    C11     1.299   .     A
C11    C18     1.439   .     S
C12    C17     1.439   .     S
Zn13   N49     2.039   .     S
Zn14   N50     2.039   .     S
C15    C25     1.376   .     A
C15    C17     1.389   .     A
C15    H31     1.085   .     S
C16    C26     1.376   .     A
C16    H32     1.085   .     S
C16    C18     1.389   .     A
C17    C19     1.410   .     A
C18    C20     1.410   .     A
C19    C21     1.413   .     A
C19    C51     1.519   .     S
C20    C55     1.519   .     S
C20    C22     1.413   .     A
C21    C27     1.425   .     A
C21    C23     1.428   .     A
C22    C28     1.425   .     A
C22    C24     1.428   .     A
C23    C25     1.407   .     A
C23    C762    1.398   .     S
C24    C26     1.407   .     A
C24    C761    1.398   1_554 S
C25    C30     1.393   .     A
C26    C29     1.393   .     A
C27    C59     1.513   .     S
C27    C767    1.392   .     S
C28    C63     1.513   .     S
C28    C768    1.392   1_554 S
C29    H33     1.086   .     S
C29    C765    1.392   1_554 S
C30    H34     1.086   .     S
C30    C766    1.392   .     S
C35    H39     1.084   .     S
C35    C44     1.398   .     A
C35    C201    1.370   1_455 S
C36    H40     1.084   .     S
C36    C43     1.398   .     A
C36    C120    1.370   .     S
C37    H41     1.083   .     S
C37    C43     1.397   .     A
C37    C117    1.370   .     S
C38    H42     1.083   .     S
C38    C44     1.397   .     A
C38    C200    1.370   1_455 S
C45    C67     1.513   .     S
C45    N50     1.378   .     A
C45    C540    1.433   1_545 S
C46    N49     1.378   .     A
C46    C71     1.513   .     S
C46    C293    1.433   .     S
C47    N50     1.379   .     A
C47    C75     1.512   .     S
C47    C538    1.433   1_545 S
C48    C79     1.512   .     S
C48    N49     1.379   .     A
C48    C291    1.433   .     S
C51    H52     1.111   .     S
C51    H54     1.109   .     S
C51    H53     1.110   .     S
C55    H56     1.111   .     S
C55    H57     1.109   .     S
C55    H58     1.110   .     S
C59    H60     1.110   .     S
C59    H61     1.112   .     S
C59    H62     1.108   .     S
C63    H65     1.108   .     S
C63    H66     1.112   .     S
C63    H64     1.110   .     S
C67    H68     1.084   .     S
C67    H69     1.110   .     S
C67    H70     1.109   .     S
C71    H73     1.109   .     S
C71    H74     1.110   .     S
C71    H72     1.084   .     S
C75    H76     1.084   .     S
C75    H77     1.109   .     S
C75    H78     1.110   .     S
C79    H81     1.110   .     S
C79    H82     1.109   .     S
C79    H80     1.084   .     S
O83    C87     1.295   .     A
O83    Zn95    2.001   .     S
O84    C88     1.295   .     A
O84    Zn96    2.001   .     S
O85    C88     1.294   .     A
O85    Zn95    1.999   .     S
O86    C87     1.294   .     A
O86    Zn96    1.999   .     S
C87    C126    1.421   .     S
C88    C125    1.421   .     S
O89    C93     1.297   .     A
O89    Zn95    2.016   .     S
O90    C94     1.297   .     A
O90    Zn96    2.016   .     S
O91    Zn95    2.018   .     S
O91    C94     1.299   .     A
O92    Zn96    2.018   .     S
O92    C93     1.299   .     A
C93    C100    1.439   .     S
C94    C99     1.439   .     S
Zn95   N131    2.039   .     S
Zn96   N132    2.039   .     S
C97    C107    1.376   .     A
C97    C99     1.389   .     A
C97    H113    1.085   .     S
C98    C108    1.376   .     A
C98    H114    1.085   .     S
C98    C100    1.389   .     A
C99    C101    1.410   .     A
C100   C102    1.410   .     A
C101   C103    1.413   .     A
C101   C133    1.519   .     S
C102   C137    1.519   .     S
C102   C104    1.413   .     A
C103   C109    1.425   .     A
C103   C105    1.428   .     A
C104   C110    1.425   .     A
C104   C106    1.428   .     A
C105   C107    1.407   .     A
C105   C844    1.398   .     S
C106   C108    1.407   .     A
C106   C843    1.398   1_554 S
C107   C112    1.393   .     A
C108   C111    1.393   .     A
C109   C141    1.513   .     S
C109   C849    1.392   .     S
C110   C145    1.513   .     S
C110   C850    1.392   1_554 S
C111   H115    1.086   .     S
C111   C847    1.392   1_554 S
C112   H116    1.086   .     S
C112   C848    1.392   .     S
C117   H121    1.084   .     S
C117   C126    1.398   .     A
C118   H122    1.084   .     S
C118   C125    1.398   .     A
C118   C202    1.370   .     S
C119   H123    1.083   .     S
C119   C125    1.397   .     A
C119   C199    1.370   .     S
C120   H124    1.083   .     S
C120   C126    1.397   .     A
C127   C149    1.513   .     S
C127   N132    1.378   .     A
C127   C622    1.433   1_545 S
C128   N131    1.378   .     A
C128   C153    1.513   .     S
C128   C375    1.433   .     S
C129   N132    1.379   .     A
C129   C157    1.512   .     S
C129   C620    1.433   1_545 S
C130   C161    1.512   .     S
C130   N131    1.379   .     A
C130   C373    1.433   .     S
C133   H134    1.111   .     S
C133   H136    1.109   .     S
C133   H135    1.110   .     S
C137   H138    1.111   .     S
C137   H139    1.109   .     S
C137   H140    1.110   .     S
C141   H142    1.110   .     S
C141   H143    1.112   .     S
C141   H144    1.108   .     S
C145   H147    1.108   .     S
C145   H148    1.112   .     S
C145   H146    1.110   .     S
C149   H150    1.084   .     S
C149   H151    1.110   .     S
C149   H152    1.109   .     S
C153   H155    1.109   .     S
C153   H156    1.110   .     S
C153   H154    1.084   .     S
C157   H158    1.084   .     S
C157   H159    1.109   .     S
C157   H160    1.110   .     S
C161   H163    1.110   .     S
C161   H164    1.109   .     S
C161   H162    1.084   .     S
O165   C169    1.295   .     A
O165   Zn177   2.001   .     S
O166   C170    1.295   .     A
O166   Zn178   2.001   .     S
O167   C170    1.294   .     A
O167   Zn177   1.999   .     S
O168   C169    1.294   .     A
O168   Zn178   1.999   .     S
C169   C208    1.421   .     S
C170   C207    1.421   .     S
O171   C175    1.297   .     A
O171   Zn177   2.016   .     S
O172   C176    1.297   .     A
O172   Zn178   2.016   .     S
O173   Zn177   2.018   .     S
O173   C176    1.299   .     A
O174   Zn178   2.018   .     S
O174   C175    1.299   .     A
C175   C182    1.439   .     S
C176   C181    1.439   .     S
Zn177  N213    2.039   .     S
Zn178  N214    2.039   .     S
C179   C189    1.376   .     A
C179   C181    1.389   .     A
C179   H195    1.085   .     S
C180   C190    1.376   .     A
C180   H196    1.085   .     S
C180   C182    1.389   .     A
C181   C183    1.410   .     A
C182   C184    1.410   .     A
C183   C185    1.413   .     A
C183   C215    1.519   .     S
C184   C219    1.519   .     S
C184   C186    1.413   .     A
C185   C191    1.425   .     A
C185   C187    1.428   .     A
C186   C192    1.425   .     A
C186   C188    1.428   .     A
C187   C189    1.407   .     A
C187   C926    1.398   .     S
C188   C190    1.407   .     A
C188   C925    1.398   1_554 S
C189   C194    1.393   .     A
C190   C193    1.393   .     A
C191   C223    1.513   .     S
C191   C931    1.392   .     S
C192   C227    1.513   .     S
C192   C932    1.392   1_554 S
C193   H197    1.086   .     S
C193   C929    1.392   1_554 S
C194   H198    1.086   .     S
C194   C930    1.392   .     S
C199   H203    1.084   .     S
C199   C208    1.398   .     A
C200   H204    1.084   .     S
C200   C207    1.398   .     A
C200   C38     1.370   1_655 S
C201   H205    1.083   .     S
C201   C207    1.397   .     A
C201   C35     1.370   1_655 S
C202   H206    1.083   .     S
C202   C208    1.397   .     A
C209   C231    1.513   .     S
C209   N214    1.378   .     A
C209   C704    1.433   1_545 S
C210   N213    1.378   .     A
C210   C235    1.513   .     S
C210   C457    1.433   .     S
C211   N214    1.379   .     A
C211   C239    1.512   .     S
C211   C702    1.433   1_545 S
C212   C243    1.512   .     S
C212   N213    1.379   .     A
C212   C455    1.433   .     S
C215   H216    1.111   .     S
C215   H218    1.109   .     S
C215   H217    1.110   .     S
C219   H220    1.111   .     S
C219   H221    1.109   .     S
C219   H222    1.110   .     S
C223   H224    1.110   .     S
C223   H225    1.112   .     S
C223   H226    1.108   .     S
C227   H229    1.108   .     S
C227   H230    1.112   .     S
C227   H228    1.110   .     S
C231   H232    1.084   .     S
C231   H233    1.110   .     S
C231   H234    1.109   .     S
C235   H237    1.109   .     S
C235   H238    1.110   .     S
C235   H236    1.084   .     S
C239   H240    1.084   .     S
C239   H241    1.109   .     S
C239   H242    1.110   .     S
C243   H245    1.110   .     S
C243   H246    1.109   .     S
C243   H244    1.084   .     S
O247   C251    1.295   .     A
O247   Zn259   2.001   .     S
O248   C252    1.295   .     A
O248   Zn260   2.001   .     S
O249   C252    1.294   .     A
O249   Zn259   1.999   .     S
O250   C251    1.294   .     A
O250   Zn260   1.999   .     S
C251   C290    1.421   .     S
C252   C289    1.421   .     S
O253   C257    1.297   .     A
O253   Zn259   2.016   .     S
O254   C258    1.297   .     A
O254   Zn260   2.016   .     S
O255   Zn259   2.018   .     S
O255   C258    1.299   .     A
O256   Zn260   2.018   .     S
O256   C257    1.299   .     A
C257   C264    1.439   .     S
C258   C263    1.439   .     S
Zn259  N295    2.039   .     S
Zn260  N296    2.039   .     S
C261   C271    1.376   .     A
C261   C263    1.389   .     A
C261   H277    1.085   .     S
C262   C272    1.376   .     A
C262   H278    1.085   .     S
C262   C264    1.389   .     A
C263   C265    1.410   .     A
C264   C266    1.410   .     A
C265   C267    1.413   .     A
C265   C297    1.519   .     S
C266   C301    1.519   .     S
C266   C268    1.413   .     A
C267   C273    1.425   .     A
C267   C269    1.428   .     A
C268   C274    1.425   .     A
C268   C270    1.428   .     A
C269   C271    1.407   .     A
C269   C1008   1.398   .     S
C270   C272    1.407   .     A
C270   C1007   1.398   1_554 S
C271   C276    1.393   .     A
C272   C275    1.393   .     A
C273   C305    1.513   .     S
C273   C1013   1.392   .     S
C274   C309    1.513   .     S
C274   C1014   1.392   1_554 S
C275   H279    1.086   .     S
C275   C1011   1.392   1_554 S
C276   H280    1.086   .     S
C276   C1012   1.392   .     S
C281   H285    1.084   .     S
C281   C290    1.398   .     A
C281   C447    1.370   1_455 S
C282   H286    1.084   .     S
C282   C289    1.398   .     A
C282   C366    1.370   .     S
C283   H287    1.083   .     S
C283   C289    1.397   .     A
C283   C363    1.370   .     S
C284   H288    1.083   .     S
C284   C290    1.397   .     A
C284   C446    1.370   1_455 S
C291   C313    1.513   .     S
C291   N296    1.378   .     A
C292   N295    1.378   .     A
C292   C317    1.513   .     S
C292   C539    1.433   .     S
C293   N296    1.379   .     A
C293   C321    1.512   .     S
C294   C325    1.512   .     S
C294   N295    1.379   .     A
C294   C537    1.433   .     S
C297   H298    1.111   .     S
C297   H300    1.109   .     S
C297   H299    1.110   .     S
C301   H302    1.111   .     S
C301   H303    1.109   .     S
C301   H304    1.110   .     S
C305   H306    1.110   .     S
C305   H307    1.112   .     S
C305   H308    1.108   .     S
C309   H311    1.108   .     S
C309   H312    1.112   .     S
C309   H310    1.110   .     S
C313   H314    1.084   .     S
C313   H315    1.110   .     S
C313   H316    1.109   .     S
C317   H319    1.109   .     S
C317   H320    1.110   .     S
C317   H318    1.084   .     S
C321   H322    1.084   .     S
C321   H323    1.109   .     S
C321   H324    1.110   .     S
C325   H327    1.110   .     S
C325   H328    1.109   .     S
C325   H326    1.084   .     S
O329   C333    1.295   .     A
O329   Zn341   2.001   .     S
O330   C334    1.295   .     A
O330   Zn342   2.001   .     S
O331   C334    1.294   .     A
O331   Zn341   1.999   .     S
O332   C333    1.294   .     A
O332   Zn342   1.999   .     S
C333   C372    1.421   .     S
C334   C371    1.421   .     S
O335   C339    1.297   .     A
O335   Zn341   2.016   .     S
O336   C340    1.297   .     A
O336   Zn342   2.016   .     S
O337   Zn341   2.018   .     S
O337   C340    1.299   .     A
O338   Zn342   2.018   .     S
O338   C339    1.299   .     A
C339   C346    1.439   .     S
C340   C345    1.439   .     S
Zn341  N377    2.039   .     S
Zn342  N378    2.039   .     S
C343   C353    1.376   .     A
C343   C345    1.389   .     A
C343   H359    1.085   .     S
C344   C354    1.376   .     A
C344   H360    1.085   .     S
C344   C346    1.389   .     A
C345   C347    1.410   .     A
C346   C348    1.410   .     A
C347   C349    1.413   .     A
C347   C379    1.519   .     S
C348   C383    1.519   .     S
C348   C350    1.413   .     A
C349   C355    1.425   .     A
C349   C351    1.428   .     A
C350   C356    1.425   .     A
C350   C352    1.428   .     A
C351   C353    1.407   .     A
C351   C1090   1.398   .     S
C352   C354    1.407   .     A
C352   C1089   1.398   1_554 S
C353   C358    1.393   .     A
C354   C357    1.393   .     A
C355   C387    1.513   .     S
C355   C1095   1.392   .     S
C356   C391    1.513   .     S
C356   C1096   1.392   1_554 S
C357   H361    1.086   .     S
C357   C1093   1.392   1_554 S
C358   H362    1.086   .     S
C358   C1094   1.392   .     S
C363   H367    1.084   .     S
C363   C372    1.398   .     A
C364   H368    1.084   .     S
C364   C371    1.398   .     A
C364   C448    1.370   .     S
C365   H369    1.083   .     S
C365   C371    1.397   .     A
C365   C445    1.370   .     S
C366   H370    1.083   .     S
C366   C372    1.397   .     A
C373   C395    1.513   .     S
C373   N378    1.378   .     A
C374   N377    1.378   .     A
C374   C399    1.513   .     S
C374   C621    1.433   .     S
C375   N378    1.379   .     A
C375   C403    1.512   .     S
C376   C407    1.512   .     S
C376   N377    1.379   .     A
C376   C619    1.433   .     S
C379   H380    1.111   .     S
C379   H382    1.109   .     S
C379   H381    1.110   .     S
C383   H384    1.111   .     S
C383   H385    1.109   .     S
C383   H386    1.110   .     S
C387   H388    1.110   .     S
C387   H389    1.112   .     S
C387   H390    1.108   .     S
C391   H393    1.108   .     S
C391   H394    1.112   .     S
C391   H392    1.110   .     S
C395   H396    1.084   .     S
C395   H397    1.110   .     S
C395   H398    1.109   .     S
C399   H401    1.109   .     S
C399   H402    1.110   .     S
C399   H400    1.084   .     S
C403   H404    1.084   .     S
C403   H405    1.109   .     S
C403   H406    1.110   .     S
C407   H409    1.110   .     S
C407   H410    1.109   .     S
C407   H408    1.084   .     S
O411   C415    1.295   .     A
O411   Zn423   2.001   .     S
O412   C416    1.295   .     A
O412   Zn424   2.001   .     S
O413   C416    1.294   .     A
O413   Zn423   1.999   .     S
O414   C415    1.294   .     A
O414   Zn424   1.999   .     S
C415   C454    1.421   .     S
C416   C453    1.421   .     S
O417   C421    1.297   .     A
O417   Zn423   2.016   .     S
O418   C422    1.297   .     A
O418   Zn424   2.016   .     S
O419   Zn423   2.018   .     S
O419   C422    1.299   .     A
O420   Zn424   2.018   .     S
O420   C421    1.299   .     A
C421   C428    1.439   .     S
C422   C427    1.439   .     S
Zn423  N459    2.039   .     S
Zn424  N460    2.039   .     S
C425   C435    1.376   .     A
C425   C427    1.389   .     A
C425   H441    1.085   .     S
C426   C436    1.376   .     A
C426   H442    1.085   .     S
C426   C428    1.389   .     A
C427   C429    1.410   .     A
C428   C430    1.410   .     A
C429   C431    1.413   .     A
C429   C461    1.519   .     S
C430   C465    1.519   .     S
C430   C432    1.413   .     A
C431   C437    1.425   .     A
C431   C433    1.428   .     A
C432   C438    1.425   .     A
C432   C434    1.428   .     A
C433   C435    1.407   .     A
C433   C1172   1.398   .     S
C434   C436    1.407   .     A
C434   C1171   1.398   1_554 S
C435   C440    1.393   .     A
C436   C439    1.393   .     A
C437   C469    1.513   .     S
C437   C1177   1.392   .     S
C438   C473    1.513   .     S
C438   C1178   1.392   1_554 S
C439   H443    1.086   .     S
C439   C1175   1.392   1_554 S
C440   H444    1.086   .     S
C440   C1176   1.392   .     S
C445   H449    1.084   .     S
C445   C454    1.398   .     A
C446   H450    1.084   .     S
C446   C453    1.398   .     A
C446   C284    1.370   1_655 S
C447   H451    1.083   .     S
C447   C453    1.397   .     A
C447   C281    1.370   1_655 S
C448   H452    1.083   .     S
C448   C454    1.397   .     A
C455   C477    1.513   .     S
C455   N460    1.378   .     A
C456   N459    1.378   .     A
C456   C481    1.513   .     S
C456   C703    1.433   .     S
C457   N460    1.379   .     A
C457   C485    1.512   .     S
C458   C489    1.512   .     S
C458   N459    1.379   .     A
C458   C701    1.433   .     S
C461   H462    1.111   .     S
C461   H464    1.109   .     S
C461   H463    1.110   .     S
C465   H466    1.111   .     S
C465   H467    1.109   .     S
C465   H468    1.110   .     S
C469   H470    1.110   .     S
C469   H471    1.112   .     S
C469   H472    1.108   .     S
C473   H475    1.108   .     S
C473   H476    1.112   .     S
C473   H474    1.110   .     S
C477   H478    1.084   .     S
C477   H479    1.110   .     S
C477   H480    1.109   .     S
C481   H483    1.109   .     S
C481   H484    1.110   .     S
C481   H482    1.084   .     S
C485   H486    1.084   .     S
C485   H487    1.109   .     S
C485   H488    1.110   .     S
C489   H491    1.110   .     S
C489   H492    1.109   .     S
C489   H490    1.084   .     S
O493   C497    1.295   .     A
O493   Zn505   2.001   .     S
O494   C498    1.295   .     A
O494   Zn506   2.001   .     S
O495   C498    1.294   .     A
O495   Zn505   1.999   .     S
O496   C497    1.294   .     A
O496   Zn506   1.999   .     S
C497   C536    1.421   .     S
C498   C535    1.421   .     S
O499   C503    1.297   .     A
O499   Zn505   2.016   .     S
O500   C504    1.297   .     A
O500   Zn506   2.016   .     S
O501   Zn505   2.018   .     S
O501   C504    1.299   .     A
O502   Zn506   2.018   .     S
O502   C503    1.299   .     A
C503   C510    1.439   .     S
C504   C509    1.439   .     S
Zn505  N541    2.039   .     S
Zn506  N542    2.039   .     S
C507   C517    1.376   .     A
C507   C509    1.389   .     A
C507   H523    1.085   .     S
C508   C518    1.376   .     A
C508   H524    1.085   .     S
C508   C510    1.389   .     A
C509   C511    1.410   .     A
C510   C512    1.410   .     A
C511   C513    1.413   .     A
C511   C543    1.519   .     S
C512   C547    1.519   .     S
C512   C514    1.413   .     A
C513   C519    1.425   .     A
C513   C515    1.428   .     A
C514   C520    1.425   .     A
C514   C516    1.428   .     A
C515   C517    1.407   .     A
C515   C1254   1.398   .     S
C516   C518    1.407   .     A
C516   C1253   1.398   1_554 S
C517   C522    1.393   .     A
C518   C521    1.393   .     A
C519   C551    1.513   .     S
C519   C1259   1.392   .     S
C520   C555    1.513   .     S
C520   C1260   1.392   1_554 S
C521   H525    1.086   .     S
C521   C1257   1.392   1_554 S
C522   H526    1.086   .     S
C522   C1258   1.392   .     S
C527   H531    1.084   .     S
C527   C536    1.398   .     A
C527   C693    1.370   1_455 S
C528   H532    1.084   .     S
C528   C535    1.398   .     A
C528   C612    1.370   .     S
C529   H533    1.083   .     S
C529   C535    1.397   .     A
C529   C609    1.370   .     S
C530   H534    1.083   .     S
C530   C536    1.397   .     A
C530   C692    1.370   1_455 S
C537   C559    1.513   .     S
C537   N542    1.378   .     A
C538   N541    1.378   .     A
C538   C563    1.513   .     S
C538   C47     1.433   1_565 S
C539   N542    1.379   .     A
C539   C567    1.512   .     S
C540   C571    1.512   .     S
C540   N541    1.379   .     A
C540   C45     1.433   1_565 S
C543   H544    1.111   .     S
C543   H546    1.109   .     S
C543   H545    1.110   .     S
C547   H548    1.111   .     S
C547   H549    1.109   .     S
C547   H550    1.110   .     S
C551   H552    1.110   .     S
C551   H553    1.112   .     S
C551   H554    1.108   .     S
C555   H557    1.108   .     S
C555   H558    1.112   .     S
C555   H556    1.110   .     S
C559   H560    1.084   .     S
C559   H561    1.110   .     S
C559   H562    1.109   .     S
C563   H565    1.109   .     S
C563   H566    1.110   .     S
C563   H564    1.084   .     S
C567   H568    1.084   .     S
C567   H569    1.109   .     S
C567   H570    1.110   .     S
C571   H573    1.110   .     S
C571   H574    1.109   .     S
C571   H572    1.084   .     S
O575   C579    1.295   .     A
O575   Zn587   2.001   .     S
O576   C580    1.295   .     A
O576   Zn588   2.001   .     S
O577   C580    1.294   .     A
O577   Zn587   1.999   .     S
O578   C579    1.294   .     A
O578   Zn588   1.999   .     S
C579   C618    1.421   .     S
C580   C617    1.421   .     S
O581   C585    1.297   .     A
O581   Zn587   2.016   .     S
O582   C586    1.297   .     A
O582   Zn588   2.016   .     S
O583   Zn587   2.018   .     S
O583   C586    1.299   .     A
O584   Zn588   2.018   .     S
O584   C585    1.299   .     A
C585   C592    1.439   .     S
C586   C591    1.439   .     S
Zn587  N623    2.039   .     S
Zn588  N624    2.039   .     S
C589   C599    1.376   .     A
C589   C591    1.389   .     A
C589   H605    1.085   .     S
C590   C600    1.376   .     A
C590   H606    1.085   .     S
C590   C592    1.389   .     A
C591   C593    1.410   .     A
C592   C594    1.410   .     A
C593   C595    1.413   .     A
C593   C625    1.519   .     S
C594   C629    1.519   .     S
C594   C596    1.413   .     A
C595   C601    1.425   .     A
C595   C597    1.428   .     A
C596   C602    1.425   .     A
C596   C598    1.428   .     A
C597   C599    1.407   .     A
C597   C1336   1.398   .     S
C598   C600    1.407   .     A
C598   C1335   1.398   1_554 S
C599   C604    1.393   .     A
C600   C603    1.393   .     A
C601   C633    1.513   .     S
C601   C1341   1.392   .     S
C602   C637    1.513   .     S
C602   C1342   1.392   1_554 S
C603   H607    1.086   .     S
C603   C1339   1.392   1_554 S
C604   H608    1.086   .     S
C604   C1340   1.392   .     S
C609   H613    1.084   .     S
C609   C618    1.398   .     A
C610   H614    1.084   .     S
C610   C617    1.398   .     A
C610   C694    1.370   .     S
C611   H615    1.083   .     S
C611   C617    1.397   .     A
C611   C691    1.370   .     S
C612   H616    1.083   .     S
C612   C618    1.397   .     A
C619   C641    1.513   .     S
C619   N624    1.378   .     A
C620   N623    1.378   .     A
C620   C645    1.513   .     S
C620   C129    1.433   1_565 S
C621   N624    1.379   .     A
C621   C649    1.512   .     S
C622   C653    1.512   .     S
C622   N623    1.379   .     A
C622   C127    1.433   1_565 S
C625   H626    1.111   .     S
C625   H628    1.109   .     S
C625   H627    1.110   .     S
C629   H630    1.111   .     S
C629   H631    1.109   .     S
C629   H632    1.110   .     S
C633   H634    1.110   .     S
C633   H635    1.112   .     S
C633   H636    1.108   .     S
C637   H639    1.108   .     S
C637   H640    1.112   .     S
C637   H638    1.110   .     S
C641   H642    1.084   .     S
C641   H643    1.110   .     S
C641   H644    1.109   .     S
C645   H647    1.109   .     S
C645   H648    1.110   .     S
C645   H646    1.084   .     S
C649   H650    1.084   .     S
C649   H651    1.109   .     S
C649   H652    1.110   .     S
C653   H655    1.110   .     S
C653   H656    1.109   .     S
C653   H654    1.084   .     S
O657   C661    1.295   .     A
O657   Zn669   2.001   .     S
O658   C662    1.295   .     A
O658   Zn670   2.001   .     S
O659   C662    1.294   .     A
O659   Zn669   1.999   .     S
O660   C661    1.294   .     A
O660   Zn670   1.999   .     S
C661   C700    1.421   .     S
C662   C699    1.421   .     S
O663   C667    1.297   .     A
O663   Zn669   2.016   .     S
O664   C668    1.297   .     A
O664   Zn670   2.016   .     S
O665   Zn669   2.018   .     S
O665   C668    1.299   .     A
O666   Zn670   2.018   .     S
O666   C667    1.299   .     A
C667   C674    1.439   .     S
C668   C673    1.439   .     S
Zn669  N705    2.039   .     S
Zn670  N706    2.039   .     S
C671   C681    1.376   .     A
C671   C673    1.389   .     A
C671   H687    1.085   .     S
C672   C682    1.376   .     A
C672   H688    1.085   .     S
C672   C674    1.389   .     A
C673   C675    1.410   .     A
C674   C676    1.410   .     A
C675   C677    1.413   .     A
C675   C707    1.519   .     S
C676   C711    1.519   .     S
C676   C678    1.413   .     A
C677   C683    1.425   .     A
C677   C679    1.428   .     A
C678   C684    1.425   .     A
C678   C680    1.428   .     A
C679   C681    1.407   .     A
C679   C1418   1.398   .     S
C680   C682    1.407   .     A
C680   C1417   1.398   1_554 S
C681   C686    1.393   .     A
C682   C685    1.393   .     A
C683   C715    1.513   .     S
C683   C1423   1.392   .     S
C684   C719    1.513   .     S
C684   C1424   1.392   1_554 S
C685   H689    1.086   .     S
C685   C1421   1.392   1_554 S
C686   H690    1.086   .     S
C686   C1422   1.392   .     S
C691   H695    1.084   .     S
C691   C700    1.398   .     A
C692   H696    1.084   .     S
C692   C699    1.398   .     A
C692   C530    1.370   1_655 S
C693   H697    1.083   .     S
C693   C699    1.397   .     A
C693   C527    1.370   1_655 S
C694   H698    1.083   .     S
C694   C700    1.397   .     A
C701   C723    1.513   .     S
C701   N706    1.378   .     A
C702   N705    1.378   .     A
C702   C727    1.513   .     S
C702   C211    1.433   1_565 S
C703   N706    1.379   .     A
C703   C731    1.512   .     S
C704   C735    1.512   .     S
C704   N705    1.379   .     A
C704   C209    1.433   1_565 S
C707   H708    1.111   .     S
C707   H710    1.109   .     S
C707   H709    1.110   .     S
C711   H712    1.111   .     S
C711   H713    1.109   .     S
C711   H714    1.110   .     S
C715   H716    1.110   .     S
C715   H717    1.112   .     S
C715   H718    1.108   .     S
C719   H721    1.108   .     S
C719   H722    1.112   .     S
C719   H720    1.110   .     S
C723   H724    1.084   .     S
C723   H725    1.110   .     S
C723   H726    1.109   .     S
C727   H729    1.109   .     S
C727   H730    1.110   .     S
C727   H728    1.084   .     S
C731   H732    1.084   .     S
C731   H733    1.109   .     S
C731   H734    1.110   .     S
C735   H737    1.110   .     S
C735   H738    1.109   .     S
C735   H736    1.084   .     S
O739   C743    1.295   .     A
O739   Zn751   2.001   .     S
O740   C744    1.295   .     A
O740   Zn752   2.001   .     S
O741   C744    1.294   .     A
O741   Zn751   1.999   .     S
O742   C743    1.294   .     A
O742   Zn752   1.999   .     S
C743   C782    1.421   .     S
C744   C781    1.421   .     S
O745   C749    1.297   .     A
O745   Zn751   2.016   .     S
O746   C750    1.297   .     A
O746   Zn752   2.016   .     S
O747   Zn751   2.018   .     S
O747   C750    1.299   .     A
O748   Zn752   2.018   .     S
O748   C749    1.299   .     A
C749   C756    1.439   .     S
C750   C755    1.439   .     S
Zn751  N787    2.039   .     S
Zn752  N788    2.039   .     S
C753   C763    1.376   .     A
C753   C755    1.389   .     A
C753   H769    1.085   .     S
C754   C764    1.376   .     A
C754   H770    1.085   .     S
C754   C756    1.389   .     A
C755   C757    1.410   .     A
C756   C758    1.410   .     A
C757   C759    1.413   .     A
C757   C789    1.519   .     S
C758   C793    1.519   .     S
C758   C760    1.413   .     A
C759   C765    1.425   .     A
C759   C761    1.428   .     A
C760   C766    1.425   .     A
C760   C762    1.428   .     A
C761   C763    1.407   .     A
C761   C24     1.398   1_556 S
C762   C764    1.407   .     A
C763   C768    1.393   .     A
C764   C767    1.393   .     A
C765   C797    1.513   .     S
C765   C29     1.392   1_556 S
C766   C801    1.513   .     S
C767   H771    1.086   .     S
C768   H772    1.086   .     S
C768   C28     1.392   1_556 S
C773   H777    1.084   .     S
C773   C782    1.398   .     A
C773   C939    1.370   1_455 S
C774   H778    1.084   .     S
C774   C781    1.398   .     A
C774   C858    1.370   .     S
C775   H779    1.083   .     S
C775   C781    1.397   .     A
C775   C855    1.370   .     S
C776   H780    1.083   .     S
C776   C782    1.397   .     A
C776   C938    1.370   1_455 S
C783   C805    1.513   .     S
C783   N788    1.378   .     A
C783   C1278   1.433   1_545 S
C784   N787    1.378   .     A
C784   C809    1.513   .     S
C784   C1031   1.433   .     S
C785   N788    1.379   .     A
C785   C813    1.512   .     S
C785   C1276   1.433   1_545 S
C786   C817    1.512   .     S
C786   N787    1.379   .     A
C786   C1029   1.433   .     S
C789   H790    1.111   .     S
C789   H792    1.109   .     S
C789   H791    1.110   .     S
C793   H794    1.111   .     S
C793   H795    1.109   .     S
C793   H796    1.110   .     S
C797   H798    1.110   .     S
C797   H799    1.112   .     S
C797   H800    1.108   .     S
C801   H803    1.108   .     S
C801   H804    1.112   .     S
C801   H802    1.110   .     S
C805   H806    1.084   .     S
C805   H807    1.110   .     S
C805   H808    1.109   .     S
C809   H811    1.109   .     S
C809   H812    1.110   .     S
C809   H810    1.084   .     S
C813   H814    1.084   .     S
C813   H815    1.109   .     S
C813   H816    1.110   .     S
C817   H819    1.110   .     S
C817   H820    1.109   .     S
C817   H818    1.084   .     S
O821   C825    1.295   .     A
O821   Zn833   2.001   .     S
O822   C826    1.295   .     A
O822   Zn834   2.001   .     S
O823   C826    1.294   .     A
O823   Zn833   1.999   .     S
O824   C825    1.294   .     A
O824   Zn834   1.999   .     S
C825   C864    1.421   .     S
C826   C863    1.421   .     S
O827   C831    1.297   .     A
O827   Zn833   2.016   .     S
O828   C832    1.297   .     A
O828   Zn834   2.016   .     S
O829   Zn833   2.018   .     S
O829   C832    1.299   .     A
O830   Zn834   2.018   .     S
O830   C831    1.299   .     A
C831   C838    1.439   .     S
C832   C837    1.439   .     S
Zn833  N869    2.039   .     S
Zn834  N870    2.039   .     S
C835   C845    1.376   .     A
C835   C837    1.389   .     A
C835   H851    1.085   .     S
C836   C846    1.376   .     A
C836   H852    1.085   .     S
C836   C838    1.389   .     A
C837   C839    1.410   .     A
C838   C840    1.410   .     A
C839   C841    1.413   .     A
C839   C871    1.519   .     S
C840   C875    1.519   .     S
C840   C842    1.413   .     A
C841   C847    1.425   .     A
C841   C843    1.428   .     A
C842   C848    1.425   .     A
C842   C844    1.428   .     A
C843   C845    1.407   .     A
C843   C106    1.398   1_556 S
C844   C846    1.407   .     A
C845   C850    1.393   .     A
C846   C849    1.393   .     A
C847   C879    1.513   .     S
C847   C111    1.392   1_556 S
C848   C883    1.513   .     S
C849   H853    1.086   .     S
C850   H854    1.086   .     S
C850   C110    1.392   1_556 S
C855   H859    1.084   .     S
C855   C864    1.398   .     A
C856   H860    1.084   .     S
C856   C863    1.398   .     A
C856   C940    1.370   .     S
C857   H861    1.083   .     S
C857   C863    1.397   .     A
C857   C937    1.370   .     S
C858   H862    1.083   .     S
C858   C864    1.397   .     A
C865   C887    1.513   .     S
C865   N870    1.378   .     A
C865   C1360   1.433   1_545 S
C866   N869    1.378   .     A
C866   C891    1.513   .     S
C866   C1113   1.433   .     S
C867   N870    1.379   .     A
C867   C895    1.512   .     S
C867   C1358   1.433   1_545 S
C868   C899    1.512   .     S
C868   N869    1.379   .     A
C868   C1111   1.433   .     S
C871   H872    1.111   .     S
C871   H874    1.109   .     S
C871   H873    1.110   .     S
C875   H876    1.111   .     S
C875   H877    1.109   .     S
C875   H878    1.110   .     S
C879   H880    1.110   .     S
C879   H881    1.112   .     S
C879   H882    1.108   .     S
C883   H885    1.108   .     S
C883   H886    1.112   .     S
C883   H884    1.110   .     S
C887   H888    1.084   .     S
C887   H889    1.110   .     S
C887   H890    1.109   .     S
C891   H893    1.109   .     S
C891   H894    1.110   .     S
C891   H892    1.084   .     S
C895   H896    1.084   .     S
C895   H897    1.109   .     S
C895   H898    1.110   .     S
C899   H901    1.110   .     S
C899   H902    1.109   .     S
C899   H900    1.084   .     S
O903   C907    1.295   .     A
O903   Zn915   2.001   .     S
O904   C908    1.295   .     A
O904   Zn916   2.001   .     S
O905   C908    1.294   .     A
O905   Zn915   1.999   .     S
O906   C907    1.294   .     A
O906   Zn916   1.999   .     S
C907   C946    1.421   .     S
C908   C945    1.421   .     S
O909   C913    1.297   .     A
O909   Zn915   2.016   .     S
O910   C914    1.297   .     A
O910   Zn916   2.016   .     S
O911   Zn915   2.018   .     S
O911   C914    1.299   .     A
O912   Zn916   2.018   .     S
O912   C913    1.299   .     A
C913   C920    1.439   .     S
C914   C919    1.439   .     S
Zn915  N951    2.039   .     S
Zn916  N952    2.039   .     S
C917   C927    1.376   .     A
C917   C919    1.389   .     A
C917   H933    1.085   .     S
C918   C928    1.376   .     A
C918   H934    1.085   .     S
C918   C920    1.389   .     A
C919   C921    1.410   .     A
C920   C922    1.410   .     A
C921   C923    1.413   .     A
C921   C953    1.519   .     S
C922   C957    1.519   .     S
C922   C924    1.413   .     A
C923   C929    1.425   .     A
C923   C925    1.428   .     A
C924   C930    1.425   .     A
C924   C926    1.428   .     A
C925   C927    1.407   .     A
C925   C188    1.398   1_556 S
C926   C928    1.407   .     A
C927   C932    1.393   .     A
C928   C931    1.393   .     A
C929   C961    1.513   .     S
C929   C193    1.392   1_556 S
C930   C965    1.513   .     S
C931   H935    1.086   .     S
C932   H936    1.086   .     S
C932   C192    1.392   1_556 S
C937   H941    1.084   .     S
C937   C946    1.398   .     A
C938   H942    1.084   .     S
C938   C945    1.398   .     A
C938   C776    1.370   1_655 S
C939   H943    1.083   .     S
C939   C945    1.397   .     A
C939   C773    1.370   1_655 S
C940   H944    1.083   .     S
C940   C946    1.397   .     A
C947   C969    1.513   .     S
C947   N952    1.378   .     A
C947   C1442   1.433   1_545 S
C948   N951    1.378   .     A
C948   C973    1.513   .     S
C948   C1195   1.433   .     S
C949   N952    1.379   .     A
C949   C977    1.512   .     S
C949   C1440   1.433   1_545 S
C950   C981    1.512   .     S
C950   N951    1.379   .     A
C950   C1193   1.433   .     S
C953   H954    1.111   .     S
C953   H956    1.109   .     S
C953   H955    1.110   .     S
C957   H958    1.111   .     S
C957   H959    1.109   .     S
C957   H960    1.110   .     S
C961   H962    1.110   .     S
C961   H963    1.112   .     S
C961   H964    1.108   .     S
C965   H967    1.108   .     S
C965   H968    1.112   .     S
C965   H966    1.110   .     S
C969   H970    1.084   .     S
C969   H971    1.110   .     S
C969   H972    1.109   .     S
C973   H975    1.109   .     S
C973   H976    1.110   .     S
C973   H974    1.084   .     S
C977   H978    1.084   .     S
C977   H979    1.109   .     S
C977   H980    1.110   .     S
C981   H983    1.110   .     S
C981   H984    1.109   .     S
C981   H982    1.084   .     S
O985   C989    1.295   .     A
O985   Zn997   2.001   .     S
O986   C990    1.295   .     A
O986   Zn998   2.001   .     S
O987   C990    1.294   .     A
O987   Zn997   1.999   .     S
O988   C989    1.294   .     A
O988   Zn998   1.999   .     S
C989   C1028   1.421   .     S
C990   C1027   1.421   .     S
O991   C995    1.297   .     A
O991   Zn997   2.016   .     S
O992   C996    1.297   .     A
O992   Zn998   2.016   .     S
O993   Zn997   2.018   .     S
O993   C996    1.299   .     A
O994   Zn998   2.018   .     S
O994   C995    1.299   .     A
C995   C1002   1.439   .     S
C996   C1001   1.439   .     S
Zn997  N1033   2.039   .     S
Zn998  N1034   2.039   .     S
C999   C1009   1.376   .     A
C999   C1001   1.389   .     A
C999   H1015   1.085   .     S
C1000  C1010   1.376   .     A
C1000  H1016   1.085   .     S
C1000  C1002   1.389   .     A
C1001  C1003   1.410   .     A
C1002  C1004   1.410   .     A
C1003  C1005   1.413   .     A
C1003  C1035   1.519   .     S
C1004  C1039   1.519   .     S
C1004  C1006   1.413   .     A
C1005  C1011   1.425   .     A
C1005  C1007   1.428   .     A
C1006  C1012   1.425   .     A
C1006  C1008   1.428   .     A
C1007  C1009   1.407   .     A
C1007  C270    1.398   1_556 S
C1008  C1010   1.407   .     A
C1009  C1014   1.393   .     A
C1010  C1013   1.393   .     A
C1011  C1043   1.513   .     S
C1011  C275    1.392   1_556 S
C1012  C1047   1.513   .     S
C1013  H1017   1.086   .     S
C1014  H1018   1.086   .     S
C1014  C274    1.392   1_556 S
C1019  H1023   1.084   .     S
C1019  C1028   1.398   .     A
C1019  C1185   1.370   1_455 S
C1020  H1024   1.084   .     S
C1020  C1027   1.398   .     A
C1020  C1104   1.370   .     S
C1021  H1025   1.083   .     S
C1021  C1027   1.397   .     A
C1021  C1101   1.370   .     S
C1022  H1026   1.083   .     S
C1022  C1028   1.397   .     A
C1022  C1184   1.370   1_455 S
C1029  C1051   1.513   .     S
C1029  N1034   1.378   .     A
C1030  N1033   1.378   .     A
C1030  C1055   1.513   .     S
C1030  C1277   1.433   .     S
C1031  N1034   1.379   .     A
C1031  C1059   1.512   .     S
C1032  C1063   1.512   .     S
C1032  N1033   1.379   .     A
C1032  C1275   1.433   .     S
C1035  H1036   1.111   .     S
C1035  H1038   1.109   .     S
C1035  H1037   1.110   .     S
C1039  H1040   1.111   .     S
C1039  H1041   1.109   .     S
C1039  H1042   1.110   .     S
C1043  H1044   1.110   .     S
C1043  H1045   1.112   .     S
C1043  H1046   1.108   .     S
C1047  H1049   1.108   .     S
C1047  H1050   1.112   .     S
C1047  H1048   1.110   .     S
C1051  H1052   1.084   .     S
C1051  H1053   1.110   .     S
C1051  H1054   1.109   .     S
C1055  H1057   1.109   .     S
C1055  H1058   1.110   .     S
C1055  H1056   1.084   .     S
C1059  H1060   1.084   .     S
C1059  H1061   1.109   .     S
C1059  H1062   1.110   .     S
C1063  H1065   1.110   .     S
C1063  H1066   1.109   .     S
C1063  H1064   1.084   .     S
O1067  C1071   1.295   .     A
O1067  Zn1079  2.001   .     S
O1068  C1072   1.295   .     A
O1068  Zn1080  2.001   .     S
O1069  C1072   1.294   .     A
O1069  Zn1079  1.999   .     S
O1070  C1071   1.294   .     A
O1070  Zn1080  1.999   .     S
C1071  C1110   1.421   .     S
C1072  C1109   1.421   .     S
O1073  C1077   1.297   .     A
O1073  Zn1079  2.016   .     S
O1074  C1078   1.297   .     A
O1074  Zn1080  2.016   .     S
O1075  Zn1079  2.018   .     S
O1075  C1078   1.299   .     A
O1076  Zn1080  2.018   .     S
O1076  C1077   1.299   .     A
C1077  C1084   1.439   .     S
C1078  C1083   1.439   .     S
Zn1079 N1115   2.039   .     S
Zn1080 N1116   2.039   .     S
C1081  C1091   1.376   .     A
C1081  C1083   1.389   .     A
C1081  H1097   1.085   .     S
C1082  C1092   1.376   .     A
C1082  H1098   1.085   .     S
C1082  C1084   1.389   .     A
C1083  C1085   1.410   .     A
C1084  C1086   1.410   .     A
C1085  C1087   1.413   .     A
C1085  C1117   1.519   .     S
C1086  C1121   1.519   .     S
C1086  C1088   1.413   .     A
C1087  C1093   1.425   .     A
C1087  C1089   1.428   .     A
C1088  C1094   1.425   .     A
C1088  C1090   1.428   .     A
C1089  C1091   1.407   .     A
C1089  C352    1.398   1_556 S
C1090  C1092   1.407   .     A
C1091  C1096   1.393   .     A
C1092  C1095   1.393   .     A
C1093  C1125   1.513   .     S
C1093  C357    1.392   1_556 S
C1094  C1129   1.513   .     S
C1095  H1099   1.086   .     S
C1096  H1100   1.086   .     S
C1096  C356    1.392   1_556 S
C1101  H1105   1.084   .     S
C1101  C1110   1.398   .     A
C1102  H1106   1.084   .     S
C1102  C1109   1.398   .     A
C1102  C1186   1.370   .     S
C1103  H1107   1.083   .     S
C1103  C1109   1.397   .     A
C1103  C1183   1.370   .     S
C1104  H1108   1.083   .     S
C1104  C1110   1.397   .     A
C1111  C1133   1.513   .     S
C1111  N1116   1.378   .     A
C1112  N1115   1.378   .     A
C1112  C1137   1.513   .     S
C1112  C1359   1.433   .     S
C1113  N1116   1.379   .     A
C1113  C1141   1.512   .     S
C1114  C1145   1.512   .     S
C1114  N1115   1.379   .     A
C1114  C1357   1.433   .     S
C1117  H1118   1.111   .     S
C1117  H1120   1.109   .     S
C1117  H1119   1.110   .     S
C1121  H1122   1.111   .     S
C1121  H1123   1.109   .     S
C1121  H1124   1.110   .     S
C1125  H1126   1.110   .     S
C1125  H1127   1.112   .     S
C1125  H1128   1.108   .     S
C1129  H1131   1.108   .     S
C1129  H1132   1.112   .     S
C1129  H1130   1.110   .     S
C1133  H1134   1.084   .     S
C1133  H1135   1.110   .     S
C1133  H1136   1.109   .     S
C1137  H1139   1.109   .     S
C1137  H1140   1.110   .     S
C1137  H1138   1.084   .     S
C1141  H1142   1.084   .     S
C1141  H1143   1.109   .     S
C1141  H1144   1.110   .     S
C1145  H1147   1.110   .     S
C1145  H1148   1.109   .     S
C1145  H1146   1.084   .     S
O1149  C1153   1.295   .     A
O1149  Zn1161  2.001   .     S
O1150  C1154   1.295   .     A
O1150  Zn1162  2.001   .     S
O1151  C1154   1.294   .     A
O1151  Zn1161  1.999   .     S
O1152  C1153   1.294   .     A
O1152  Zn1162  1.999   .     S
C1153  C1192   1.421   .     S
C1154  C1191   1.421   .     S
O1155  C1159   1.297   .     A
O1155  Zn1161  2.016   .     S
O1156  C1160   1.297   .     A
O1156  Zn1162  2.016   .     S
O1157  Zn1161  2.018   .     S
O1157  C1160   1.299   .     A
O1158  Zn1162  2.018   .     S
O1158  C1159   1.299   .     A
C1159  C1166   1.439   .     S
C1160  C1165   1.439   .     S
Zn1161 N1197   2.039   .     S
Zn1162 N1198   2.039   .     S
C1163  C1173   1.376   .     A
C1163  C1165   1.389   .     A
C1163  H1179   1.085   .     S
C1164  C1174   1.376   .     A
C1164  H1180   1.085   .     S
C1164  C1166   1.389   .     A
C1165  C1167   1.410   .     A
C1166  C1168   1.410   .     A
C1167  C1169   1.413   .     A
C1167  C1199   1.519   .     S
C1168  C1203   1.519   .     S
C1168  C1170   1.413   .     A
C1169  C1175   1.425   .     A
C1169  C1171   1.428   .     A
C1170  C1176   1.425   .     A
C1170  C1172   1.428   .     A
C1171  C1173   1.407   .     A
C1171  C434    1.398   1_556 S
C1172  C1174   1.407   .     A
C1173  C1178   1.393   .     A
C1174  C1177   1.393   .     A
C1175  C1207   1.513   .     S
C1175  C439    1.392   1_556 S
C1176  C1211   1.513   .     S
C1177  H1181   1.086   .     S
C1178  H1182   1.086   .     S
C1178  C438    1.392   1_556 S
C1183  H1187   1.084   .     S
C1183  C1192   1.398   .     A
C1184  H1188   1.084   .     S
C1184  C1191   1.398   .     A
C1184  C1022   1.370   1_655 S
C1185  H1189   1.083   .     S
C1185  C1191   1.397   .     A
C1185  C1019   1.370   1_655 S
C1186  H1190   1.083   .     S
C1186  C1192   1.397   .     A
C1193  C1215   1.513   .     S
C1193  N1198   1.378   .     A
C1194  N1197   1.378   .     A
C1194  C1219   1.513   .     S
C1194  C1441   1.433   .     S
C1195  N1198   1.379   .     A
C1195  C1223   1.512   .     S
C1196  C1227   1.512   .     S
C1196  N1197   1.379   .     A
C1196  C1439   1.433   .     S
C1199  H1200   1.111   .     S
C1199  H1202   1.109   .     S
C1199  H1201   1.110   .     S
C1203  H1204   1.111   .     S
C1203  H1205   1.109   .     S
C1203  H1206   1.110   .     S
C1207  H1208   1.110   .     S
C1207  H1209   1.112   .     S
C1207  H1210   1.108   .     S
C1211  H1213   1.108   .     S
C1211  H1214   1.112   .     S
C1211  H1212   1.110   .     S
C1215  H1216   1.084   .     S
C1215  H1217   1.110   .     S
C1215  H1218   1.109   .     S
C1219  H1221   1.109   .     S
C1219  H1222   1.110   .     S
C1219  H1220   1.084   .     S
C1223  H1224   1.084   .     S
C1223  H1225   1.109   .     S
C1223  H1226   1.110   .     S
C1227  H1229   1.110   .     S
C1227  H1230   1.109   .     S
C1227  H1228   1.084   .     S
O1231  C1235   1.295   .     A
O1231  Zn1243  2.001   .     S
O1232  C1236   1.295   .     A
O1232  Zn1244  2.001   .     S
O1233  C1236   1.294   .     A
O1233  Zn1243  1.999   .     S
O1234  C1235   1.294   .     A
O1234  Zn1244  1.999   .     S
C1235  C1274   1.421   .     S
C1236  C1273   1.421   .     S
O1237  C1241   1.297   .     A
O1237  Zn1243  2.016   .     S
O1238  C1242   1.297   .     A
O1238  Zn1244  2.016   .     S
O1239  Zn1243  2.018   .     S
O1239  C1242   1.299   .     A
O1240  Zn1244  2.018   .     S
O1240  C1241   1.299   .     A
C1241  C1248   1.439   .     S
C1242  C1247   1.439   .     S
Zn1243 N1279   2.039   .     S
Zn1244 N1280   2.039   .     S
C1245  C1255   1.376   .     A
C1245  C1247   1.389   .     A
C1245  H1261   1.085   .     S
C1246  C1256   1.376   .     A
C1246  H1262   1.085   .     S
C1246  C1248   1.389   .     A
C1247  C1249   1.410   .     A
C1248  C1250   1.410   .     A
C1249  C1251   1.413   .     A
C1249  C1281   1.519   .     S
C1250  C1285   1.519   .     S
C1250  C1252   1.413   .     A
C1251  C1257   1.425   .     A
C1251  C1253   1.428   .     A
C1252  C1258   1.425   .     A
C1252  C1254   1.428   .     A
C1253  C1255   1.407   .     A
C1253  C516    1.398   1_556 S
C1254  C1256   1.407   .     A
C1255  C1260   1.393   .     A
C1256  C1259   1.393   .     A
C1257  C1289   1.513   .     S
C1257  C521    1.392   1_556 S
C1258  C1293   1.513   .     S
C1259  H1263   1.086   .     S
C1260  H1264   1.086   .     S
C1260  C520    1.392   1_556 S
C1265  H1269   1.084   .     S
C1265  C1274   1.398   .     A
C1265  C1431   1.370   1_455 S
C1266  H1270   1.084   .     S
C1266  C1273   1.398   .     A
C1266  C1350   1.370   .     S
C1267  H1271   1.083   .     S
C1267  C1273   1.397   .     A
C1267  C1347   1.370   .     S
C1268  H1272   1.083   .     S
C1268  C1274   1.397   .     A
C1268  C1430   1.370   1_455 S
C1275  C1297   1.513   .     S
C1275  N1280   1.378   .     A
C1276  N1279   1.378   .     A
C1276  C1301   1.513   .     S
C1276  C785    1.433   1_565 S
C1277  N1280   1.379   .     A
C1277  C1305   1.512   .     S
C1278  C1309   1.512   .     S
C1278  N1279   1.379   .     A
C1278  C783    1.433   1_565 S
C1281  H1282   1.111   .     S
C1281  H1284   1.109   .     S
C1281  H1283   1.110   .     S
C1285  H1286   1.111   .     S
C1285  H1287   1.109   .     S
C1285  H1288   1.110   .     S
C1289  H1290   1.110   .     S
C1289  H1291   1.112   .     S
C1289  H1292   1.108   .     S
C1293  H1295   1.108   .     S
C1293  H1296   1.112   .     S
C1293  H1294   1.110   .     S
C1297  H1298   1.084   .     S
C1297  H1299   1.110   .     S
C1297  H1300   1.109   .     S
C1301  H1303   1.109   .     S
C1301  H1304   1.110   .     S
C1301  H1302   1.084   .     S
C1305  H1306   1.084   .     S
C1305  H1307   1.109   .     S
C1305  H1308   1.110   .     S
C1309  H1311   1.110   .     S
C1309  H1312   1.109   .     S
C1309  H1310   1.084   .     S
O1313  C1317   1.295   .     A
O1313  Zn1325  2.001   .     S
O1314  C1318   1.295   .     A
O1314  Zn1326  2.001   .     S
O1315  C1318   1.294   .     A
O1315  Zn1325  1.999   .     S
O1316  C1317   1.294   .     A
O1316  Zn1326  1.999   .     S
C1317  C1356   1.421   .     S
C1318  C1355   1.421   .     S
O1319  C1323   1.297   .     A
O1319  Zn1325  2.016   .     S
O1320  C1324   1.297   .     A
O1320  Zn1326  2.016   .     S
O1321  Zn1325  2.018   .     S
O1321  C1324   1.299   .     A
O1322  Zn1326  2.018   .     S
O1322  C1323   1.299   .     A
C1323  C1330   1.439   .     S
C1324  C1329   1.439   .     S
Zn1325 N1361   2.039   .     S
Zn1326 N1362   2.039   .     S
C1327  C1337   1.376   .     A
C1327  C1329   1.389   .     A
C1327  H1343   1.085   .     S
C1328  C1338   1.376   .     A
C1328  H1344   1.085   .     S
C1328  C1330   1.389   .     A
C1329  C1331   1.410   .     A
C1330  C1332   1.410   .     A
C1331  C1333   1.413   .     A
C1331  C1363   1.519   .     S
C1332  C1367   1.519   .     S
C1332  C1334   1.413   .     A
C1333  C1339   1.425   .     A
C1333  C1335   1.428   .     A
C1334  C1340   1.425   .     A
C1334  C1336   1.428   .     A
C1335  C1337   1.407   .     A
C1335  C598    1.398   1_556 S
C1336  C1338   1.407   .     A
C1337  C1342   1.393   .     A
C1338  C1341   1.393   .     A
C1339  C1371   1.513   .     S
C1339  C603    1.392   1_556 S
C1340  C1375   1.513   .     S
C1341  H1345   1.086   .     S
C1342  H1346   1.086   .     S
C1342  C602    1.392   1_556 S
C1347  H1351   1.084   .     S
C1347  C1356   1.398   .     A
C1348  H1352   1.084   .     S
C1348  C1355   1.398   .     A
C1348  C1432   1.370   .     S
C1349  H1353   1.083   .     S
C1349  C1355   1.397   .     A
C1349  C1429   1.370   .     S
C1350  H1354   1.083   .     S
C1350  C1356   1.397   .     A
C1357  C1379   1.513   .     S
C1357  N1362   1.378   .     A
C1358  N1361   1.378   .     A
C1358  C1383   1.513   .     S
C1358  C867    1.433   1_565 S
C1359  N1362   1.379   .     A
C1359  C1387   1.512   .     S
C1360  C1391   1.512   .     S
C1360  N1361   1.379   .     A
C1360  C865    1.433   1_565 S
C1363  H1364   1.111   .     S
C1363  H1366   1.109   .     S
C1363  H1365   1.110   .     S
C1367  H1368   1.111   .     S
C1367  H1369   1.109   .     S
C1367  H1370   1.110   .     S
C1371  H1372   1.110   .     S
C1371  H1373   1.112   .     S
C1371  H1374   1.108   .     S
C1375  H1377   1.108   .     S
C1375  H1378   1.112   .     S
C1375  H1376   1.110   .     S
C1379  H1380   1.084   .     S
C1379  H1381   1.110   .     S
C1379  H1382   1.109   .     S
C1383  H1385   1.109   .     S
C1383  H1386   1.110   .     S
C1383  H1384   1.084   .     S
C1387  H1388   1.084   .     S
C1387  H1389   1.109   .     S
C1387  H1390   1.110   .     S
C1391  H1393   1.110   .     S
C1391  H1394   1.109   .     S
C1391  H1392   1.084   .     S
O1395  C1399   1.295   .     A
O1395  Zn1407  2.001   .     S
O1396  C1400   1.295   .     A
O1396  Zn1408  2.001   .     S
O1397  C1400   1.294   .     A
O1397  Zn1407  1.999   .     S
O1398  C1399   1.294   .     A
O1398  Zn1408  1.999   .     S
C1399  C1438   1.421   .     S
C1400  C1437   1.421   .     S
O1401  C1405   1.297   .     A
O1401  Zn1407  2.016   .     S
O1402  C1406   1.297   .     A
O1402  Zn1408  2.016   .     S
O1403  Zn1407  2.018   .     S
O1403  C1406   1.299   .     A
O1404  Zn1408  2.018   .     S
O1404  C1405   1.299   .     A
C1405  C1412   1.439   .     S
C1406  C1411   1.439   .     S
Zn1407 N1443   2.039   .     S
Zn1408 N1444   2.039   .     S
C1409  C1419   1.376   .     A
C1409  C1411   1.389   .     A
C1409  H1425   1.085   .     S
C1410  C1420   1.376   .     A
C1410  H1426   1.085   .     S
C1410  C1412   1.389   .     A
C1411  C1413   1.410   .     A
C1412  C1414   1.410   .     A
C1413  C1415   1.413   .     A
C1413  C1445   1.519   .     S
C1414  C1449   1.519   .     S
C1414  C1416   1.413   .     A
C1415  C1421   1.425   .     A
C1415  C1417   1.428   .     A
C1416  C1422   1.425   .     A
C1416  C1418   1.428   .     A
C1417  C1419   1.407   .     A
C1417  C680    1.398   1_556 S
C1418  C1420   1.407   .     A
C1419  C1424   1.393   .     A
C1420  C1423   1.393   .     A
C1421  C1453   1.513   .     S
C1421  C685    1.392   1_556 S
C1422  C1457   1.513   .     S
C1423  H1427   1.086   .     S
C1424  H1428   1.086   .     S
C1424  C684    1.392   1_556 S
C1429  H1433   1.084   .     S
C1429  C1438   1.398   .     A
C1430  H1434   1.084   .     S
C1430  C1437   1.398   .     A
C1430  C1268   1.370   1_655 S
C1431  H1435   1.083   .     S
C1431  C1437   1.397   .     A
C1431  C1265   1.370   1_655 S
C1432  H1436   1.083   .     S
C1432  C1438   1.397   .     A
C1439  C1461   1.513   .     S
C1439  N1444   1.378   .     A
C1440  N1443   1.378   .     A
C1440  C1465   1.513   .     S
C1440  C949    1.433   1_565 S
C1441  N1444   1.379   .     A
C1441  C1469   1.512   .     S
C1442  C1473   1.512   .     S
C1442  N1443   1.379   .     A
C1442  C947    1.433   1_565 S
C1445  H1446   1.111   .     S
C1445  H1448   1.109   .     S
C1445  H1447   1.110   .     S
C1449  H1450   1.111   .     S
C1449  H1451   1.109   .     S
C1449  H1452   1.110   .     S
C1453  H1454   1.110   .     S
C1453  H1455   1.112   .     S
C1453  H1456   1.108   .     S
C1457  H1459   1.108   .     S
C1457  H1460   1.112   .     S
C1457  H1458   1.110   .     S
C1461  H1462   1.084   .     S
C1461  H1463   1.110   .     S
C1461  H1464   1.109   .     S
C1465  H1467   1.109   .     S
C1465  H1468   1.110   .     S
C1465  H1466   1.084   .     S
C1469  H1470   1.084   .     S
C1469  H1471   1.109   .     S
C1469  H1472   1.110   .     S
C1473  H1475   1.110   .     S
C1473  H1476   1.109   .     S
C1473  H1474   1.084   .     S
