data_str_m1_o10_o16_pcu_sym.178
_audit_creation_date              2020-01-03
_audit_creation_method            'Materials Studio'
_symmetry_space_group_name_H-M    'P1'
_symmetry_Int_Tables_number       1
_symmetry_cell_setting            triclinic
loop_
_symmetry_equiv_pos_as_xyz
  x,y,z
_cell_length_a                    32.5636
_cell_length_b                    32.7841
_cell_length_c                    30.9028
_cell_angle_alpha                 97.2054
_cell_angle_beta                  74.4396
_cell_angle_gamma                 98.9908
loop_
_atom_site_label
_atom_site_type_symbol
_atom_site_fract_x
_atom_site_fract_y
_atom_site_fract_z
_atom_site_U_iso_or_equiv
_atom_site_adp_type
_atom_site_occupancy
C1     C     0.05256   0.15904   0.26073   0.00000  Uiso   1.00
C2     C     0.18052   0.16763   0.05678   0.00000  Uiso   1.00
C3     C     0.19417   0.09817   0.06186   0.00000  Uiso   1.00
C4     C     0.28093   0.17407   0.23978   0.00000  Uiso   1.00
C5     C     0.14464   0.19764   0.41972   0.00000  Uiso   1.00
C6     C     0.32736   0.17789   0.23490   0.00000  Uiso   1.00
C7     C     0.00778   0.15767   0.26260   0.00000  Uiso   1.00
C8     C     0.18020   0.32271   0.23721   0.00000  Uiso   1.00
C9     C     0.15042   0.01251   0.26427   0.00000  Uiso   1.00
C10    C     0.15589   0.05619   0.26015   0.00000  Uiso   1.00
C11    C     0.17645   0.27798   0.24028   0.00000  Uiso   1.00
C12    C     0.14393   0.25254   0.48150   0.00000  Uiso   1.00
C13    C     0.18522   0.14779   0.12914   0.00000  Uiso   1.00
C14    C     0.14925   0.18570   0.37087   0.00000  Uiso   1.00
C15    C     0.18589   0.08565   0.02007   0.00000  Uiso   1.00
C16    C     0.19047   0.13887   0.08073   0.00000  Uiso   1.00
C17    C     0.14278   0.24010   0.43649   0.00000  Uiso   1.00
C18    C     0.21837   0.00947   0.20290   0.00000  Uiso   1.00
C19    C     0.11053   0.32985   0.29903   0.00000  Uiso   1.00
C20    C     0.14236   0.27225   0.40687   0.00000  Uiso   1.00
C21    C     0.14021   0.29641   0.00277   0.00000  Uiso   1.00
C22    C     0.11592   0.10372   0.40586   0.00000  Uiso   1.00
C23    C     0.15202   0.22435   0.00741   0.00000  Uiso   1.00
C24    C     0.02327   0.20390   0.19957   0.00000  Uiso   1.00
C25    C     0.15668   0.18280   0.49083   0.00000  Uiso   1.00
C26    C     0.14732   0.16814   0.44873   0.00000  Uiso   1.00
C27    C     0.16999   0.15526   0.01509   0.00000  Uiso   1.00
C28    C     0.17232   0.11335   0.49737   0.00000  Uiso   1.00
C29    C     0.15783   0.09840   0.45917   0.00000  Uiso   1.00
C30    C     0.14221   0.12449   0.43683   0.00000  Uiso   1.00
H31    H     0.20109   0.07548   0.08070   0.00000  Uiso   1.00
H32    H     0.09116   0.02191   0.31558   0.00000  Uiso   1.00
H33    H     0.08958   0.30640   0.28274   0.00000  Uiso   1.00
H34    H     0.11955   0.31676   0.32612   0.00000  Uiso   1.00
H35    H     0.11612   0.29094   0.41521   0.00000  Uiso   1.00
H36    H     0.13479   0.31779   0.48044   0.00000  Uiso   1.00
H37    H     0.11291   0.29609   0.03337   0.00000  Uiso   1.00
H38    H     0.17020   0.30937   0.01291   0.00000  Uiso   1.00
H39    H     0.12225   0.07356   0.38850   0.00000  Uiso   1.00
H40    H     0.00970   0.21961   0.17884   0.00000  Uiso   1.00
H41    H     0.31878   0.13897   0.28761   0.00000  Uiso   1.00
H42    H     0.15590   0.06546   0.44853   0.00000  Uiso   1.00
H43    H     0.18768   0.05363   0.00671   0.00000  Uiso   1.00
H44    H     0.17837   0.19842   0.07331   0.00000  Uiso   1.00
H45    H     0.15451   0.23624   0.04081   0.00000  Uiso   1.00
H46    H     0.23991   0.32027   0.18312   0.00000  Uiso   1.00
H47    H     0.20686   0.02424   0.17867   0.00000  Uiso   1.00
H48    H     0.23790   0.03339   0.22037   0.00000  Uiso   1.00
O49    O     0.16667   0.16667   0.25000   0.00000  Uiso   1.00
O50    O     0.15451   0.12637   0.15458   0.00000  Uiso   1.00
O51    O     0.12940   0.20391   0.34968   0.00000  Uiso   1.00
O52    O     0.20824   0.17759   0.14606   0.00000  Uiso   1.00
O53    O     0.17451   0.15880   0.34968   0.00000  Uiso   1.00
O54    O     0.17205   0.27883   0.37369   0.00000  Uiso   1.00
O55    O     0.08550   0.11888   0.40142   0.00000  Uiso   1.00
O56    O     0.06232   0.20823   0.19290   0.00000  Uiso   1.00
O57    O     0.17930   0.08019   0.28213   0.00000  Uiso   1.00
O58    O     0.14632   0.26085   0.27014   0.00000  Uiso   1.00
O59    O     0.07412   0.13291   0.23413   0.00000  Uiso   1.00
O60    O     0.26693   0.19272   0.21360   0.00000  Uiso   1.00
O61    O     0.07071   0.18878   0.28213   0.00000  Uiso   1.00
O62    O     0.25491   0.15226   0.27013   0.00000  Uiso   1.00
O63    O     0.13760   0.06944   0.23413   0.00000  Uiso   1.00
O64    O     0.20345   0.25620   0.21361   0.00000  Uiso   1.00
Zn65   Zn    0.19338   0.13994   0.28734   0.00000  Uiso   1.00
Zn66   Zn    0.13379   0.12458   0.21876   0.00000  Uiso   1.00
Zn67   Zn    0.21056   0.19775   0.20657   0.00000  Uiso   1.00
Zn68   Zn    0.12893   0.20439   0.28734   0.00000  Uiso   1.00
C69    C     0.38589   0.15904   0.26073   0.00000  Uiso   1.00
C70    C     0.51385   0.16763   0.05678   0.00000  Uiso   1.00
C71    C     0.52750   0.09817   0.06186   0.00000  Uiso   1.00
C72    C     0.61426   0.17407   0.23978   0.00000  Uiso   1.00
C73    C     0.47797   0.19764   0.41972   0.00000  Uiso   1.00
C74    C     0.66070   0.17789   0.23490   0.00000  Uiso   1.00
C75    C     0.34111   0.15767   0.26260   0.00000  Uiso   1.00
C76    C     0.51353   0.32271   0.23721   0.00000  Uiso   1.00
C77    C     0.48375   0.01251   0.26427   0.00000  Uiso   1.00
C78    C     0.48923   0.05619   0.26015   0.00000  Uiso   1.00
C79    C     0.50979   0.27798   0.24028   0.00000  Uiso   1.00
C80    C     0.47727   0.25254   0.48150   0.00000  Uiso   1.00
C81    C     0.51855   0.14779   0.12914   0.00000  Uiso   1.00
C82    C     0.48259   0.18570   0.37087   0.00000  Uiso   1.00
C83    C     0.51922   0.08565   0.02007   0.00000  Uiso   1.00
C84    C     0.52380   0.13887   0.08073   0.00000  Uiso   1.00
C85    C     0.47612   0.24010   0.43649   0.00000  Uiso   1.00
C86    C     0.55170   0.00947   0.20290   0.00000  Uiso   1.00
C87    C     0.44387   0.32985   0.29903   0.00000  Uiso   1.00
C88    C     0.47569   0.27225   0.40687   0.00000  Uiso   1.00
C89    C     0.47355   0.29641   0.00277   0.00000  Uiso   1.00
C90    C     0.44925   0.10372   0.40586   0.00000  Uiso   1.00
C91    C     0.48535   0.22435   0.00741   0.00000  Uiso   1.00
C92    C     0.35660   0.20390   0.19957   0.00000  Uiso   1.00
C93    C     0.49001   0.18280   0.49083   0.00000  Uiso   1.00
C94    C     0.48065   0.16814   0.44873   0.00000  Uiso   1.00
C95    C     0.50332   0.15526   0.01509   0.00000  Uiso   1.00
C96    C     0.50566   0.11335   0.49737   0.00000  Uiso   1.00
C97    C     0.49116   0.09840   0.45917   0.00000  Uiso   1.00
C98    C     0.47554   0.12449   0.43683   0.00000  Uiso   1.00
H99    H     0.53443   0.07548   0.08070   0.00000  Uiso   1.00
H100   H     0.42450   0.02191   0.31558   0.00000  Uiso   1.00
H101   H     0.42292   0.30640   0.28274   0.00000  Uiso   1.00
H102   H     0.45289   0.31676   0.32612   0.00000  Uiso   1.00
H103   H     0.44946   0.29094   0.41521   0.00000  Uiso   1.00
H104   H     0.46812   0.31779   0.48044   0.00000  Uiso   1.00
H105   H     0.44624   0.29609   0.03337   0.00000  Uiso   1.00
H106   H     0.50354   0.30937   0.01291   0.00000  Uiso   1.00
H107   H     0.45559   0.07356   0.38850   0.00000  Uiso   1.00
H108   H     0.34303   0.21961   0.17884   0.00000  Uiso   1.00
H109   H     0.65211   0.13897   0.28761   0.00000  Uiso   1.00
H110   H     0.48923   0.06546   0.44853   0.00000  Uiso   1.00
H111   H     0.52102   0.05363   0.00671   0.00000  Uiso   1.00
H112   H     0.51170   0.19842   0.07331   0.00000  Uiso   1.00
H113   H     0.48785   0.23624   0.04081   0.00000  Uiso   1.00
H114   H     0.57325   0.32027   0.18312   0.00000  Uiso   1.00
H115   H     0.54019   0.02424   0.17867   0.00000  Uiso   1.00
H116   H     0.57123   0.03339   0.22037   0.00000  Uiso   1.00
O117   O     0.50000   0.16667   0.25000   0.00000  Uiso   1.00
O118   O     0.48784   0.12637   0.15458   0.00000  Uiso   1.00
O119   O     0.46274   0.20391   0.34968   0.00000  Uiso   1.00
O120   O     0.54157   0.17759   0.14606   0.00000  Uiso   1.00
O121   O     0.50785   0.15880   0.34968   0.00000  Uiso   1.00
O122   O     0.50538   0.27883   0.37369   0.00000  Uiso   1.00
O123   O     0.41883   0.11888   0.40142   0.00000  Uiso   1.00
O124   O     0.39566   0.20823   0.19290   0.00000  Uiso   1.00
O125   O     0.51264   0.08019   0.28213   0.00000  Uiso   1.00
O126   O     0.47965   0.26085   0.27014   0.00000  Uiso   1.00
O127   O     0.40745   0.13291   0.23413   0.00000  Uiso   1.00
O128   O     0.60026   0.19272   0.21360   0.00000  Uiso   1.00
O129   O     0.40405   0.18878   0.28213   0.00000  Uiso   1.00
O130   O     0.58824   0.15226   0.27013   0.00000  Uiso   1.00
O131   O     0.47093   0.06944   0.23413   0.00000  Uiso   1.00
O132   O     0.53678   0.25620   0.21361   0.00000  Uiso   1.00
Zn133  Zn    0.52672   0.13994   0.28734   0.00000  Uiso   1.00
Zn134  Zn    0.46713   0.12458   0.21876   0.00000  Uiso   1.00
Zn135  Zn    0.54389   0.19775   0.20657   0.00000  Uiso   1.00
Zn136  Zn    0.46226   0.20439   0.28734   0.00000  Uiso   1.00
C137   C     0.71922   0.15904   0.26073   0.00000  Uiso   1.00
C138   C     0.84718   0.16763   0.05678   0.00000  Uiso   1.00
C139   C     0.86083   0.09817   0.06186   0.00000  Uiso   1.00
C140   C     0.94760   0.17407   0.23978   0.00000  Uiso   1.00
C141   C     0.81131   0.19764   0.41972   0.00000  Uiso   1.00
C142   C     0.99403   0.17789   0.23490   0.00000  Uiso   1.00
C143   C     0.67444   0.15767   0.26260   0.00000  Uiso   1.00
C144   C     0.84687   0.32271   0.23721   0.00000  Uiso   1.00
C145   C     0.81709   0.01251   0.26427   0.00000  Uiso   1.00
C146   C     0.82256   0.05619   0.26015   0.00000  Uiso   1.00
C147   C     0.84312   0.27798   0.24028   0.00000  Uiso   1.00
C148   C     0.81060   0.25254   0.48150   0.00000  Uiso   1.00
C149   C     0.85189   0.14779   0.12914   0.00000  Uiso   1.00
C150   C     0.81592   0.18570   0.37087   0.00000  Uiso   1.00
C151   C     0.85255   0.08565   0.02007   0.00000  Uiso   1.00
C152   C     0.85713   0.13887   0.08073   0.00000  Uiso   1.00
C153   C     0.80945   0.24010   0.43649   0.00000  Uiso   1.00
C154   C     0.88504   0.00947   0.20290   0.00000  Uiso   1.00
C155   C     0.77720   0.32985   0.29903   0.00000  Uiso   1.00
C156   C     0.80902   0.27225   0.40687   0.00000  Uiso   1.00
C157   C     0.80688   0.29641   0.00277   0.00000  Uiso   1.00
C158   C     0.78259   0.10372   0.40586   0.00000  Uiso   1.00
C159   C     0.81868   0.22435   0.00741   0.00000  Uiso   1.00
C160   C     0.68993   0.20390   0.19957   0.00000  Uiso   1.00
C161   C     0.82335   0.18280   0.49083   0.00000  Uiso   1.00
C162   C     0.81399   0.16814   0.44873   0.00000  Uiso   1.00
C163   C     0.83666   0.15526   0.01509   0.00000  Uiso   1.00
C164   C     0.83899   0.11335   0.49737   0.00000  Uiso   1.00
C165   C     0.82449   0.09840   0.45917   0.00000  Uiso   1.00
C166   C     0.80888   0.12449   0.43683   0.00000  Uiso   1.00
H167   H     0.86776   0.07548   0.08070   0.00000  Uiso   1.00
H168   H     0.75783   0.02191   0.31558   0.00000  Uiso   1.00
H169   H     0.75625   0.30640   0.28274   0.00000  Uiso   1.00
H170   H     0.78622   0.31676   0.32612   0.00000  Uiso   1.00
H171   H     0.78279   0.29094   0.41521   0.00000  Uiso   1.00
H172   H     0.80145   0.31779   0.48044   0.00000  Uiso   1.00
H173   H     0.77957   0.29609   0.03337   0.00000  Uiso   1.00
H174   H     0.83687   0.30937   0.01291   0.00000  Uiso   1.00
H175   H     0.78892   0.07356   0.38850   0.00000  Uiso   1.00
H176   H     0.67636   0.21961   0.17884   0.00000  Uiso   1.00
H177   H     0.98544   0.13897   0.28761   0.00000  Uiso   1.00
H178   H     0.82256   0.06546   0.44853   0.00000  Uiso   1.00
H179   H     0.85435   0.05363   0.00671   0.00000  Uiso   1.00
H180   H     0.84503   0.19842   0.07331   0.00000  Uiso   1.00
H181   H     0.82118   0.23624   0.04081   0.00000  Uiso   1.00
H182   H     0.90658   0.32027   0.18312   0.00000  Uiso   1.00
H183   H     0.87352   0.02424   0.17867   0.00000  Uiso   1.00
H184   H     0.90456   0.03339   0.22037   0.00000  Uiso   1.00
O185   O     0.83333   0.16667   0.25000   0.00000  Uiso   1.00
O186   O     0.82118   0.12637   0.15458   0.00000  Uiso   1.00
O187   O     0.79607   0.20391   0.34968   0.00000  Uiso   1.00
O188   O     0.87491   0.17759   0.14606   0.00000  Uiso   1.00
O189   O     0.84118   0.15880   0.34968   0.00000  Uiso   1.00
O190   O     0.83871   0.27883   0.37369   0.00000  Uiso   1.00
O191   O     0.75216   0.11888   0.40142   0.00000  Uiso   1.00
O192   O     0.72899   0.20823   0.19290   0.00000  Uiso   1.00
O193   O     0.84597   0.08019   0.28213   0.00000  Uiso   1.00
O194   O     0.81298   0.26085   0.27014   0.00000  Uiso   1.00
O195   O     0.74078   0.13291   0.23413   0.00000  Uiso   1.00
O196   O     0.93360   0.19272   0.21360   0.00000  Uiso   1.00
O197   O     0.73738   0.18878   0.28213   0.00000  Uiso   1.00
O198   O     0.92158   0.15226   0.27013   0.00000  Uiso   1.00
O199   O     0.80426   0.06944   0.23413   0.00000  Uiso   1.00
O200   O     0.87012   0.25620   0.21361   0.00000  Uiso   1.00
Zn201  Zn    0.86005   0.13994   0.28734   0.00000  Uiso   1.00
Zn202  Zn    0.80046   0.12458   0.21876   0.00000  Uiso   1.00
Zn203  Zn    0.87723   0.19775   0.20657   0.00000  Uiso   1.00
Zn204  Zn    0.79560   0.20439   0.28734   0.00000  Uiso   1.00
C205   C     0.05256   0.49237   0.26073   0.00000  Uiso   1.00
C206   C     0.18052   0.50096   0.05678   0.00000  Uiso   1.00
C207   C     0.19417   0.43150   0.06186   0.00000  Uiso   1.00
C208   C     0.28093   0.50741   0.23978   0.00000  Uiso   1.00
C209   C     0.14464   0.53097   0.41972   0.00000  Uiso   1.00
C210   C     0.32736   0.51122   0.23490   0.00000  Uiso   1.00
C211   C     0.00778   0.49100   0.26260   0.00000  Uiso   1.00
C212   C     0.18020   0.65604   0.23721   0.00000  Uiso   1.00
C213   C     0.15042   0.34585   0.26427   0.00000  Uiso   1.00
C214   C     0.15589   0.38953   0.26015   0.00000  Uiso   1.00
C215   C     0.17645   0.61132   0.24028   0.00000  Uiso   1.00
C216   C     0.14393   0.58587   0.48150   0.00000  Uiso   1.00
C217   C     0.18522   0.48112   0.12914   0.00000  Uiso   1.00
C218   C     0.14925   0.51903   0.37087   0.00000  Uiso   1.00
C219   C     0.18589   0.41899   0.02007   0.00000  Uiso   1.00
C220   C     0.19047   0.47220   0.08073   0.00000  Uiso   1.00
C221   C     0.14278   0.57343   0.43649   0.00000  Uiso   1.00
C222   C     0.21837   0.34280   0.20290   0.00000  Uiso   1.00
C223   C     0.11053   0.66319   0.29903   0.00000  Uiso   1.00
C224   C     0.14236   0.60559   0.40687   0.00000  Uiso   1.00
C225   C     0.14021   0.62975   0.00277   0.00000  Uiso   1.00
C226   C     0.11592   0.43706   0.40586   0.00000  Uiso   1.00
C227   C     0.15202   0.55769   0.00741   0.00000  Uiso   1.00
C228   C     0.02327   0.53723   0.19957   0.00000  Uiso   1.00
C229   C     0.15668   0.51613   0.49083   0.00000  Uiso   1.00
C230   C     0.14732   0.50147   0.44873   0.00000  Uiso   1.00
C231   C     0.16999   0.48859   0.01509   0.00000  Uiso   1.00
C232   C     0.17232   0.44668   0.49737   0.00000  Uiso   1.00
C233   C     0.15783   0.43174   0.45917   0.00000  Uiso   1.00
C234   C     0.14221   0.45783   0.43683   0.00000  Uiso   1.00
H235   H     0.20109   0.40881   0.08070   0.00000  Uiso   1.00
H236   H     0.09116   0.35524   0.31558   0.00000  Uiso   1.00
H237   H     0.08958   0.63973   0.28274   0.00000  Uiso   1.00
H238   H     0.11955   0.65009   0.32612   0.00000  Uiso   1.00
H239   H     0.11612   0.62427   0.41521   0.00000  Uiso   1.00
H240   H     0.13479   0.65113   0.48044   0.00000  Uiso   1.00
H241   H     0.11291   0.62942   0.03337   0.00000  Uiso   1.00
H242   H     0.17020   0.64270   0.01291   0.00000  Uiso   1.00
H243   H     0.12225   0.40689   0.38850   0.00000  Uiso   1.00
H244   H     0.00970   0.55294   0.17884   0.00000  Uiso   1.00
H245   H     0.31878   0.47231   0.28761   0.00000  Uiso   1.00
H246   H     0.15590   0.39880   0.44853   0.00000  Uiso   1.00
H247   H     0.18768   0.38697   0.00671   0.00000  Uiso   1.00
H248   H     0.17837   0.53175   0.07331   0.00000  Uiso   1.00
H249   H     0.15451   0.56958   0.04081   0.00000  Uiso   1.00
H250   H     0.23991   0.65361   0.18312   0.00000  Uiso   1.00
H251   H     0.20686   0.35757   0.17867   0.00000  Uiso   1.00
H252   H     0.23790   0.36673   0.22037   0.00000  Uiso   1.00
O253   O     0.16667   0.50000   0.25000   0.00000  Uiso   1.00
O254   O     0.15451   0.45970   0.15458   0.00000  Uiso   1.00
O255   O     0.12940   0.53724   0.34968   0.00000  Uiso   1.00
O256   O     0.20824   0.51092   0.14606   0.00000  Uiso   1.00
O257   O     0.17451   0.49213   0.34968   0.00000  Uiso   1.00
O258   O     0.17205   0.61217   0.37369   0.00000  Uiso   1.00
O259   O     0.08550   0.45221   0.40142   0.00000  Uiso   1.00
O260   O     0.06232   0.54156   0.19290   0.00000  Uiso   1.00
O261   O     0.17930   0.41352   0.28213   0.00000  Uiso   1.00
O262   O     0.14632   0.59418   0.27014   0.00000  Uiso   1.00
O263   O     0.07412   0.46625   0.23413   0.00000  Uiso   1.00
O264   O     0.26693   0.52605   0.21360   0.00000  Uiso   1.00
O265   O     0.07071   0.52211   0.28213   0.00000  Uiso   1.00
O266   O     0.25491   0.48559   0.27013   0.00000  Uiso   1.00
O267   O     0.13760   0.40277   0.23413   0.00000  Uiso   1.00
O268   O     0.20345   0.58953   0.21361   0.00000  Uiso   1.00
Zn269  Zn    0.19338   0.47327   0.28734   0.00000  Uiso   1.00
Zn270  Zn    0.13379   0.45791   0.21876   0.00000  Uiso   1.00
Zn271  Zn    0.21056   0.53109   0.20657   0.00000  Uiso   1.00
Zn272  Zn    0.12893   0.53773   0.28734   0.00000  Uiso   1.00
C273   C     0.38589   0.49237   0.26073   0.00000  Uiso   1.00
C274   C     0.51385   0.50096   0.05678   0.00000  Uiso   1.00
C275   C     0.52750   0.43150   0.06186   0.00000  Uiso   1.00
C276   C     0.61426   0.50741   0.23978   0.00000  Uiso   1.00
C277   C     0.47797   0.53097   0.41972   0.00000  Uiso   1.00
C278   C     0.66070   0.51122   0.23490   0.00000  Uiso   1.00
C279   C     0.34111   0.49100   0.26260   0.00000  Uiso   1.00
C280   C     0.51353   0.65604   0.23721   0.00000  Uiso   1.00
C281   C     0.48375   0.34585   0.26427   0.00000  Uiso   1.00
C282   C     0.48923   0.38953   0.26015   0.00000  Uiso   1.00
C283   C     0.50979   0.61132   0.24028   0.00000  Uiso   1.00
C284   C     0.47727   0.58587   0.48150   0.00000  Uiso   1.00
C285   C     0.51855   0.48112   0.12914   0.00000  Uiso   1.00
C286   C     0.48259   0.51903   0.37087   0.00000  Uiso   1.00
C287   C     0.51922   0.41899   0.02007   0.00000  Uiso   1.00
C288   C     0.52380   0.47220   0.08073   0.00000  Uiso   1.00
C289   C     0.47612   0.57343   0.43649   0.00000  Uiso   1.00
C290   C     0.55170   0.34280   0.20290   0.00000  Uiso   1.00
C291   C     0.44387   0.66319   0.29903   0.00000  Uiso   1.00
C292   C     0.47569   0.60559   0.40687   0.00000  Uiso   1.00
C293   C     0.47355   0.62975   0.00277   0.00000  Uiso   1.00
C294   C     0.44925   0.43706   0.40586   0.00000  Uiso   1.00
C295   C     0.48535   0.55769   0.00741   0.00000  Uiso   1.00
C296   C     0.35660   0.53723   0.19957   0.00000  Uiso   1.00
C297   C     0.49001   0.51613   0.49083   0.00000  Uiso   1.00
C298   C     0.48065   0.50147   0.44873   0.00000  Uiso   1.00
C299   C     0.50332   0.48859   0.01509   0.00000  Uiso   1.00
C300   C     0.50566   0.44668   0.49737   0.00000  Uiso   1.00
C301   C     0.49116   0.43174   0.45917   0.00000  Uiso   1.00
C302   C     0.47554   0.45783   0.43683   0.00000  Uiso   1.00
H303   H     0.53443   0.40881   0.08070   0.00000  Uiso   1.00
H304   H     0.42450   0.35524   0.31558   0.00000  Uiso   1.00
H305   H     0.42292   0.63973   0.28274   0.00000  Uiso   1.00
H306   H     0.45289   0.65009   0.32612   0.00000  Uiso   1.00
H307   H     0.44946   0.62427   0.41521   0.00000  Uiso   1.00
H308   H     0.46812   0.65113   0.48044   0.00000  Uiso   1.00
H309   H     0.44624   0.62942   0.03337   0.00000  Uiso   1.00
H310   H     0.50354   0.64270   0.01291   0.00000  Uiso   1.00
H311   H     0.45559   0.40689   0.38850   0.00000  Uiso   1.00
H312   H     0.34303   0.55294   0.17884   0.00000  Uiso   1.00
H313   H     0.65211   0.47231   0.28761   0.00000  Uiso   1.00
H314   H     0.48923   0.39880   0.44853   0.00000  Uiso   1.00
H315   H     0.52102   0.38697   0.00671   0.00000  Uiso   1.00
H316   H     0.51170   0.53175   0.07331   0.00000  Uiso   1.00
H317   H     0.48785   0.56958   0.04081   0.00000  Uiso   1.00
H318   H     0.57325   0.65361   0.18312   0.00000  Uiso   1.00
H319   H     0.54019   0.35757   0.17867   0.00000  Uiso   1.00
H320   H     0.57123   0.36673   0.22037   0.00000  Uiso   1.00
O321   O     0.50000   0.50000   0.25000   0.00000  Uiso   1.00
O322   O     0.48784   0.45970   0.15458   0.00000  Uiso   1.00
O323   O     0.46274   0.53724   0.34968   0.00000  Uiso   1.00
O324   O     0.54157   0.51092   0.14606   0.00000  Uiso   1.00
O325   O     0.50785   0.49213   0.34968   0.00000  Uiso   1.00
O326   O     0.50538   0.61217   0.37369   0.00000  Uiso   1.00
O327   O     0.41883   0.45221   0.40142   0.00000  Uiso   1.00
O328   O     0.39566   0.54156   0.19290   0.00000  Uiso   1.00
O329   O     0.51264   0.41352   0.28213   0.00000  Uiso   1.00
O330   O     0.47965   0.59418   0.27014   0.00000  Uiso   1.00
O331   O     0.40745   0.46625   0.23413   0.00000  Uiso   1.00
O332   O     0.60026   0.52605   0.21360   0.00000  Uiso   1.00
O333   O     0.40405   0.52211   0.28213   0.00000  Uiso   1.00
O334   O     0.58824   0.48559   0.27013   0.00000  Uiso   1.00
O335   O     0.47093   0.40277   0.23413   0.00000  Uiso   1.00
O336   O     0.53678   0.58953   0.21361   0.00000  Uiso   1.00
Zn337  Zn    0.52672   0.47327   0.28734   0.00000  Uiso   1.00
Zn338  Zn    0.46713   0.45791   0.21876   0.00000  Uiso   1.00
Zn339  Zn    0.54389   0.53109   0.20657   0.00000  Uiso   1.00
Zn340  Zn    0.46226   0.53773   0.28734   0.00000  Uiso   1.00
C341   C     0.71922   0.49237   0.26073   0.00000  Uiso   1.00
C342   C     0.84718   0.50096   0.05678   0.00000  Uiso   1.00
C343   C     0.86083   0.43150   0.06186   0.00000  Uiso   1.00
C344   C     0.94760   0.50741   0.23978   0.00000  Uiso   1.00
C345   C     0.81131   0.53097   0.41972   0.00000  Uiso   1.00
C346   C     0.99403   0.51122   0.23490   0.00000  Uiso   1.00
C347   C     0.67444   0.49100   0.26260   0.00000  Uiso   1.00
C348   C     0.84687   0.65604   0.23721   0.00000  Uiso   1.00
C349   C     0.81709   0.34585   0.26427   0.00000  Uiso   1.00
C350   C     0.82256   0.38953   0.26015   0.00000  Uiso   1.00
C351   C     0.84312   0.61132   0.24028   0.00000  Uiso   1.00
C352   C     0.81060   0.58587   0.48150   0.00000  Uiso   1.00
C353   C     0.85189   0.48112   0.12914   0.00000  Uiso   1.00
C354   C     0.81592   0.51903   0.37087   0.00000  Uiso   1.00
C355   C     0.85255   0.41899   0.02007   0.00000  Uiso   1.00
C356   C     0.85713   0.47220   0.08073   0.00000  Uiso   1.00
C357   C     0.80945   0.57343   0.43649   0.00000  Uiso   1.00
C358   C     0.88504   0.34280   0.20290   0.00000  Uiso   1.00
C359   C     0.77720   0.66319   0.29903   0.00000  Uiso   1.00
C360   C     0.80902   0.60559   0.40687   0.00000  Uiso   1.00
C361   C     0.80688   0.62975   0.00277   0.00000  Uiso   1.00
C362   C     0.78259   0.43706   0.40586   0.00000  Uiso   1.00
C363   C     0.81868   0.55769   0.00741   0.00000  Uiso   1.00
C364   C     0.68993   0.53723   0.19957   0.00000  Uiso   1.00
C365   C     0.82335   0.51613   0.49083   0.00000  Uiso   1.00
C366   C     0.81399   0.50147   0.44873   0.00000  Uiso   1.00
C367   C     0.83666   0.48859   0.01509   0.00000  Uiso   1.00
C368   C     0.83899   0.44668   0.49737   0.00000  Uiso   1.00
C369   C     0.82449   0.43174   0.45917   0.00000  Uiso   1.00
C370   C     0.80888   0.45783   0.43683   0.00000  Uiso   1.00
H371   H     0.86776   0.40881   0.08070   0.00000  Uiso   1.00
H372   H     0.75783   0.35524   0.31558   0.00000  Uiso   1.00
H373   H     0.75625   0.63973   0.28274   0.00000  Uiso   1.00
H374   H     0.78622   0.65009   0.32612   0.00000  Uiso   1.00
H375   H     0.78279   0.62427   0.41521   0.00000  Uiso   1.00
H376   H     0.80145   0.65113   0.48044   0.00000  Uiso   1.00
H377   H     0.77957   0.62942   0.03337   0.00000  Uiso   1.00
H378   H     0.83687   0.64270   0.01291   0.00000  Uiso   1.00
H379   H     0.78892   0.40689   0.38850   0.00000  Uiso   1.00
H380   H     0.67636   0.55294   0.17884   0.00000  Uiso   1.00
H381   H     0.98544   0.47231   0.28761   0.00000  Uiso   1.00
H382   H     0.82256   0.39880   0.44853   0.00000  Uiso   1.00
H383   H     0.85435   0.38697   0.00671   0.00000  Uiso   1.00
H384   H     0.84503   0.53175   0.07331   0.00000  Uiso   1.00
H385   H     0.82118   0.56958   0.04081   0.00000  Uiso   1.00
H386   H     0.90658   0.65361   0.18312   0.00000  Uiso   1.00
H387   H     0.87352   0.35757   0.17867   0.00000  Uiso   1.00
H388   H     0.90456   0.36673   0.22037   0.00000  Uiso   1.00
O389   O     0.83333   0.50000   0.25000   0.00000  Uiso   1.00
O390   O     0.82118   0.45970   0.15458   0.00000  Uiso   1.00
O391   O     0.79607   0.53724   0.34968   0.00000  Uiso   1.00
O392   O     0.87491   0.51092   0.14606   0.00000  Uiso   1.00
O393   O     0.84118   0.49213   0.34968   0.00000  Uiso   1.00
O394   O     0.83871   0.61217   0.37369   0.00000  Uiso   1.00
O395   O     0.75216   0.45221   0.40142   0.00000  Uiso   1.00
O396   O     0.72899   0.54156   0.19290   0.00000  Uiso   1.00
O397   O     0.84597   0.41352   0.28213   0.00000  Uiso   1.00
O398   O     0.81298   0.59418   0.27014   0.00000  Uiso   1.00
O399   O     0.74078   0.46625   0.23413   0.00000  Uiso   1.00
O400   O     0.93360   0.52605   0.21360   0.00000  Uiso   1.00
O401   O     0.73738   0.52211   0.28213   0.00000  Uiso   1.00
O402   O     0.92158   0.48559   0.27013   0.00000  Uiso   1.00
O403   O     0.80426   0.40277   0.23413   0.00000  Uiso   1.00
O404   O     0.87012   0.58953   0.21361   0.00000  Uiso   1.00
Zn405  Zn    0.86005   0.47327   0.28734   0.00000  Uiso   1.00
Zn406  Zn    0.80046   0.45791   0.21876   0.00000  Uiso   1.00
Zn407  Zn    0.87723   0.53109   0.20657   0.00000  Uiso   1.00
Zn408  Zn    0.79560   0.53773   0.28734   0.00000  Uiso   1.00
C409   C     0.05256   0.82570   0.26073   0.00000  Uiso   1.00
C410   C     0.18052   0.83429   0.05678   0.00000  Uiso   1.00
C411   C     0.19417   0.76484   0.06186   0.00000  Uiso   1.00
C412   C     0.28093   0.84074   0.23978   0.00000  Uiso   1.00
C413   C     0.14464   0.86431   0.41972   0.00000  Uiso   1.00
C414   C     0.32736   0.84455   0.23490   0.00000  Uiso   1.00
C415   C     0.00778   0.82433   0.26260   0.00000  Uiso   1.00
C416   C     0.18020   0.98937   0.23721   0.00000  Uiso   1.00
C417   C     0.15042   0.67918   0.26427   0.00000  Uiso   1.00
C418   C     0.15589   0.72286   0.26015   0.00000  Uiso   1.00
C419   C     0.17645   0.94465   0.24028   0.00000  Uiso   1.00
C420   C     0.14393   0.91920   0.48150   0.00000  Uiso   1.00
C421   C     0.18522   0.81445   0.12914   0.00000  Uiso   1.00
C422   C     0.14925   0.85236   0.37087   0.00000  Uiso   1.00
C423   C     0.18589   0.75232   0.02007   0.00000  Uiso   1.00
C424   C     0.19047   0.80553   0.08073   0.00000  Uiso   1.00
C425   C     0.14278   0.90677   0.43649   0.00000  Uiso   1.00
C426   C     0.21837   0.67613   0.20290   0.00000  Uiso   1.00
C427   C     0.11053   0.99652   0.29903   0.00000  Uiso   1.00
C428   C     0.14236   0.93892   0.40687   0.00000  Uiso   1.00
C429   C     0.14021   0.96308   0.00277   0.00000  Uiso   1.00
C430   C     0.11592   0.77039   0.40586   0.00000  Uiso   1.00
C431   C     0.15202   0.89102   0.00741   0.00000  Uiso   1.00
C432   C     0.02327   0.87056   0.19957   0.00000  Uiso   1.00
C433   C     0.15668   0.84946   0.49083   0.00000  Uiso   1.00
C434   C     0.14732   0.83481   0.44873   0.00000  Uiso   1.00
C435   C     0.16999   0.82192   0.01509   0.00000  Uiso   1.00
C436   C     0.17232   0.78001   0.49737   0.00000  Uiso   1.00
C437   C     0.15783   0.76507   0.45917   0.00000  Uiso   1.00
C438   C     0.14221   0.79116   0.43683   0.00000  Uiso   1.00
H439   H     0.20109   0.74215   0.08070   0.00000  Uiso   1.00
H440   H     0.09116   0.68858   0.31558   0.00000  Uiso   1.00
H441   H     0.08958   0.97307   0.28274   0.00000  Uiso   1.00
H442   H     0.11955   0.98342   0.32612   0.00000  Uiso   1.00
H443   H     0.11612   0.95760   0.41521   0.00000  Uiso   1.00
H444   H     0.13479   0.98446   0.48044   0.00000  Uiso   1.00
H445   H     0.11291   0.96276   0.03337   0.00000  Uiso   1.00
H446   H     0.17020   0.97603   0.01291   0.00000  Uiso   1.00
H447   H     0.12225   0.74023   0.38850   0.00000  Uiso   1.00
H448   H     0.00970   0.88628   0.17884   0.00000  Uiso   1.00
H449   H     0.31878   0.80564   0.28761   0.00000  Uiso   1.00
H450   H     0.15590   0.73213   0.44853   0.00000  Uiso   1.00
H451   H     0.18768   0.72030   0.00671   0.00000  Uiso   1.00
H452   H     0.17837   0.86509   0.07331   0.00000  Uiso   1.00
H453   H     0.15451   0.90291   0.04081   0.00000  Uiso   1.00
H454   H     0.23991   0.98694   0.18312   0.00000  Uiso   1.00
H455   H     0.20686   0.69090   0.17867   0.00000  Uiso   1.00
H456   H     0.23790   0.70006   0.22037   0.00000  Uiso   1.00
O457   O     0.16667   0.83333   0.25000   0.00000  Uiso   1.00
O458   O     0.15451   0.79304   0.15458   0.00000  Uiso   1.00
O459   O     0.12940   0.87058   0.34968   0.00000  Uiso   1.00
O460   O     0.20824   0.84425   0.14606   0.00000  Uiso   1.00
O461   O     0.17451   0.82546   0.34968   0.00000  Uiso   1.00
O462   O     0.17205   0.94550   0.37369   0.00000  Uiso   1.00
O463   O     0.08550   0.78555   0.40142   0.00000  Uiso   1.00
O464   O     0.06232   0.87489   0.19290   0.00000  Uiso   1.00
O465   O     0.17930   0.74686   0.28213   0.00000  Uiso   1.00
O466   O     0.14632   0.92751   0.27014   0.00000  Uiso   1.00
O467   O     0.07412   0.79958   0.23413   0.00000  Uiso   1.00
O468   O     0.26693   0.85939   0.21360   0.00000  Uiso   1.00
O469   O     0.07071   0.85544   0.28213   0.00000  Uiso   1.00
O470   O     0.25491   0.81892   0.27013   0.00000  Uiso   1.00
O471   O     0.13760   0.73610   0.23413   0.00000  Uiso   1.00
O472   O     0.20345   0.92286   0.21361   0.00000  Uiso   1.00
Zn473  Zn    0.19338   0.80661   0.28734   0.00000  Uiso   1.00
Zn474  Zn    0.13379   0.79124   0.21876   0.00000  Uiso   1.00
Zn475  Zn    0.21056   0.86442   0.20657   0.00000  Uiso   1.00
Zn476  Zn    0.12893   0.87106   0.28734   0.00000  Uiso   1.00
C477   C     0.38589   0.82570   0.26073   0.00000  Uiso   1.00
C478   C     0.51385   0.83429   0.05678   0.00000  Uiso   1.00
C479   C     0.52750   0.76484   0.06186   0.00000  Uiso   1.00
C480   C     0.61426   0.84074   0.23978   0.00000  Uiso   1.00
C481   C     0.47797   0.86431   0.41972   0.00000  Uiso   1.00
C482   C     0.66070   0.84455   0.23490   0.00000  Uiso   1.00
C483   C     0.34111   0.82433   0.26260   0.00000  Uiso   1.00
C484   C     0.51353   0.98937   0.23721   0.00000  Uiso   1.00
C485   C     0.48375   0.67918   0.26427   0.00000  Uiso   1.00
C486   C     0.48923   0.72286   0.26015   0.00000  Uiso   1.00
C487   C     0.50979   0.94465   0.24028   0.00000  Uiso   1.00
C488   C     0.47727   0.91920   0.48150   0.00000  Uiso   1.00
C489   C     0.51855   0.81445   0.12914   0.00000  Uiso   1.00
C490   C     0.48259   0.85236   0.37087   0.00000  Uiso   1.00
C491   C     0.51922   0.75232   0.02007   0.00000  Uiso   1.00
C492   C     0.52380   0.80553   0.08073   0.00000  Uiso   1.00
C493   C     0.47612   0.90677   0.43649   0.00000  Uiso   1.00
C494   C     0.55170   0.67613   0.20290   0.00000  Uiso   1.00
C495   C     0.44387   0.99652   0.29903   0.00000  Uiso   1.00
C496   C     0.47569   0.93892   0.40687   0.00000  Uiso   1.00
C497   C     0.47355   0.96308   0.00277   0.00000  Uiso   1.00
C498   C     0.44925   0.77039   0.40586   0.00000  Uiso   1.00
C499   C     0.48535   0.89102   0.00741   0.00000  Uiso   1.00
C500   C     0.35660   0.87056   0.19957   0.00000  Uiso   1.00
C501   C     0.49001   0.84946   0.49083   0.00000  Uiso   1.00
C502   C     0.48065   0.83481   0.44873   0.00000  Uiso   1.00
C503   C     0.50332   0.82192   0.01509   0.00000  Uiso   1.00
C504   C     0.50566   0.78001   0.49737   0.00000  Uiso   1.00
C505   C     0.49116   0.76507   0.45917   0.00000  Uiso   1.00
C506   C     0.47554   0.79116   0.43683   0.00000  Uiso   1.00
H507   H     0.53443   0.74215   0.08070   0.00000  Uiso   1.00
H508   H     0.42450   0.68858   0.31558   0.00000  Uiso   1.00
H509   H     0.42292   0.97307   0.28274   0.00000  Uiso   1.00
H510   H     0.45289   0.98342   0.32612   0.00000  Uiso   1.00
H511   H     0.44946   0.95760   0.41521   0.00000  Uiso   1.00
H512   H     0.46812   0.98446   0.48044   0.00000  Uiso   1.00
H513   H     0.44624   0.96276   0.03337   0.00000  Uiso   1.00
H514   H     0.50354   0.97603   0.01291   0.00000  Uiso   1.00
H515   H     0.45559   0.74023   0.38850   0.00000  Uiso   1.00
H516   H     0.34303   0.88628   0.17884   0.00000  Uiso   1.00
H517   H     0.65211   0.80564   0.28761   0.00000  Uiso   1.00
H518   H     0.48923   0.73213   0.44853   0.00000  Uiso   1.00
H519   H     0.52102   0.72030   0.00671   0.00000  Uiso   1.00
H520   H     0.51170   0.86509   0.07331   0.00000  Uiso   1.00
H521   H     0.48785   0.90291   0.04081   0.00000  Uiso   1.00
H522   H     0.57325   0.98694   0.18312   0.00000  Uiso   1.00
H523   H     0.54019   0.69090   0.17867   0.00000  Uiso   1.00
H524   H     0.57123   0.70006   0.22037   0.00000  Uiso   1.00
O525   O     0.50000   0.83333   0.25000   0.00000  Uiso   1.00
O526   O     0.48784   0.79304   0.15458   0.00000  Uiso   1.00
O527   O     0.46274   0.87058   0.34968   0.00000  Uiso   1.00
O528   O     0.54157   0.84425   0.14606   0.00000  Uiso   1.00
O529   O     0.50785   0.82546   0.34968   0.00000  Uiso   1.00
O530   O     0.50538   0.94550   0.37369   0.00000  Uiso   1.00
O531   O     0.41883   0.78555   0.40142   0.00000  Uiso   1.00
O532   O     0.39566   0.87489   0.19290   0.00000  Uiso   1.00
O533   O     0.51264   0.74686   0.28213   0.00000  Uiso   1.00
O534   O     0.47965   0.92751   0.27014   0.00000  Uiso   1.00
O535   O     0.40745   0.79958   0.23413   0.00000  Uiso   1.00
O536   O     0.60026   0.85939   0.21360   0.00000  Uiso   1.00
O537   O     0.40405   0.85544   0.28213   0.00000  Uiso   1.00
O538   O     0.58824   0.81892   0.27013   0.00000  Uiso   1.00
O539   O     0.47093   0.73610   0.23413   0.00000  Uiso   1.00
O540   O     0.53678   0.92286   0.21361   0.00000  Uiso   1.00
Zn541  Zn    0.52672   0.80661   0.28734   0.00000  Uiso   1.00
Zn542  Zn    0.46713   0.79124   0.21876   0.00000  Uiso   1.00
Zn543  Zn    0.54389   0.86442   0.20657   0.00000  Uiso   1.00
Zn544  Zn    0.46226   0.87106   0.28734   0.00000  Uiso   1.00
C545   C     0.71922   0.82570   0.26073   0.00000  Uiso   1.00
C546   C     0.84718   0.83429   0.05678   0.00000  Uiso   1.00
C547   C     0.86083   0.76484   0.06186   0.00000  Uiso   1.00
C548   C     0.94760   0.84074   0.23978   0.00000  Uiso   1.00
C549   C     0.81131   0.86431   0.41972   0.00000  Uiso   1.00
C550   C     0.99403   0.84455   0.23490   0.00000  Uiso   1.00
C551   C     0.67444   0.82433   0.26260   0.00000  Uiso   1.00
C552   C     0.84687   0.98937   0.23721   0.00000  Uiso   1.00
C553   C     0.81709   0.67918   0.26427   0.00000  Uiso   1.00
C554   C     0.82256   0.72286   0.26015   0.00000  Uiso   1.00
C555   C     0.84312   0.94465   0.24028   0.00000  Uiso   1.00
C556   C     0.81060   0.91920   0.48150   0.00000  Uiso   1.00
C557   C     0.85189   0.81445   0.12914   0.00000  Uiso   1.00
C558   C     0.81592   0.85236   0.37087   0.00000  Uiso   1.00
C559   C     0.85255   0.75232   0.02007   0.00000  Uiso   1.00
C560   C     0.85713   0.80553   0.08073   0.00000  Uiso   1.00
C561   C     0.80945   0.90677   0.43649   0.00000  Uiso   1.00
C562   C     0.88504   0.67613   0.20290   0.00000  Uiso   1.00
C563   C     0.77720   0.99652   0.29903   0.00000  Uiso   1.00
C564   C     0.80902   0.93892   0.40687   0.00000  Uiso   1.00
C565   C     0.80688   0.96308   0.00277   0.00000  Uiso   1.00
C566   C     0.78259   0.77039   0.40586   0.00000  Uiso   1.00
C567   C     0.81868   0.89102   0.00741   0.00000  Uiso   1.00
C568   C     0.68993   0.87056   0.19957   0.00000  Uiso   1.00
C569   C     0.82335   0.84946   0.49083   0.00000  Uiso   1.00
C570   C     0.81399   0.83481   0.44873   0.00000  Uiso   1.00
C571   C     0.83666   0.82192   0.01509   0.00000  Uiso   1.00
C572   C     0.83899   0.78001   0.49737   0.00000  Uiso   1.00
C573   C     0.82449   0.76507   0.45917   0.00000  Uiso   1.00
C574   C     0.80888   0.79116   0.43683   0.00000  Uiso   1.00
H575   H     0.86776   0.74215   0.08070   0.00000  Uiso   1.00
H576   H     0.75783   0.68858   0.31558   0.00000  Uiso   1.00
H577   H     0.75625   0.97307   0.28274   0.00000  Uiso   1.00
H578   H     0.78622   0.98342   0.32612   0.00000  Uiso   1.00
H579   H     0.78279   0.95760   0.41521   0.00000  Uiso   1.00
H580   H     0.80145   0.98446   0.48044   0.00000  Uiso   1.00
H581   H     0.77957   0.96276   0.03337   0.00000  Uiso   1.00
H582   H     0.83687   0.97603   0.01291   0.00000  Uiso   1.00
H583   H     0.78892   0.74023   0.38850   0.00000  Uiso   1.00
H584   H     0.67636   0.88628   0.17884   0.00000  Uiso   1.00
H585   H     0.98544   0.80564   0.28761   0.00000  Uiso   1.00
H586   H     0.82256   0.73213   0.44853   0.00000  Uiso   1.00
H587   H     0.85435   0.72030   0.00671   0.00000  Uiso   1.00
H588   H     0.84503   0.86509   0.07331   0.00000  Uiso   1.00
H589   H     0.82118   0.90291   0.04081   0.00000  Uiso   1.00
H590   H     0.90658   0.98694   0.18312   0.00000  Uiso   1.00
H591   H     0.87352   0.69090   0.17867   0.00000  Uiso   1.00
H592   H     0.90456   0.70006   0.22037   0.00000  Uiso   1.00
O593   O     0.83333   0.83333   0.25000   0.00000  Uiso   1.00
O594   O     0.82118   0.79304   0.15458   0.00000  Uiso   1.00
O595   O     0.79607   0.87058   0.34968   0.00000  Uiso   1.00
O596   O     0.87491   0.84425   0.14606   0.00000  Uiso   1.00
O597   O     0.84118   0.82546   0.34968   0.00000  Uiso   1.00
O598   O     0.83871   0.94550   0.37369   0.00000  Uiso   1.00
O599   O     0.75216   0.78555   0.40142   0.00000  Uiso   1.00
O600   O     0.72899   0.87489   0.19290   0.00000  Uiso   1.00
O601   O     0.84597   0.74686   0.28213   0.00000  Uiso   1.00
O602   O     0.81298   0.92751   0.27014   0.00000  Uiso   1.00
O603   O     0.74078   0.79958   0.23413   0.00000  Uiso   1.00
O604   O     0.93360   0.85939   0.21360   0.00000  Uiso   1.00
O605   O     0.73738   0.85544   0.28213   0.00000  Uiso   1.00
O606   O     0.92158   0.81892   0.27013   0.00000  Uiso   1.00
O607   O     0.80426   0.73610   0.23413   0.00000  Uiso   1.00
O608   O     0.87012   0.92286   0.21361   0.00000  Uiso   1.00
Zn609  Zn    0.86005   0.80661   0.28734   0.00000  Uiso   1.00
Zn610  Zn    0.80046   0.79124   0.21876   0.00000  Uiso   1.00
Zn611  Zn    0.87723   0.86442   0.20657   0.00000  Uiso   1.00
Zn612  Zn    0.79560   0.87106   0.28734   0.00000  Uiso   1.00
C613   C     0.05256   0.15904   0.76073   0.00000  Uiso   1.00
C614   C     0.18052   0.16763   0.55678   0.00000  Uiso   1.00
C615   C     0.19417   0.09817   0.56186   0.00000  Uiso   1.00
C616   C     0.28093   0.17407   0.73978   0.00000  Uiso   1.00
C617   C     0.14464   0.19764   0.91972   0.00000  Uiso   1.00
C618   C     0.32736   0.17789   0.73490   0.00000  Uiso   1.00
C619   C     0.00778   0.15767   0.76260   0.00000  Uiso   1.00
C620   C     0.18020   0.32271   0.73721   0.00000  Uiso   1.00
C621   C     0.15042   0.01251   0.76427   0.00000  Uiso   1.00
C622   C     0.15589   0.05619   0.76015   0.00000  Uiso   1.00
C623   C     0.17645   0.27798   0.74028   0.00000  Uiso   1.00
C624   C     0.14393   0.25254   0.98150   0.00000  Uiso   1.00
C625   C     0.18522   0.14779   0.62914   0.00000  Uiso   1.00
C626   C     0.14925   0.18570   0.87087   0.00000  Uiso   1.00
C627   C     0.18589   0.08565   0.52007   0.00000  Uiso   1.00
C628   C     0.19047   0.13887   0.58073   0.00000  Uiso   1.00
C629   C     0.14278   0.24010   0.93649   0.00000  Uiso   1.00
C630   C     0.21837   0.00947   0.70290   0.00000  Uiso   1.00
C631   C     0.11053   0.32985   0.79903   0.00000  Uiso   1.00
C632   C     0.14236   0.27225   0.90687   0.00000  Uiso   1.00
C633   C     0.14021   0.29641   0.50277   0.00000  Uiso   1.00
C634   C     0.11592   0.10372   0.90586   0.00000  Uiso   1.00
C635   C     0.15202   0.22435   0.50741   0.00000  Uiso   1.00
C636   C     0.02327   0.20390   0.69957   0.00000  Uiso   1.00
C637   C     0.15668   0.18280   0.99083   0.00000  Uiso   1.00
C638   C     0.14732   0.16814   0.94873   0.00000  Uiso   1.00
C639   C     0.16999   0.15526   0.51509   0.00000  Uiso   1.00
C640   C     0.17232   0.11335   0.99737   0.00000  Uiso   1.00
C641   C     0.15783   0.09840   0.95917   0.00000  Uiso   1.00
C642   C     0.14221   0.12449   0.93683   0.00000  Uiso   1.00
H643   H     0.20109   0.07548   0.58070   0.00000  Uiso   1.00
H644   H     0.09116   0.02191   0.81558   0.00000  Uiso   1.00
H645   H     0.08958   0.30640   0.78274   0.00000  Uiso   1.00
H646   H     0.11955   0.31676   0.82612   0.00000  Uiso   1.00
H647   H     0.11612   0.29094   0.91521   0.00000  Uiso   1.00
H648   H     0.13479   0.31779   0.98044   0.00000  Uiso   1.00
H649   H     0.11291   0.29609   0.53337   0.00000  Uiso   1.00
H650   H     0.17020   0.30937   0.51291   0.00000  Uiso   1.00
H651   H     0.12225   0.07356   0.88850   0.00000  Uiso   1.00
H652   H     0.00970   0.21961   0.67884   0.00000  Uiso   1.00
H653   H     0.31878   0.13897   0.78761   0.00000  Uiso   1.00
H654   H     0.15590   0.06546   0.94853   0.00000  Uiso   1.00
H655   H     0.18768   0.05363   0.50671   0.00000  Uiso   1.00
H656   H     0.17837   0.19842   0.57331   0.00000  Uiso   1.00
H657   H     0.15451   0.23624   0.54081   0.00000  Uiso   1.00
H658   H     0.23991   0.32027   0.68312   0.00000  Uiso   1.00
H659   H     0.20686   0.02424   0.67867   0.00000  Uiso   1.00
H660   H     0.23790   0.03339   0.72037   0.00000  Uiso   1.00
O661   O     0.16667   0.16667   0.75000   0.00000  Uiso   1.00
O662   O     0.15451   0.12637   0.65458   0.00000  Uiso   1.00
O663   O     0.12940   0.20391   0.84968   0.00000  Uiso   1.00
O664   O     0.20824   0.17759   0.64606   0.00000  Uiso   1.00
O665   O     0.17451   0.15880   0.84968   0.00000  Uiso   1.00
O666   O     0.17205   0.27883   0.87369   0.00000  Uiso   1.00
O667   O     0.08550   0.11888   0.90142   0.00000  Uiso   1.00
O668   O     0.06232   0.20823   0.69290   0.00000  Uiso   1.00
O669   O     0.17930   0.08019   0.78213   0.00000  Uiso   1.00
O670   O     0.14632   0.26085   0.77014   0.00000  Uiso   1.00
O671   O     0.07412   0.13291   0.73413   0.00000  Uiso   1.00
O672   O     0.26693   0.19272   0.71360   0.00000  Uiso   1.00
O673   O     0.07071   0.18878   0.78213   0.00000  Uiso   1.00
O674   O     0.25491   0.15226   0.77013   0.00000  Uiso   1.00
O675   O     0.13760   0.06944   0.73413   0.00000  Uiso   1.00
O676   O     0.20345   0.25620   0.71361   0.00000  Uiso   1.00
Zn677  Zn    0.19338   0.13994   0.78734   0.00000  Uiso   1.00
Zn678  Zn    0.13379   0.12458   0.71876   0.00000  Uiso   1.00
Zn679  Zn    0.21056   0.19775   0.70657   0.00000  Uiso   1.00
Zn680  Zn    0.12893   0.20439   0.78734   0.00000  Uiso   1.00
C681   C     0.38589   0.15904   0.76073   0.00000  Uiso   1.00
C682   C     0.51385   0.16763   0.55678   0.00000  Uiso   1.00
C683   C     0.52750   0.09817   0.56186   0.00000  Uiso   1.00
C684   C     0.61426   0.17407   0.73978   0.00000  Uiso   1.00
C685   C     0.47797   0.19764   0.91972   0.00000  Uiso   1.00
C686   C     0.66070   0.17789   0.73490   0.00000  Uiso   1.00
C687   C     0.34111   0.15767   0.76260   0.00000  Uiso   1.00
C688   C     0.51353   0.32271   0.73721   0.00000  Uiso   1.00
C689   C     0.48375   0.01251   0.76427   0.00000  Uiso   1.00
C690   C     0.48923   0.05619   0.76015   0.00000  Uiso   1.00
C691   C     0.50979   0.27798   0.74028   0.00000  Uiso   1.00
C692   C     0.47727   0.25254   0.98150   0.00000  Uiso   1.00
C693   C     0.51855   0.14779   0.62914   0.00000  Uiso   1.00
C694   C     0.48259   0.18570   0.87087   0.00000  Uiso   1.00
C695   C     0.51922   0.08565   0.52007   0.00000  Uiso   1.00
C696   C     0.52380   0.13887   0.58073   0.00000  Uiso   1.00
C697   C     0.47612   0.24010   0.93649   0.00000  Uiso   1.00
C698   C     0.55170   0.00947   0.70290   0.00000  Uiso   1.00
C699   C     0.44387   0.32985   0.79903   0.00000  Uiso   1.00
C700   C     0.47569   0.27225   0.90687   0.00000  Uiso   1.00
C701   C     0.47355   0.29641   0.50277   0.00000  Uiso   1.00
C702   C     0.44925   0.10372   0.90586   0.00000  Uiso   1.00
C703   C     0.48535   0.22435   0.50741   0.00000  Uiso   1.00
C704   C     0.35660   0.20390   0.69957   0.00000  Uiso   1.00
C705   C     0.49001   0.18280   0.99083   0.00000  Uiso   1.00
C706   C     0.48065   0.16814   0.94873   0.00000  Uiso   1.00
C707   C     0.50332   0.15526   0.51509   0.00000  Uiso   1.00
C708   C     0.50566   0.11335   0.99737   0.00000  Uiso   1.00
C709   C     0.49116   0.09840   0.95917   0.00000  Uiso   1.00
C710   C     0.47554   0.12449   0.93683   0.00000  Uiso   1.00
H711   H     0.53443   0.07548   0.58070   0.00000  Uiso   1.00
H712   H     0.42450   0.02191   0.81558   0.00000  Uiso   1.00
H713   H     0.42292   0.30640   0.78274   0.00000  Uiso   1.00
H714   H     0.45289   0.31676   0.82612   0.00000  Uiso   1.00
H715   H     0.44946   0.29094   0.91521   0.00000  Uiso   1.00
H716   H     0.46812   0.31779   0.98044   0.00000  Uiso   1.00
H717   H     0.44624   0.29609   0.53337   0.00000  Uiso   1.00
H718   H     0.50354   0.30937   0.51291   0.00000  Uiso   1.00
H719   H     0.45559   0.07356   0.88850   0.00000  Uiso   1.00
H720   H     0.34303   0.21961   0.67884   0.00000  Uiso   1.00
H721   H     0.65211   0.13897   0.78761   0.00000  Uiso   1.00
H722   H     0.48923   0.06546   0.94853   0.00000  Uiso   1.00
H723   H     0.52102   0.05363   0.50671   0.00000  Uiso   1.00
H724   H     0.51170   0.19842   0.57331   0.00000  Uiso   1.00
H725   H     0.48785   0.23624   0.54081   0.00000  Uiso   1.00
H726   H     0.57325   0.32027   0.68312   0.00000  Uiso   1.00
H727   H     0.54019   0.02424   0.67867   0.00000  Uiso   1.00
H728   H     0.57123   0.03339   0.72037   0.00000  Uiso   1.00
O729   O     0.50000   0.16667   0.75000   0.00000  Uiso   1.00
O730   O     0.48784   0.12637   0.65458   0.00000  Uiso   1.00
O731   O     0.46274   0.20391   0.84968   0.00000  Uiso   1.00
O732   O     0.54157   0.17759   0.64606   0.00000  Uiso   1.00
O733   O     0.50785   0.15880   0.84968   0.00000  Uiso   1.00
O734   O     0.50538   0.27883   0.87369   0.00000  Uiso   1.00
O735   O     0.41883   0.11888   0.90142   0.00000  Uiso   1.00
O736   O     0.39566   0.20823   0.69290   0.00000  Uiso   1.00
O737   O     0.51264   0.08019   0.78213   0.00000  Uiso   1.00
O738   O     0.47965   0.26085   0.77014   0.00000  Uiso   1.00
O739   O     0.40745   0.13291   0.73413   0.00000  Uiso   1.00
O740   O     0.60026   0.19272   0.71360   0.00000  Uiso   1.00
O741   O     0.40405   0.18878   0.78213   0.00000  Uiso   1.00
O742   O     0.58824   0.15226   0.77013   0.00000  Uiso   1.00
O743   O     0.47093   0.06944   0.73413   0.00000  Uiso   1.00
O744   O     0.53678   0.25620   0.71361   0.00000  Uiso   1.00
Zn745  Zn    0.52672   0.13994   0.78734   0.00000  Uiso   1.00
Zn746  Zn    0.46713   0.12458   0.71876   0.00000  Uiso   1.00
Zn747  Zn    0.54389   0.19775   0.70657   0.00000  Uiso   1.00
Zn748  Zn    0.46226   0.20439   0.78734   0.00000  Uiso   1.00
C749   C     0.71922   0.15904   0.76073   0.00000  Uiso   1.00
C750   C     0.84718   0.16763   0.55678   0.00000  Uiso   1.00
C751   C     0.86083   0.09817   0.56186   0.00000  Uiso   1.00
C752   C     0.94760   0.17407   0.73978   0.00000  Uiso   1.00
C753   C     0.81131   0.19764   0.91972   0.00000  Uiso   1.00
C754   C     0.99403   0.17789   0.73490   0.00000  Uiso   1.00
C755   C     0.67444   0.15767   0.76260   0.00000  Uiso   1.00
C756   C     0.84687   0.32271   0.73721   0.00000  Uiso   1.00
C757   C     0.81709   0.01251   0.76427   0.00000  Uiso   1.00
C758   C     0.82256   0.05619   0.76015   0.00000  Uiso   1.00
C759   C     0.84312   0.27798   0.74028   0.00000  Uiso   1.00
C760   C     0.81060   0.25254   0.98150   0.00000  Uiso   1.00
C761   C     0.85189   0.14779   0.62914   0.00000  Uiso   1.00
C762   C     0.81592   0.18570   0.87087   0.00000  Uiso   1.00
C763   C     0.85255   0.08565   0.52007   0.00000  Uiso   1.00
C764   C     0.85713   0.13887   0.58073   0.00000  Uiso   1.00
C765   C     0.80945   0.24010   0.93649   0.00000  Uiso   1.00
C766   C     0.88504   0.00947   0.70290   0.00000  Uiso   1.00
C767   C     0.77720   0.32985   0.79903   0.00000  Uiso   1.00
C768   C     0.80902   0.27225   0.90687   0.00000  Uiso   1.00
C769   C     0.80688   0.29641   0.50277   0.00000  Uiso   1.00
C770   C     0.78259   0.10372   0.90586   0.00000  Uiso   1.00
C771   C     0.81868   0.22435   0.50741   0.00000  Uiso   1.00
C772   C     0.68993   0.20390   0.69957   0.00000  Uiso   1.00
C773   C     0.82335   0.18280   0.99083   0.00000  Uiso   1.00
C774   C     0.81399   0.16814   0.94873   0.00000  Uiso   1.00
C775   C     0.83666   0.15526   0.51509   0.00000  Uiso   1.00
C776   C     0.83899   0.11335   0.99737   0.00000  Uiso   1.00
C777   C     0.82449   0.09840   0.95917   0.00000  Uiso   1.00
C778   C     0.80888   0.12449   0.93683   0.00000  Uiso   1.00
H779   H     0.86776   0.07548   0.58070   0.00000  Uiso   1.00
H780   H     0.75783   0.02191   0.81558   0.00000  Uiso   1.00
H781   H     0.75625   0.30640   0.78274   0.00000  Uiso   1.00
H782   H     0.78622   0.31676   0.82612   0.00000  Uiso   1.00
H783   H     0.78279   0.29094   0.91521   0.00000  Uiso   1.00
H784   H     0.80145   0.31779   0.98044   0.00000  Uiso   1.00
H785   H     0.77957   0.29609   0.53337   0.00000  Uiso   1.00
H786   H     0.83687   0.30937   0.51291   0.00000  Uiso   1.00
H787   H     0.78892   0.07356   0.88850   0.00000  Uiso   1.00
H788   H     0.67636   0.21961   0.67884   0.00000  Uiso   1.00
H789   H     0.98544   0.13897   0.78761   0.00000  Uiso   1.00
H790   H     0.82256   0.06546   0.94853   0.00000  Uiso   1.00
H791   H     0.85435   0.05363   0.50671   0.00000  Uiso   1.00
H792   H     0.84503   0.19842   0.57331   0.00000  Uiso   1.00
H793   H     0.82118   0.23624   0.54081   0.00000  Uiso   1.00
H794   H     0.90658   0.32027   0.68312   0.00000  Uiso   1.00
H795   H     0.87352   0.02424   0.67867   0.00000  Uiso   1.00
H796   H     0.90456   0.03339   0.72037   0.00000  Uiso   1.00
O797   O     0.83333   0.16667   0.75000   0.00000  Uiso   1.00
O798   O     0.82118   0.12637   0.65458   0.00000  Uiso   1.00
O799   O     0.79607   0.20391   0.84968   0.00000  Uiso   1.00
O800   O     0.87491   0.17759   0.64606   0.00000  Uiso   1.00
O801   O     0.84118   0.15880   0.84968   0.00000  Uiso   1.00
O802   O     0.83871   0.27883   0.87369   0.00000  Uiso   1.00
O803   O     0.75216   0.11888   0.90142   0.00000  Uiso   1.00
O804   O     0.72899   0.20823   0.69290   0.00000  Uiso   1.00
O805   O     0.84597   0.08019   0.78213   0.00000  Uiso   1.00
O806   O     0.81298   0.26085   0.77014   0.00000  Uiso   1.00
O807   O     0.74078   0.13291   0.73413   0.00000  Uiso   1.00
O808   O     0.93360   0.19272   0.71360   0.00000  Uiso   1.00
O809   O     0.73738   0.18878   0.78213   0.00000  Uiso   1.00
O810   O     0.92158   0.15226   0.77013   0.00000  Uiso   1.00
O811   O     0.80426   0.06944   0.73413   0.00000  Uiso   1.00
O812   O     0.87012   0.25620   0.71361   0.00000  Uiso   1.00
Zn813  Zn    0.86005   0.13994   0.78734   0.00000  Uiso   1.00
Zn814  Zn    0.80046   0.12458   0.71876   0.00000  Uiso   1.00
Zn815  Zn    0.87723   0.19775   0.70657   0.00000  Uiso   1.00
Zn816  Zn    0.79560   0.20439   0.78734   0.00000  Uiso   1.00
C817   C     0.05256   0.49237   0.76073   0.00000  Uiso   1.00
C818   C     0.18052   0.50096   0.55678   0.00000  Uiso   1.00
C819   C     0.19417   0.43150   0.56186   0.00000  Uiso   1.00
C820   C     0.28093   0.50741   0.73978   0.00000  Uiso   1.00
C821   C     0.14464   0.53097   0.91972   0.00000  Uiso   1.00
C822   C     0.32736   0.51122   0.73490   0.00000  Uiso   1.00
C823   C     0.00778   0.49100   0.76260   0.00000  Uiso   1.00
C824   C     0.18020   0.65604   0.73721   0.00000  Uiso   1.00
C825   C     0.15042   0.34585   0.76427   0.00000  Uiso   1.00
C826   C     0.15589   0.38953   0.76015   0.00000  Uiso   1.00
C827   C     0.17645   0.61132   0.74028   0.00000  Uiso   1.00
C828   C     0.14393   0.58587   0.98150   0.00000  Uiso   1.00
C829   C     0.18522   0.48112   0.62914   0.00000  Uiso   1.00
C830   C     0.14925   0.51903   0.87087   0.00000  Uiso   1.00
C831   C     0.18589   0.41899   0.52007   0.00000  Uiso   1.00
C832   C     0.19047   0.47220   0.58073   0.00000  Uiso   1.00
C833   C     0.14278   0.57343   0.93649   0.00000  Uiso   1.00
C834   C     0.21837   0.34280   0.70290   0.00000  Uiso   1.00
C835   C     0.11053   0.66319   0.79903   0.00000  Uiso   1.00
C836   C     0.14236   0.60559   0.90687   0.00000  Uiso   1.00
C837   C     0.14021   0.62975   0.50277   0.00000  Uiso   1.00
C838   C     0.11592   0.43706   0.90586   0.00000  Uiso   1.00
C839   C     0.15202   0.55769   0.50741   0.00000  Uiso   1.00
C840   C     0.02327   0.53723   0.69957   0.00000  Uiso   1.00
C841   C     0.15668   0.51613   0.99083   0.00000  Uiso   1.00
C842   C     0.14732   0.50147   0.94873   0.00000  Uiso   1.00
C843   C     0.16999   0.48859   0.51509   0.00000  Uiso   1.00
C844   C     0.17232   0.44668   0.99737   0.00000  Uiso   1.00
C845   C     0.15783   0.43174   0.95917   0.00000  Uiso   1.00
C846   C     0.14221   0.45783   0.93683   0.00000  Uiso   1.00
H847   H     0.20109   0.40881   0.58070   0.00000  Uiso   1.00
H848   H     0.09116   0.35524   0.81558   0.00000  Uiso   1.00
H849   H     0.08958   0.63973   0.78274   0.00000  Uiso   1.00
H850   H     0.11955   0.65009   0.82612   0.00000  Uiso   1.00
H851   H     0.11612   0.62427   0.91521   0.00000  Uiso   1.00
H852   H     0.13479   0.65113   0.98044   0.00000  Uiso   1.00
H853   H     0.11291   0.62942   0.53337   0.00000  Uiso   1.00
H854   H     0.17020   0.64270   0.51291   0.00000  Uiso   1.00
H855   H     0.12225   0.40689   0.88850   0.00000  Uiso   1.00
H856   H     0.00970   0.55294   0.67884   0.00000  Uiso   1.00
H857   H     0.31878   0.47231   0.78761   0.00000  Uiso   1.00
H858   H     0.15590   0.39880   0.94853   0.00000  Uiso   1.00
H859   H     0.18768   0.38697   0.50671   0.00000  Uiso   1.00
H860   H     0.17837   0.53175   0.57331   0.00000  Uiso   1.00
H861   H     0.15451   0.56958   0.54081   0.00000  Uiso   1.00
H862   H     0.23991   0.65361   0.68312   0.00000  Uiso   1.00
H863   H     0.20686   0.35757   0.67867   0.00000  Uiso   1.00
H864   H     0.23790   0.36673   0.72037   0.00000  Uiso   1.00
O865   O     0.16667   0.50000   0.75000   0.00000  Uiso   1.00
O866   O     0.15451   0.45970   0.65458   0.00000  Uiso   1.00
O867   O     0.12940   0.53724   0.84968   0.00000  Uiso   1.00
O868   O     0.20824   0.51092   0.64606   0.00000  Uiso   1.00
O869   O     0.17451   0.49213   0.84968   0.00000  Uiso   1.00
O870   O     0.17205   0.61217   0.87369   0.00000  Uiso   1.00
O871   O     0.08550   0.45221   0.90142   0.00000  Uiso   1.00
O872   O     0.06232   0.54156   0.69290   0.00000  Uiso   1.00
O873   O     0.17930   0.41352   0.78213   0.00000  Uiso   1.00
O874   O     0.14632   0.59418   0.77014   0.00000  Uiso   1.00
O875   O     0.07412   0.46625   0.73413   0.00000  Uiso   1.00
O876   O     0.26693   0.52605   0.71360   0.00000  Uiso   1.00
O877   O     0.07071   0.52211   0.78213   0.00000  Uiso   1.00
O878   O     0.25491   0.48559   0.77013   0.00000  Uiso   1.00
O879   O     0.13760   0.40277   0.73413   0.00000  Uiso   1.00
O880   O     0.20345   0.58953   0.71361   0.00000  Uiso   1.00
Zn881  Zn    0.19338   0.47327   0.78734   0.00000  Uiso   1.00
Zn882  Zn    0.13379   0.45791   0.71876   0.00000  Uiso   1.00
Zn883  Zn    0.21056   0.53109   0.70657   0.00000  Uiso   1.00
Zn884  Zn    0.12893   0.53773   0.78734   0.00000  Uiso   1.00
C885   C     0.38589   0.49237   0.76073   0.00000  Uiso   1.00
C886   C     0.51385   0.50096   0.55678   0.00000  Uiso   1.00
C887   C     0.52750   0.43150   0.56186   0.00000  Uiso   1.00
C888   C     0.61426   0.50741   0.73978   0.00000  Uiso   1.00
C889   C     0.47797   0.53097   0.91972   0.00000  Uiso   1.00
C890   C     0.66070   0.51122   0.73490   0.00000  Uiso   1.00
C891   C     0.34111   0.49100   0.76260   0.00000  Uiso   1.00
C892   C     0.51353   0.65604   0.73721   0.00000  Uiso   1.00
C893   C     0.48375   0.34585   0.76427   0.00000  Uiso   1.00
C894   C     0.48923   0.38953   0.76015   0.00000  Uiso   1.00
C895   C     0.50979   0.61132   0.74028   0.00000  Uiso   1.00
C896   C     0.47727   0.58587   0.98150   0.00000  Uiso   1.00
C897   C     0.51855   0.48112   0.62914   0.00000  Uiso   1.00
C898   C     0.48259   0.51903   0.87087   0.00000  Uiso   1.00
C899   C     0.51922   0.41899   0.52007   0.00000  Uiso   1.00
C900   C     0.52380   0.47220   0.58073   0.00000  Uiso   1.00
C901   C     0.47612   0.57343   0.93649   0.00000  Uiso   1.00
C902   C     0.55170   0.34280   0.70290   0.00000  Uiso   1.00
C903   C     0.44387   0.66319   0.79903   0.00000  Uiso   1.00
C904   C     0.47569   0.60559   0.90687   0.00000  Uiso   1.00
C905   C     0.47355   0.62975   0.50277   0.00000  Uiso   1.00
C906   C     0.44925   0.43706   0.90586   0.00000  Uiso   1.00
C907   C     0.48535   0.55769   0.50741   0.00000  Uiso   1.00
C908   C     0.35660   0.53723   0.69957   0.00000  Uiso   1.00
C909   C     0.49001   0.51613   0.99083   0.00000  Uiso   1.00
C910   C     0.48065   0.50147   0.94873   0.00000  Uiso   1.00
C911   C     0.50332   0.48859   0.51509   0.00000  Uiso   1.00
C912   C     0.50566   0.44668   0.99737   0.00000  Uiso   1.00
C913   C     0.49116   0.43174   0.95917   0.00000  Uiso   1.00
C914   C     0.47554   0.45783   0.93683   0.00000  Uiso   1.00
H915   H     0.53443   0.40881   0.58070   0.00000  Uiso   1.00
H916   H     0.42450   0.35524   0.81558   0.00000  Uiso   1.00
H917   H     0.42292   0.63973   0.78274   0.00000  Uiso   1.00
H918   H     0.45289   0.65009   0.82612   0.00000  Uiso   1.00
H919   H     0.44946   0.62427   0.91521   0.00000  Uiso   1.00
H920   H     0.46812   0.65113   0.98044   0.00000  Uiso   1.00
H921   H     0.44624   0.62942   0.53337   0.00000  Uiso   1.00
H922   H     0.50354   0.64270   0.51291   0.00000  Uiso   1.00
H923   H     0.45559   0.40689   0.88850   0.00000  Uiso   1.00
H924   H     0.34303   0.55294   0.67884   0.00000  Uiso   1.00
H925   H     0.65211   0.47231   0.78761   0.00000  Uiso   1.00
H926   H     0.48923   0.39880   0.94853   0.00000  Uiso   1.00
H927   H     0.52102   0.38697   0.50671   0.00000  Uiso   1.00
H928   H     0.51170   0.53175   0.57331   0.00000  Uiso   1.00
H929   H     0.48785   0.56958   0.54081   0.00000  Uiso   1.00
H930   H     0.57325   0.65361   0.68312   0.00000  Uiso   1.00
H931   H     0.54019   0.35757   0.67867   0.00000  Uiso   1.00
H932   H     0.57123   0.36673   0.72037   0.00000  Uiso   1.00
O933   O     0.50000   0.50000   0.75000   0.00000  Uiso   1.00
O934   O     0.48784   0.45970   0.65458   0.00000  Uiso   1.00
O935   O     0.46274   0.53724   0.84968   0.00000  Uiso   1.00
O936   O     0.54157   0.51092   0.64606   0.00000  Uiso   1.00
O937   O     0.50785   0.49213   0.84968   0.00000  Uiso   1.00
O938   O     0.50538   0.61217   0.87369   0.00000  Uiso   1.00
O939   O     0.41883   0.45221   0.90142   0.00000  Uiso   1.00
O940   O     0.39566   0.54156   0.69290   0.00000  Uiso   1.00
O941   O     0.51264   0.41352   0.78213   0.00000  Uiso   1.00
O942   O     0.47965   0.59418   0.77014   0.00000  Uiso   1.00
O943   O     0.40745   0.46625   0.73413   0.00000  Uiso   1.00
O944   O     0.60026   0.52605   0.71360   0.00000  Uiso   1.00
O945   O     0.40405   0.52211   0.78213   0.00000  Uiso   1.00
O946   O     0.58824   0.48559   0.77013   0.00000  Uiso   1.00
O947   O     0.47093   0.40277   0.73413   0.00000  Uiso   1.00
O948   O     0.53678   0.58953   0.71361   0.00000  Uiso   1.00
Zn949  Zn    0.52672   0.47327   0.78734   0.00000  Uiso   1.00
Zn950  Zn    0.46713   0.45791   0.71876   0.00000  Uiso   1.00
Zn951  Zn    0.54389   0.53109   0.70657   0.00000  Uiso   1.00
Zn952  Zn    0.46226   0.53773   0.78734   0.00000  Uiso   1.00
C953   C     0.71922   0.49237   0.76073   0.00000  Uiso   1.00
C954   C     0.84718   0.50096   0.55678   0.00000  Uiso   1.00
C955   C     0.86083   0.43150   0.56186   0.00000  Uiso   1.00
C956   C     0.94760   0.50741   0.73978   0.00000  Uiso   1.00
C957   C     0.81131   0.53097   0.91972   0.00000  Uiso   1.00
C958   C     0.99403   0.51122   0.73490   0.00000  Uiso   1.00
C959   C     0.67444   0.49100   0.76260   0.00000  Uiso   1.00
C960   C     0.84687   0.65604   0.73721   0.00000  Uiso   1.00
C961   C     0.81709   0.34585   0.76427   0.00000  Uiso   1.00
C962   C     0.82256   0.38953   0.76015   0.00000  Uiso   1.00
C963   C     0.84312   0.61132   0.74028   0.00000  Uiso   1.00
C964   C     0.81060   0.58587   0.98150   0.00000  Uiso   1.00
C965   C     0.85189   0.48112   0.62914   0.00000  Uiso   1.00
C966   C     0.81592   0.51903   0.87087   0.00000  Uiso   1.00
C967   C     0.85255   0.41899   0.52007   0.00000  Uiso   1.00
C968   C     0.85713   0.47220   0.58073   0.00000  Uiso   1.00
C969   C     0.80945   0.57343   0.93649   0.00000  Uiso   1.00
C970   C     0.88504   0.34280   0.70290   0.00000  Uiso   1.00
C971   C     0.77720   0.66319   0.79903   0.00000  Uiso   1.00
C972   C     0.80902   0.60559   0.90687   0.00000  Uiso   1.00
C973   C     0.80688   0.62975   0.50277   0.00000  Uiso   1.00
C974   C     0.78259   0.43706   0.90586   0.00000  Uiso   1.00
C975   C     0.81868   0.55769   0.50741   0.00000  Uiso   1.00
C976   C     0.68993   0.53723   0.69957   0.00000  Uiso   1.00
C977   C     0.82335   0.51613   0.99083   0.00000  Uiso   1.00
C978   C     0.81399   0.50147   0.94873   0.00000  Uiso   1.00
C979   C     0.83666   0.48859   0.51509   0.00000  Uiso   1.00
C980   C     0.83899   0.44668   0.99737   0.00000  Uiso   1.00
C981   C     0.82449   0.43174   0.95917   0.00000  Uiso   1.00
C982   C     0.80888   0.45783   0.93683   0.00000  Uiso   1.00
H983   H     0.86776   0.40881   0.58070   0.00000  Uiso   1.00
H984   H     0.75783   0.35524   0.81558   0.00000  Uiso   1.00
H985   H     0.75625   0.63973   0.78274   0.00000  Uiso   1.00
H986   H     0.78622   0.65009   0.82612   0.00000  Uiso   1.00
H987   H     0.78279   0.62427   0.91521   0.00000  Uiso   1.00
H988   H     0.80145   0.65113   0.98044   0.00000  Uiso   1.00
H989   H     0.77957   0.62942   0.53337   0.00000  Uiso   1.00
H990   H     0.83687   0.64270   0.51291   0.00000  Uiso   1.00
H991   H     0.78892   0.40689   0.88850   0.00000  Uiso   1.00
H992   H     0.67636   0.55294   0.67884   0.00000  Uiso   1.00
H993   H     0.98544   0.47231   0.78761   0.00000  Uiso   1.00
H994   H     0.82256   0.39880   0.94853   0.00000  Uiso   1.00
H995   H     0.85435   0.38697   0.50671   0.00000  Uiso   1.00
H996   H     0.84503   0.53175   0.57331   0.00000  Uiso   1.00
H997   H     0.82118   0.56958   0.54081   0.00000  Uiso   1.00
H998   H     0.90658   0.65361   0.68312   0.00000  Uiso   1.00
H999   H     0.87352   0.35757   0.67867   0.00000  Uiso   1.00
H1000  H     0.90456   0.36673   0.72037   0.00000  Uiso   1.00
O1001  O     0.83333   0.50000   0.75000   0.00000  Uiso   1.00
O1002  O     0.82118   0.45970   0.65458   0.00000  Uiso   1.00
O1003  O     0.79607   0.53724   0.84968   0.00000  Uiso   1.00
O1004  O     0.87491   0.51092   0.64606   0.00000  Uiso   1.00
O1005  O     0.84118   0.49213   0.84968   0.00000  Uiso   1.00
O1006  O     0.83871   0.61217   0.87369   0.00000  Uiso   1.00
O1007  O     0.75216   0.45221   0.90142   0.00000  Uiso   1.00
O1008  O     0.72899   0.54156   0.69290   0.00000  Uiso   1.00
O1009  O     0.84597   0.41352   0.78213   0.00000  Uiso   1.00
O1010  O     0.81298   0.59418   0.77014   0.00000  Uiso   1.00
O1011  O     0.74078   0.46625   0.73413   0.00000  Uiso   1.00
O1012  O     0.93360   0.52605   0.71360   0.00000  Uiso   1.00
O1013  O     0.73738   0.52211   0.78213   0.00000  Uiso   1.00
O1014  O     0.92158   0.48559   0.77013   0.00000  Uiso   1.00
O1015  O     0.80426   0.40277   0.73413   0.00000  Uiso   1.00
O1016  O     0.87012   0.58953   0.71361   0.00000  Uiso   1.00
Zn1017 Zn    0.86005   0.47327   0.78734   0.00000  Uiso   1.00
Zn1018 Zn    0.80046   0.45791   0.71876   0.00000  Uiso   1.00
Zn1019 Zn    0.87723   0.53109   0.70657   0.00000  Uiso   1.00
Zn1020 Zn    0.79560   0.53773   0.78734   0.00000  Uiso   1.00
C1021  C     0.05256   0.82570   0.76073   0.00000  Uiso   1.00
C1022  C     0.18052   0.83429   0.55678   0.00000  Uiso   1.00
C1023  C     0.19417   0.76484   0.56186   0.00000  Uiso   1.00
C1024  C     0.28093   0.84074   0.73978   0.00000  Uiso   1.00
C1025  C     0.14464   0.86431   0.91972   0.00000  Uiso   1.00
C1026  C     0.32736   0.84455   0.73490   0.00000  Uiso   1.00
C1027  C     0.00778   0.82433   0.76260   0.00000  Uiso   1.00
C1028  C     0.18020   0.98937   0.73721   0.00000  Uiso   1.00
C1029  C     0.15042   0.67918   0.76427   0.00000  Uiso   1.00
C1030  C     0.15589   0.72286   0.76015   0.00000  Uiso   1.00
C1031  C     0.17645   0.94465   0.74028   0.00000  Uiso   1.00
C1032  C     0.14393   0.91920   0.98150   0.00000  Uiso   1.00
C1033  C     0.18522   0.81445   0.62914   0.00000  Uiso   1.00
C1034  C     0.14925   0.85236   0.87087   0.00000  Uiso   1.00
C1035  C     0.18589   0.75232   0.52007   0.00000  Uiso   1.00
C1036  C     0.19047   0.80553   0.58073   0.00000  Uiso   1.00
C1037  C     0.14278   0.90677   0.93649   0.00000  Uiso   1.00
C1038  C     0.21837   0.67613   0.70290   0.00000  Uiso   1.00
C1039  C     0.11053   0.99652   0.79903   0.00000  Uiso   1.00
C1040  C     0.14236   0.93892   0.90687   0.00000  Uiso   1.00
C1041  C     0.14021   0.96308   0.50277   0.00000  Uiso   1.00
C1042  C     0.11592   0.77039   0.90586   0.00000  Uiso   1.00
C1043  C     0.15202   0.89102   0.50741   0.00000  Uiso   1.00
C1044  C     0.02327   0.87056   0.69957   0.00000  Uiso   1.00
C1045  C     0.15668   0.84946   0.99083   0.00000  Uiso   1.00
C1046  C     0.14732   0.83481   0.94873   0.00000  Uiso   1.00
C1047  C     0.16999   0.82192   0.51509   0.00000  Uiso   1.00
C1048  C     0.17232   0.78001   0.99737   0.00000  Uiso   1.00
C1049  C     0.15783   0.76507   0.95917   0.00000  Uiso   1.00
C1050  C     0.14221   0.79116   0.93683   0.00000  Uiso   1.00
H1051  H     0.20109   0.74215   0.58070   0.00000  Uiso   1.00
H1052  H     0.09116   0.68858   0.81558   0.00000  Uiso   1.00
H1053  H     0.08958   0.97307   0.78274   0.00000  Uiso   1.00
H1054  H     0.11955   0.98342   0.82612   0.00000  Uiso   1.00
H1055  H     0.11612   0.95760   0.91521   0.00000  Uiso   1.00
H1056  H     0.13479   0.98446   0.98044   0.00000  Uiso   1.00
H1057  H     0.11291   0.96276   0.53337   0.00000  Uiso   1.00
H1058  H     0.17020   0.97603   0.51291   0.00000  Uiso   1.00
H1059  H     0.12225   0.74023   0.88850   0.00000  Uiso   1.00
H1060  H     0.00970   0.88628   0.67884   0.00000  Uiso   1.00
H1061  H     0.31878   0.80564   0.78761   0.00000  Uiso   1.00
H1062  H     0.15590   0.73213   0.94853   0.00000  Uiso   1.00
H1063  H     0.18768   0.72030   0.50671   0.00000  Uiso   1.00
H1064  H     0.17837   0.86509   0.57331   0.00000  Uiso   1.00
H1065  H     0.15451   0.90291   0.54081   0.00000  Uiso   1.00
H1066  H     0.23991   0.98694   0.68312   0.00000  Uiso   1.00
H1067  H     0.20686   0.69090   0.67867   0.00000  Uiso   1.00
H1068  H     0.23790   0.70006   0.72037   0.00000  Uiso   1.00
O1069  O     0.16667   0.83333   0.75000   0.00000  Uiso   1.00
O1070  O     0.15451   0.79304   0.65458   0.00000  Uiso   1.00
O1071  O     0.12940   0.87058   0.84968   0.00000  Uiso   1.00
O1072  O     0.20824   0.84425   0.64606   0.00000  Uiso   1.00
O1073  O     0.17451   0.82546   0.84968   0.00000  Uiso   1.00
O1074  O     0.17205   0.94550   0.87369   0.00000  Uiso   1.00
O1075  O     0.08550   0.78555   0.90142   0.00000  Uiso   1.00
O1076  O     0.06232   0.87489   0.69290   0.00000  Uiso   1.00
O1077  O     0.17930   0.74686   0.78213   0.00000  Uiso   1.00
O1078  O     0.14632   0.92751   0.77014   0.00000  Uiso   1.00
O1079  O     0.07412   0.79958   0.73413   0.00000  Uiso   1.00
O1080  O     0.26693   0.85939   0.71360   0.00000  Uiso   1.00
O1081  O     0.07071   0.85544   0.78213   0.00000  Uiso   1.00
O1082  O     0.25491   0.81892   0.77013   0.00000  Uiso   1.00
O1083  O     0.13760   0.73610   0.73413   0.00000  Uiso   1.00
O1084  O     0.20345   0.92286   0.71361   0.00000  Uiso   1.00
Zn1085 Zn    0.19338   0.80661   0.78734   0.00000  Uiso   1.00
Zn1086 Zn    0.13379   0.79124   0.71876   0.00000  Uiso   1.00
Zn1087 Zn    0.21056   0.86442   0.70657   0.00000  Uiso   1.00
Zn1088 Zn    0.12893   0.87106   0.78734   0.00000  Uiso   1.00
C1089  C     0.38589   0.82570   0.76073   0.00000  Uiso   1.00
C1090  C     0.51385   0.83429   0.55678   0.00000  Uiso   1.00
C1091  C     0.52750   0.76484   0.56186   0.00000  Uiso   1.00
C1092  C     0.61426   0.84074   0.73978   0.00000  Uiso   1.00
C1093  C     0.47797   0.86431   0.91972   0.00000  Uiso   1.00
C1094  C     0.66070   0.84455   0.73490   0.00000  Uiso   1.00
C1095  C     0.34111   0.82433   0.76260   0.00000  Uiso   1.00
C1096  C     0.51353   0.98937   0.73721   0.00000  Uiso   1.00
C1097  C     0.48375   0.67918   0.76427   0.00000  Uiso   1.00
C1098  C     0.48923   0.72286   0.76015   0.00000  Uiso   1.00
C1099  C     0.50979   0.94465   0.74028   0.00000  Uiso   1.00
C1100  C     0.47727   0.91920   0.98150   0.00000  Uiso   1.00
C1101  C     0.51855   0.81445   0.62914   0.00000  Uiso   1.00
C1102  C     0.48259   0.85236   0.87087   0.00000  Uiso   1.00
C1103  C     0.51922   0.75232   0.52007   0.00000  Uiso   1.00
C1104  C     0.52380   0.80553   0.58073   0.00000  Uiso   1.00
C1105  C     0.47612   0.90677   0.93649   0.00000  Uiso   1.00
C1106  C     0.55170   0.67613   0.70290   0.00000  Uiso   1.00
C1107  C     0.44387   0.99652   0.79903   0.00000  Uiso   1.00
C1108  C     0.47569   0.93892   0.90687   0.00000  Uiso   1.00
C1109  C     0.47355   0.96308   0.50277   0.00000  Uiso   1.00
C1110  C     0.44925   0.77039   0.90586   0.00000  Uiso   1.00
C1111  C     0.48535   0.89102   0.50741   0.00000  Uiso   1.00
C1112  C     0.35660   0.87056   0.69957   0.00000  Uiso   1.00
C1113  C     0.49001   0.84946   0.99083   0.00000  Uiso   1.00
C1114  C     0.48065   0.83481   0.94873   0.00000  Uiso   1.00
C1115  C     0.50332   0.82192   0.51509   0.00000  Uiso   1.00
C1116  C     0.50566   0.78001   0.99737   0.00000  Uiso   1.00
C1117  C     0.49116   0.76507   0.95917   0.00000  Uiso   1.00
C1118  C     0.47554   0.79116   0.93683   0.00000  Uiso   1.00
H1119  H     0.53443   0.74215   0.58070   0.00000  Uiso   1.00
H1120  H     0.42450   0.68858   0.81558   0.00000  Uiso   1.00
H1121  H     0.42292   0.97307   0.78274   0.00000  Uiso   1.00
H1122  H     0.45289   0.98342   0.82612   0.00000  Uiso   1.00
H1123  H     0.44946   0.95760   0.91521   0.00000  Uiso   1.00
H1124  H     0.46812   0.98446   0.98044   0.00000  Uiso   1.00
H1125  H     0.44624   0.96276   0.53337   0.00000  Uiso   1.00
H1126  H     0.50354   0.97603   0.51291   0.00000  Uiso   1.00
H1127  H     0.45559   0.74023   0.88850   0.00000  Uiso   1.00
H1128  H     0.34303   0.88628   0.67884   0.00000  Uiso   1.00
H1129  H     0.65211   0.80564   0.78761   0.00000  Uiso   1.00
H1130  H     0.48923   0.73213   0.94853   0.00000  Uiso   1.00
H1131  H     0.52102   0.72030   0.50671   0.00000  Uiso   1.00
H1132  H     0.51170   0.86509   0.57331   0.00000  Uiso   1.00
H1133  H     0.48785   0.90291   0.54081   0.00000  Uiso   1.00
H1134  H     0.57325   0.98694   0.68312   0.00000  Uiso   1.00
H1135  H     0.54019   0.69090   0.67867   0.00000  Uiso   1.00
H1136  H     0.57123   0.70006   0.72037   0.00000  Uiso   1.00
O1137  O     0.50000   0.83333   0.75000   0.00000  Uiso   1.00
O1138  O     0.48784   0.79304   0.65458   0.00000  Uiso   1.00
O1139  O     0.46274   0.87058   0.84968   0.00000  Uiso   1.00
O1140  O     0.54157   0.84425   0.64606   0.00000  Uiso   1.00
O1141  O     0.50785   0.82546   0.84968   0.00000  Uiso   1.00
O1142  O     0.50538   0.94550   0.87369   0.00000  Uiso   1.00
O1143  O     0.41883   0.78555   0.90142   0.00000  Uiso   1.00
O1144  O     0.39566   0.87489   0.69290   0.00000  Uiso   1.00
O1145  O     0.51264   0.74686   0.78213   0.00000  Uiso   1.00
O1146  O     0.47965   0.92751   0.77014   0.00000  Uiso   1.00
O1147  O     0.40745   0.79958   0.73413   0.00000  Uiso   1.00
O1148  O     0.60026   0.85939   0.71360   0.00000  Uiso   1.00
O1149  O     0.40405   0.85544   0.78213   0.00000  Uiso   1.00
O1150  O     0.58824   0.81892   0.77013   0.00000  Uiso   1.00
O1151  O     0.47093   0.73610   0.73413   0.00000  Uiso   1.00
O1152  O     0.53678   0.92286   0.71361   0.00000  Uiso   1.00
Zn1153 Zn    0.52672   0.80661   0.78734   0.00000  Uiso   1.00
Zn1154 Zn    0.46713   0.79124   0.71876   0.00000  Uiso   1.00
Zn1155 Zn    0.54389   0.86442   0.70657   0.00000  Uiso   1.00
Zn1156 Zn    0.46226   0.87106   0.78734   0.00000  Uiso   1.00
C1157  C     0.71922   0.82570   0.76073   0.00000  Uiso   1.00
C1158  C     0.84718   0.83429   0.55678   0.00000  Uiso   1.00
C1159  C     0.86083   0.76484   0.56186   0.00000  Uiso   1.00
C1160  C     0.94760   0.84074   0.73978   0.00000  Uiso   1.00
C1161  C     0.81131   0.86431   0.91972   0.00000  Uiso   1.00
C1162  C     0.99403   0.84455   0.73490   0.00000  Uiso   1.00
C1163  C     0.67444   0.82433   0.76260   0.00000  Uiso   1.00
C1164  C     0.84687   0.98937   0.73721   0.00000  Uiso   1.00
C1165  C     0.81709   0.67918   0.76427   0.00000  Uiso   1.00
C1166  C     0.82256   0.72286   0.76015   0.00000  Uiso   1.00
C1167  C     0.84312   0.94465   0.74028   0.00000  Uiso   1.00
C1168  C     0.81060   0.91920   0.98150   0.00000  Uiso   1.00
C1169  C     0.85189   0.81445   0.62914   0.00000  Uiso   1.00
C1170  C     0.81592   0.85236   0.87087   0.00000  Uiso   1.00
C1171  C     0.85255   0.75232   0.52007   0.00000  Uiso   1.00
C1172  C     0.85713   0.80553   0.58073   0.00000  Uiso   1.00
C1173  C     0.80945   0.90677   0.93649   0.00000  Uiso   1.00
C1174  C     0.88504   0.67613   0.70290   0.00000  Uiso   1.00
C1175  C     0.77720   0.99652   0.79903   0.00000  Uiso   1.00
C1176  C     0.80902   0.93892   0.90687   0.00000  Uiso   1.00
C1177  C     0.80688   0.96308   0.50277   0.00000  Uiso   1.00
C1178  C     0.78259   0.77039   0.90586   0.00000  Uiso   1.00
C1179  C     0.81868   0.89102   0.50741   0.00000  Uiso   1.00
C1180  C     0.68993   0.87056   0.69957   0.00000  Uiso   1.00
C1181  C     0.82335   0.84946   0.99083   0.00000  Uiso   1.00
C1182  C     0.81399   0.83481   0.94873   0.00000  Uiso   1.00
C1183  C     0.83666   0.82192   0.51509   0.00000  Uiso   1.00
C1184  C     0.83899   0.78001   0.99737   0.00000  Uiso   1.00
C1185  C     0.82449   0.76507   0.95917   0.00000  Uiso   1.00
C1186  C     0.80888   0.79116   0.93683   0.00000  Uiso   1.00
H1187  H     0.86776   0.74215   0.58070   0.00000  Uiso   1.00
H1188  H     0.75783   0.68858   0.81558   0.00000  Uiso   1.00
H1189  H     0.75625   0.97307   0.78274   0.00000  Uiso   1.00
H1190  H     0.78622   0.98342   0.82612   0.00000  Uiso   1.00
H1191  H     0.78279   0.95760   0.91521   0.00000  Uiso   1.00
H1192  H     0.80145   0.98446   0.98044   0.00000  Uiso   1.00
H1193  H     0.77957   0.96276   0.53337   0.00000  Uiso   1.00
H1194  H     0.83687   0.97603   0.51291   0.00000  Uiso   1.00
H1195  H     0.78892   0.74023   0.88850   0.00000  Uiso   1.00
H1196  H     0.67636   0.88628   0.67884   0.00000  Uiso   1.00
H1197  H     0.98544   0.80564   0.78761   0.00000  Uiso   1.00
H1198  H     0.82256   0.73213   0.94853   0.00000  Uiso   1.00
H1199  H     0.85435   0.72030   0.50671   0.00000  Uiso   1.00
H1200  H     0.84503   0.86509   0.57331   0.00000  Uiso   1.00
H1201  H     0.82118   0.90291   0.54081   0.00000  Uiso   1.00
H1202  H     0.90658   0.98694   0.68312   0.00000  Uiso   1.00
H1203  H     0.87352   0.69090   0.67867   0.00000  Uiso   1.00
H1204  H     0.90456   0.70006   0.72037   0.00000  Uiso   1.00
O1205  O     0.83333   0.83333   0.75000   0.00000  Uiso   1.00
O1206  O     0.82118   0.79304   0.65458   0.00000  Uiso   1.00
O1207  O     0.79607   0.87058   0.84968   0.00000  Uiso   1.00
O1208  O     0.87491   0.84425   0.64606   0.00000  Uiso   1.00
O1209  O     0.84118   0.82546   0.84968   0.00000  Uiso   1.00
O1210  O     0.83871   0.94550   0.87369   0.00000  Uiso   1.00
O1211  O     0.75216   0.78555   0.90142   0.00000  Uiso   1.00
O1212  O     0.72899   0.87489   0.69290   0.00000  Uiso   1.00
O1213  O     0.84597   0.74686   0.78213   0.00000  Uiso   1.00
O1214  O     0.81298   0.92751   0.77014   0.00000  Uiso   1.00
O1215  O     0.74078   0.79958   0.73413   0.00000  Uiso   1.00
O1216  O     0.93360   0.85939   0.71360   0.00000  Uiso   1.00
O1217  O     0.73738   0.85544   0.78213   0.00000  Uiso   1.00
O1218  O     0.92158   0.81892   0.77013   0.00000  Uiso   1.00
O1219  O     0.80426   0.73610   0.73413   0.00000  Uiso   1.00
O1220  O     0.87012   0.92286   0.71361   0.00000  Uiso   1.00
Zn1221 Zn    0.86005   0.80661   0.78734   0.00000  Uiso   1.00
Zn1222 Zn    0.80046   0.79124   0.71876   0.00000  Uiso   1.00
Zn1223 Zn    0.87723   0.86442   0.70657   0.00000  Uiso   1.00
Zn1224 Zn    0.79560   0.87106   0.78734   0.00000  Uiso   1.00
loop_
_geom_bond_atom_site_label_1
_geom_bond_atom_site_label_2
_geom_bond_distance
_geom_bond_site_symmetry_2
_ccdc_geom_bond_type
C1     O59     1.266   .     A
C1     C7      1.438   .     S
C1     O61     1.267   .     A
C2     C27     1.416   .     A
C2     H44     1.076   .     S
C2     C16     1.393   .     A
C3     C16     1.397   .     A
C3     C15     1.388   .     A
C3     H31     1.084   .     S
C4     O60     1.283   .     A
C4     C6      1.466   .     S
C4     O62     1.289   .     A
C5     C14     1.484   .     S
C5     C17     1.428   .     A
C5     C26     1.426   .     A
C6     C75     1.347   .     S
C6     C92     1.499   .     S
C7     C142    1.347   1_455 S
C7     H177    1.086   1_455 S
C8     C11     1.465   .     S
C8     C213    1.361   .     S
C8     C222    1.522   .     S
C9     C10     1.433   .     S
C9     C416    1.361   1_545 S
C9     C427    1.515   1_545 S
C10    O57     1.272   .     A
C10    O63     1.271   .     A
C11    O58     1.266   .     A
C11    O64     1.274   .     A
C12    C17     1.408   .     A
C12    C633    1.514   .     S
C12    C635    1.393   .     S
C13    O50     1.268   .     A
C13    O52     1.282   .     A
C13    C16     1.457   .     S
C14    O51     1.284   .     A
C14    O53     1.295   .     A
C15    H43     1.083   .     S
C15    C640    1.401   1_554 S
C17    C20     1.484   .     S
C18    H48     1.111   .     S
C18    H47     1.111   .     S
C18    C416    1.522   1_545 S
C18    H454    1.109   1_545 S
C19    H33     1.111   .     S
C19    H34     1.110   .     S
C19    C213    1.515   .     S
C19    H236    1.112   .     S
C20    O54     1.221   .     D
C20    H35     1.085   .     S
C21    H37     1.111   .     S
C21    H38     1.111   .     S
C21    C624    1.514   1_554 S
C21    H648    1.107   1_554 S
C22    C30     1.485   .     S
C22    H39     1.086   .     S
C22    O55     1.221   .     D
C23    H45     1.076   .     S
C23    C624    1.393   1_554 S
C23    C637    1.410   1_554 S
C24    O56     1.221   .     D
C24    H40     1.085   .     S
C24    C142    1.499   1_455 S
C25    C26     1.423   .     A
C25    C635    1.410   .     S
C25    C639    1.425   .     S
C26    C30     1.427   .     A
C27    C637    1.425   1_554 S
C27    C640    1.420   1_554 S
C28    C29     1.392   .     A
C28    C639    1.420   .     S
C28    C627    1.401   .     S
C29    H42     1.086   .     S
C29    C30     1.393   .     A
H32    C427    1.112   1_545 S
H36    C633    1.107   .     S
H41    C75     1.086   .     S
H46    C222    1.109   .     S
O49    Zn68    1.931   .     S
O49    Zn65    1.971   .     S
O49    Zn66    1.934   .     S
O49    Zn67    1.934   .     S
O50    Zn66    1.921   .     S
O51    Zn68    1.933   .     S
O52    Zn67    1.921   .     S
O53    Zn65    1.912   .     S
O57    Zn65    1.937   .     S
O58    Zn68    1.946   .     S
O59    Zn66    1.927   .     S
O60    Zn67    1.940   .     S
O61    Zn68    1.929   .     S
O62    Zn65    1.921   .     S
O63    Zn66    1.956   .     S
O64    Zn67    1.944   .     S
C69    O127    1.266   .     A
C69    C75     1.438   .     S
C69    O129    1.267   .     A
C70    C95     1.416   .     A
C70    H112    1.076   .     S
C70    C84     1.393   .     A
C71    C84     1.397   .     A
C71    C83     1.388   .     A
C71    H99     1.084   .     S
C72    O128    1.283   .     A
C72    C74     1.466   .     S
C72    O130    1.289   .     A
C73    C82     1.484   .     S
C73    C85     1.428   .     A
C73    C94     1.426   .     A
C74    C143    1.347   .     S
C74    C160    1.499   .     S
C76    C79     1.465   .     S
C76    C281    1.361   .     S
C76    C290    1.522   .     S
C77    C78     1.433   .     S
C77    C484    1.361   1_545 S
C77    C495    1.515   1_545 S
C78    O125    1.272   .     A
C78    O131    1.271   .     A
C79    O126    1.266   .     A
C79    O132    1.274   .     A
C80    C85     1.408   .     A
C80    C701    1.514   .     S
C80    C703    1.393   .     S
C81    O118    1.268   .     A
C81    O120    1.282   .     A
C81    C84     1.457   .     S
C82    O119    1.284   .     A
C82    O121    1.295   .     A
C83    H111    1.083   .     S
C83    C708    1.401   1_554 S
C85    C88     1.484   .     S
C86    H116    1.111   .     S
C86    H115    1.111   .     S
C86    C484    1.522   1_545 S
C86    H522    1.109   1_545 S
C87    H101    1.111   .     S
C87    H102    1.110   .     S
C87    C281    1.515   .     S
C87    H304    1.112   .     S
C88    O122    1.221   .     D
C88    H103    1.085   .     S
C89    H105    1.111   .     S
C89    H106    1.111   .     S
C89    C692    1.514   1_554 S
C89    H716    1.107   1_554 S
C90    C98     1.485   .     S
C90    H107    1.086   .     S
C90    O123    1.221   .     D
C91    H113    1.076   .     S
C91    C692    1.393   1_554 S
C91    C705    1.410   1_554 S
C92    O124    1.221   .     D
C92    H108    1.085   .     S
C93    C94     1.423   .     A
C93    C703    1.410   .     S
C93    C707    1.425   .     S
C94    C98     1.427   .     A
C95    C705    1.425   1_554 S
C95    C708    1.420   1_554 S
C96    C97     1.392   .     A
C96    C707    1.420   .     S
C96    C695    1.401   .     S
C97    H110    1.086   .     S
C97    C98     1.393   .     A
H100   C495    1.112   1_545 S
H104   C701    1.107   .     S
H109   C143    1.086   .     S
H114   C290    1.109   .     S
O117   Zn136   1.931   .     S
O117   Zn133   1.971   .     S
O117   Zn134   1.934   .     S
O117   Zn135   1.934   .     S
O118   Zn134   1.921   .     S
O119   Zn136   1.933   .     S
O120   Zn135   1.921   .     S
O121   Zn133   1.912   .     S
O125   Zn133   1.937   .     S
O126   Zn136   1.946   .     S
O127   Zn134   1.927   .     S
O128   Zn135   1.940   .     S
O129   Zn136   1.929   .     S
O130   Zn133   1.921   .     S
O131   Zn134   1.956   .     S
O132   Zn135   1.944   .     S
C137   O195    1.266   .     A
C137   C143    1.438   .     S
C137   O197    1.267   .     A
C138   C163    1.416   .     A
C138   H180    1.076   .     S
C138   C152    1.393   .     A
C139   C152    1.397   .     A
C139   C151    1.388   .     A
C139   H167    1.084   .     S
C140   O196    1.283   .     A
C140   C142    1.466   .     S
C140   O198    1.289   .     A
C141   C150    1.484   .     S
C141   C153    1.428   .     A
C141   C162    1.426   .     A
C142   C7      1.347   1_655 S
C142   C24     1.499   1_655 S
C144   C147    1.465   .     S
C144   C349    1.361   .     S
C144   C358    1.522   .     S
C145   C146    1.433   .     S
C145   C552    1.361   1_545 S
C145   C563    1.515   1_545 S
C146   O193    1.272   .     A
C146   O199    1.271   .     A
C147   O194    1.266   .     A
C147   O200    1.274   .     A
C148   C153    1.408   .     A
C148   C769    1.514   .     S
C148   C771    1.393   .     S
C149   O186    1.268   .     A
C149   O188    1.282   .     A
C149   C152    1.457   .     S
C150   O187    1.284   .     A
C150   O189    1.295   .     A
C151   H179    1.083   .     S
C151   C776    1.401   1_554 S
C153   C156    1.484   .     S
C154   H184    1.111   .     S
C154   H183    1.111   .     S
C154   C552    1.522   1_545 S
C154   H590    1.109   1_545 S
C155   H169    1.111   .     S
C155   H170    1.110   .     S
C155   C349    1.515   .     S
C155   H372    1.112   .     S
C156   O190    1.221   .     D
C156   H171    1.085   .     S
C157   H173    1.111   .     S
C157   H174    1.111   .     S
C157   C760    1.514   1_554 S
C157   H784    1.107   1_554 S
C158   C166    1.485   .     S
C158   H175    1.086   .     S
C158   O191    1.221   .     D
C159   H181    1.076   .     S
C159   C760    1.393   1_554 S
C159   C773    1.410   1_554 S
C160   O192    1.221   .     D
C160   H176    1.085   .     S
C161   C162    1.423   .     A
C161   C771    1.410   .     S
C161   C775    1.425   .     S
C162   C166    1.427   .     A
C163   C773    1.425   1_554 S
C163   C776    1.420   1_554 S
C164   C165    1.392   .     A
C164   C775    1.420   .     S
C164   C763    1.401   .     S
C165   H178    1.086   .     S
C165   C166    1.393   .     A
H168   C563    1.112   1_545 S
H172   C769    1.107   .     S
H177   C7      1.086   1_655 S
H182   C358    1.109   .     S
O185   Zn204   1.931   .     S
O185   Zn201   1.971   .     S
O185   Zn202   1.934   .     S
O185   Zn203   1.934   .     S
O186   Zn202   1.921   .     S
O187   Zn204   1.933   .     S
O188   Zn203   1.921   .     S
O189   Zn201   1.912   .     S
O193   Zn201   1.937   .     S
O194   Zn204   1.946   .     S
O195   Zn202   1.927   .     S
O196   Zn203   1.940   .     S
O197   Zn204   1.929   .     S
O198   Zn201   1.921   .     S
O199   Zn202   1.956   .     S
O200   Zn203   1.944   .     S
C205   O263    1.266   .     A
C205   C211    1.438   .     S
C205   O265    1.267   .     A
C206   C231    1.416   .     A
C206   H248    1.076   .     S
C206   C220    1.393   .     A
C207   C220    1.397   .     A
C207   C219    1.388   .     A
C207   H235    1.084   .     S
C208   O264    1.283   .     A
C208   C210    1.466   .     S
C208   O266    1.289   .     A
C209   C218    1.484   .     S
C209   C221    1.428   .     A
C209   C230    1.426   .     A
C210   C279    1.347   .     S
C210   C296    1.499   .     S
C211   C346    1.347   1_455 S
C211   H381    1.086   1_455 S
C212   C215    1.465   .     S
C212   C417    1.361   .     S
C212   C426    1.522   .     S
C213   C214    1.433   .     S
C214   O261    1.272   .     A
C214   O267    1.271   .     A
C215   O262    1.266   .     A
C215   O268    1.274   .     A
C216   C221    1.408   .     A
C216   C837    1.514   .     S
C216   C839    1.393   .     S
C217   O254    1.268   .     A
C217   O256    1.282   .     A
C217   C220    1.457   .     S
C218   O255    1.284   .     A
C218   O257    1.295   .     A
C219   H247    1.083   .     S
C219   C844    1.401   1_554 S
C221   C224    1.484   .     S
C222   H252    1.111   .     S
C222   H251    1.111   .     S
C223   H237    1.111   .     S
C223   H238    1.110   .     S
C223   C417    1.515   .     S
C223   H440    1.112   .     S
C224   O258    1.221   .     D
C224   H239    1.085   .     S
C225   H241    1.111   .     S
C225   H242    1.111   .     S
C225   C828    1.514   1_554 S
C225   H852    1.107   1_554 S
C226   C234    1.485   .     S
C226   H243    1.086   .     S
C226   O259    1.221   .     D
C227   H249    1.076   .     S
C227   C828    1.393   1_554 S
C227   C841    1.410   1_554 S
C228   O260    1.221   .     D
C228   H244    1.085   .     S
C228   C346    1.499   1_455 S
C229   C230    1.423   .     A
C229   C839    1.410   .     S
C229   C843    1.425   .     S
C230   C234    1.427   .     A
C231   C841    1.425   1_554 S
C231   C844    1.420   1_554 S
C232   C233    1.392   .     A
C232   C843    1.420   .     S
C232   C831    1.401   .     S
C233   H246    1.086   .     S
C233   C234    1.393   .     A
H240   C837    1.107   .     S
H245   C279    1.086   .     S
H250   C426    1.109   .     S
O253   Zn272   1.931   .     S
O253   Zn269   1.971   .     S
O253   Zn270   1.934   .     S
O253   Zn271   1.934   .     S
O254   Zn270   1.921   .     S
O255   Zn272   1.933   .     S
O256   Zn271   1.921   .     S
O257   Zn269   1.912   .     S
O261   Zn269   1.937   .     S
O262   Zn272   1.946   .     S
O263   Zn270   1.927   .     S
O264   Zn271   1.940   .     S
O265   Zn272   1.929   .     S
O266   Zn269   1.921   .     S
O267   Zn270   1.956   .     S
O268   Zn271   1.944   .     S
C273   O331    1.266   .     A
C273   C279    1.438   .     S
C273   O333    1.267   .     A
C274   C299    1.416   .     A
C274   H316    1.076   .     S
C274   C288    1.393   .     A
C275   C288    1.397   .     A
C275   C287    1.388   .     A
C275   H303    1.084   .     S
C276   O332    1.283   .     A
C276   C278    1.466   .     S
C276   O334    1.289   .     A
C277   C286    1.484   .     S
C277   C289    1.428   .     A
C277   C298    1.426   .     A
C278   C347    1.347   .     S
C278   C364    1.499   .     S
C280   C283    1.465   .     S
C280   C485    1.361   .     S
C280   C494    1.522   .     S
C281   C282    1.433   .     S
C282   O329    1.272   .     A
C282   O335    1.271   .     A
C283   O330    1.266   .     A
C283   O336    1.274   .     A
C284   C289    1.408   .     A
C284   C905    1.514   .     S
C284   C907    1.393   .     S
C285   O322    1.268   .     A
C285   O324    1.282   .     A
C285   C288    1.457   .     S
C286   O323    1.284   .     A
C286   O325    1.295   .     A
C287   H315    1.083   .     S
C287   C912    1.401   1_554 S
C289   C292    1.484   .     S
C290   H320    1.111   .     S
C290   H319    1.111   .     S
C291   H305    1.111   .     S
C291   H306    1.110   .     S
C291   C485    1.515   .     S
C291   H508    1.112   .     S
C292   O326    1.221   .     D
C292   H307    1.085   .     S
C293   H309    1.111   .     S
C293   H310    1.111   .     S
C293   C896    1.514   1_554 S
C293   H920    1.107   1_554 S
C294   C302    1.485   .     S
C294   H311    1.086   .     S
C294   O327    1.221   .     D
C295   H317    1.076   .     S
C295   C896    1.393   1_554 S
C295   C909    1.410   1_554 S
C296   O328    1.221   .     D
C296   H312    1.085   .     S
C297   C298    1.423   .     A
C297   C907    1.410   .     S
C297   C911    1.425   .     S
C298   C302    1.427   .     A
C299   C909    1.425   1_554 S
C299   C912    1.420   1_554 S
C300   C301    1.392   .     A
C300   C911    1.420   .     S
C300   C899    1.401   .     S
C301   H314    1.086   .     S
C301   C302    1.393   .     A
H308   C905    1.107   .     S
H313   C347    1.086   .     S
H318   C494    1.109   .     S
O321   Zn340   1.931   .     S
O321   Zn337   1.971   .     S
O321   Zn338   1.934   .     S
O321   Zn339   1.934   .     S
O322   Zn338   1.921   .     S
O323   Zn340   1.933   .     S
O324   Zn339   1.921   .     S
O325   Zn337   1.912   .     S
O329   Zn337   1.937   .     S
O330   Zn340   1.946   .     S
O331   Zn338   1.927   .     S
O332   Zn339   1.940   .     S
O333   Zn340   1.929   .     S
O334   Zn337   1.921   .     S
O335   Zn338   1.956   .     S
O336   Zn339   1.944   .     S
C341   O399    1.266   .     A
C341   C347    1.438   .     S
C341   O401    1.267   .     A
C342   C367    1.416   .     A
C342   H384    1.076   .     S
C342   C356    1.393   .     A
C343   C356    1.397   .     A
C343   C355    1.388   .     A
C343   H371    1.084   .     S
C344   O400    1.283   .     A
C344   C346    1.466   .     S
C344   O402    1.289   .     A
C345   C354    1.484   .     S
C345   C357    1.428   .     A
C345   C366    1.426   .     A
C346   C211    1.347   1_655 S
C346   C228    1.499   1_655 S
C348   C351    1.465   .     S
C348   C553    1.361   .     S
C348   C562    1.522   .     S
C349   C350    1.433   .     S
C350   O397    1.272   .     A
C350   O403    1.271   .     A
C351   O398    1.266   .     A
C351   O404    1.274   .     A
C352   C357    1.408   .     A
C352   C973    1.514   .     S
C352   C975    1.393   .     S
C353   O390    1.268   .     A
C353   O392    1.282   .     A
C353   C356    1.457   .     S
C354   O391    1.284   .     A
C354   O393    1.295   .     A
C355   H383    1.083   .     S
C355   C980    1.401   1_554 S
C357   C360    1.484   .     S
C358   H388    1.111   .     S
C358   H387    1.111   .     S
C359   H373    1.111   .     S
C359   H374    1.110   .     S
C359   C553    1.515   .     S
C359   H576    1.112   .     S
C360   O394    1.221   .     D
C360   H375    1.085   .     S
C361   H377    1.111   .     S
C361   H378    1.111   .     S
C361   C964    1.514   1_554 S
C361   H988    1.107   1_554 S
C362   C370    1.485   .     S
C362   H379    1.086   .     S
C362   O395    1.221   .     D
C363   H385    1.076   .     S
C363   C964    1.393   1_554 S
C363   C977    1.410   1_554 S
C364   O396    1.221   .     D
C364   H380    1.085   .     S
C365   C366    1.423   .     A
C365   C975    1.410   .     S
C365   C979    1.425   .     S
C366   C370    1.427   .     A
C367   C977    1.425   1_554 S
C367   C980    1.420   1_554 S
C368   C369    1.392   .     A
C368   C979    1.420   .     S
C368   C967    1.401   .     S
C369   H382    1.086   .     S
C369   C370    1.393   .     A
H376   C973    1.107   .     S
H381   C211    1.086   1_655 S
H386   C562    1.109   .     S
O389   Zn408   1.931   .     S
O389   Zn405   1.971   .     S
O389   Zn406   1.934   .     S
O389   Zn407   1.934   .     S
O390   Zn406   1.921   .     S
O391   Zn408   1.933   .     S
O392   Zn407   1.921   .     S
O393   Zn405   1.912   .     S
O397   Zn405   1.937   .     S
O398   Zn408   1.946   .     S
O399   Zn406   1.927   .     S
O400   Zn407   1.940   .     S
O401   Zn408   1.929   .     S
O402   Zn405   1.921   .     S
O403   Zn406   1.956   .     S
O404   Zn407   1.944   .     S
C409   O467    1.266   .     A
C409   C415    1.438   .     S
C409   O469    1.267   .     A
C410   C435    1.416   .     A
C410   H452    1.076   .     S
C410   C424    1.393   .     A
C411   C424    1.397   .     A
C411   C423    1.388   .     A
C411   H439    1.084   .     S
C412   O468    1.283   .     A
C412   C414    1.466   .     S
C412   O470    1.289   .     A
C413   C422    1.484   .     S
C413   C425    1.428   .     A
C413   C434    1.426   .     A
C414   C483    1.347   .     S
C414   C500    1.499   .     S
C415   C550    1.347   1_455 S
C415   H585    1.086   1_455 S
C416   C419    1.465   .     S
C416   C9      1.361   1_565 S
C416   C18     1.522   1_565 S
C417   C418    1.433   .     S
C418   O465    1.272   .     A
C418   O471    1.271   .     A
C419   O466    1.266   .     A
C419   O472    1.274   .     A
C420   C425    1.408   .     A
C420   C1041   1.514   .     S
C420   C1043   1.393   .     S
C421   O458    1.268   .     A
C421   O460    1.282   .     A
C421   C424    1.457   .     S
C422   O459    1.284   .     A
C422   O461    1.295   .     A
C423   H451    1.083   .     S
C423   C1048   1.401   1_554 S
C425   C428    1.484   .     S
C426   H456    1.111   .     S
C426   H455    1.111   .     S
C427   H441    1.111   .     S
C427   H442    1.110   .     S
C427   C9      1.515   1_565 S
C427   H32     1.112   1_565 S
C428   O462    1.221   .     D
C428   H443    1.085   .     S
C429   H445    1.111   .     S
C429   H446    1.111   .     S
C429   C1032   1.514   1_554 S
C429   H1056   1.107   1_554 S
C430   C438    1.485   .     S
C430   H447    1.086   .     S
C430   O463    1.221   .     D
C431   H453    1.076   .     S
C431   C1032   1.393   1_554 S
C431   C1045   1.410   1_554 S
C432   O464    1.221   .     D
C432   H448    1.085   .     S
C432   C550    1.499   1_455 S
C433   C434    1.423   .     A
C433   C1043   1.410   .     S
C433   C1047   1.425   .     S
C434   C438    1.427   .     A
C435   C1045   1.425   1_554 S
C435   C1048   1.420   1_554 S
C436   C437    1.392   .     A
C436   C1047   1.420   .     S
C436   C1035   1.401   .     S
C437   H450    1.086   .     S
C437   C438    1.393   .     A
H444   C1041   1.107   .     S
H449   C483    1.086   .     S
H454   C18     1.109   1_565 S
O457   Zn476   1.931   .     S
O457   Zn473   1.971   .     S
O457   Zn474   1.934   .     S
O457   Zn475   1.934   .     S
O458   Zn474   1.921   .     S
O459   Zn476   1.933   .     S
O460   Zn475   1.921   .     S
O461   Zn473   1.912   .     S
O465   Zn473   1.937   .     S
O466   Zn476   1.946   .     S
O467   Zn474   1.927   .     S
O468   Zn475   1.940   .     S
O469   Zn476   1.929   .     S
O470   Zn473   1.921   .     S
O471   Zn474   1.956   .     S
O472   Zn475   1.944   .     S
C477   O535    1.266   .     A
C477   C483    1.438   .     S
C477   O537    1.267   .     A
C478   C503    1.416   .     A
C478   H520    1.076   .     S
C478   C492    1.393   .     A
C479   C492    1.397   .     A
C479   C491    1.388   .     A
C479   H507    1.084   .     S
C480   O536    1.283   .     A
C480   C482    1.466   .     S
C480   O538    1.289   .     A
C481   C490    1.484   .     S
C481   C493    1.428   .     A
C481   C502    1.426   .     A
C482   C551    1.347   .     S
C482   C568    1.499   .     S
C484   C487    1.465   .     S
C484   C77     1.361   1_565 S
C484   C86     1.522   1_565 S
C485   C486    1.433   .     S
C486   O533    1.272   .     A
C486   O539    1.271   .     A
C487   O534    1.266   .     A
C487   O540    1.274   .     A
C488   C493    1.408   .     A
C488   C1109   1.514   .     S
C488   C1111   1.393   .     S
C489   O526    1.268   .     A
C489   O528    1.282   .     A
C489   C492    1.457   .     S
C490   O527    1.284   .     A
C490   O529    1.295   .     A
C491   H519    1.083   .     S
C491   C1116   1.401   1_554 S
C493   C496    1.484   .     S
C494   H524    1.111   .     S
C494   H523    1.111   .     S
C495   H509    1.111   .     S
C495   H510    1.110   .     S
C495   C77     1.515   1_565 S
C495   H100    1.112   1_565 S
C496   O530    1.221   .     D
C496   H511    1.085   .     S
C497   H513    1.111   .     S
C497   H514    1.111   .     S
C497   C1100   1.514   1_554 S
C497   H1124   1.107   1_554 S
C498   C506    1.485   .     S
C498   H515    1.086   .     S
C498   O531    1.221   .     D
C499   H521    1.076   .     S
C499   C1100   1.393   1_554 S
C499   C1113   1.410   1_554 S
C500   O532    1.221   .     D
C500   H516    1.085   .     S
C501   C502    1.423   .     A
C501   C1111   1.410   .     S
C501   C1115   1.425   .     S
C502   C506    1.427   .     A
C503   C1113   1.425   1_554 S
C503   C1116   1.420   1_554 S
C504   C505    1.392   .     A
C504   C1115   1.420   .     S
C504   C1103   1.401   .     S
C505   H518    1.086   .     S
C505   C506    1.393   .     A
H512   C1109   1.107   .     S
H517   C551    1.086   .     S
H522   C86     1.109   1_565 S
O525   Zn544   1.931   .     S
O525   Zn541   1.971   .     S
O525   Zn542   1.934   .     S
O525   Zn543   1.934   .     S
O526   Zn542   1.921   .     S
O527   Zn544   1.933   .     S
O528   Zn543   1.921   .     S
O529   Zn541   1.912   .     S
O533   Zn541   1.937   .     S
O534   Zn544   1.946   .     S
O535   Zn542   1.927   .     S
O536   Zn543   1.940   .     S
O537   Zn544   1.929   .     S
O538   Zn541   1.921   .     S
O539   Zn542   1.956   .     S
O540   Zn543   1.944   .     S
C545   O603    1.266   .     A
C545   C551    1.438   .     S
C545   O605    1.267   .     A
C546   C571    1.416   .     A
C546   H588    1.076   .     S
C546   C560    1.393   .     A
C547   C560    1.397   .     A
C547   C559    1.388   .     A
C547   H575    1.084   .     S
C548   O604    1.283   .     A
C548   C550    1.466   .     S
C548   O606    1.289   .     A
C549   C558    1.484   .     S
C549   C561    1.428   .     A
C549   C570    1.426   .     A
C550   C415    1.347   1_655 S
C550   C432    1.499   1_655 S
C552   C555    1.465   .     S
C552   C145    1.361   1_565 S
C552   C154    1.522   1_565 S
C553   C554    1.433   .     S
C554   O601    1.272   .     A
C554   O607    1.271   .     A
C555   O602    1.266   .     A
C555   O608    1.274   .     A
C556   C561    1.408   .     A
C556   C1177   1.514   .     S
C556   C1179   1.393   .     S
C557   O594    1.268   .     A
C557   O596    1.282   .     A
C557   C560    1.457   .     S
C558   O595    1.284   .     A
C558   O597    1.295   .     A
C559   H587    1.083   .     S
C559   C1184   1.401   1_554 S
C561   C564    1.484   .     S
C562   H592    1.111   .     S
C562   H591    1.111   .     S
C563   H577    1.111   .     S
C563   H578    1.110   .     S
C563   C145    1.515   1_565 S
C563   H168    1.112   1_565 S
C564   O598    1.221   .     D
C564   H579    1.085   .     S
C565   H581    1.111   .     S
C565   H582    1.111   .     S
C565   C1168   1.514   1_554 S
C565   H1192   1.107   1_554 S
C566   C574    1.485   .     S
C566   H583    1.086   .     S
C566   O599    1.221   .     D
C567   H589    1.076   .     S
C567   C1168   1.393   1_554 S
C567   C1181   1.410   1_554 S
C568   O600    1.221   .     D
C568   H584    1.085   .     S
C569   C570    1.423   .     A
C569   C1179   1.410   .     S
C569   C1183   1.425   .     S
C570   C574    1.427   .     A
C571   C1181   1.425   1_554 S
C571   C1184   1.420   1_554 S
C572   C573    1.392   .     A
C572   C1183   1.420   .     S
C572   C1171   1.401   .     S
C573   H586    1.086   .     S
C573   C574    1.393   .     A
H580   C1177   1.107   .     S
H585   C415    1.086   1_655 S
H590   C154    1.109   1_565 S
O593   Zn612   1.931   .     S
O593   Zn609   1.971   .     S
O593   Zn610   1.934   .     S
O593   Zn611   1.934   .     S
O594   Zn610   1.921   .     S
O595   Zn612   1.933   .     S
O596   Zn611   1.921   .     S
O597   Zn609   1.912   .     S
O601   Zn609   1.937   .     S
O602   Zn612   1.946   .     S
O603   Zn610   1.927   .     S
O604   Zn611   1.940   .     S
O605   Zn612   1.929   .     S
O606   Zn609   1.921   .     S
O607   Zn610   1.956   .     S
O608   Zn611   1.944   .     S
C613   O671    1.266   .     A
C613   C619    1.438   .     S
C613   O673    1.267   .     A
C614   C639    1.416   .     A
C614   H656    1.076   .     S
C614   C628    1.393   .     A
C615   C628    1.397   .     A
C615   C627    1.388   .     A
C615   H643    1.084   .     S
C616   O672    1.283   .     A
C616   C618    1.466   .     S
C616   O674    1.289   .     A
C617   C626    1.484   .     S
C617   C629    1.428   .     A
C617   C638    1.426   .     A
C618   C687    1.347   .     S
C618   C704    1.499   .     S
C619   C754    1.347   1_455 S
C619   H789    1.086   1_455 S
C620   C623    1.465   .     S
C620   C825    1.361   .     S
C620   C834    1.522   .     S
C621   C622    1.433   .     S
C621   C1028   1.361   1_545 S
C621   C1039   1.515   1_545 S
C622   O669    1.272   .     A
C622   O675    1.271   .     A
C623   O670    1.266   .     A
C623   O676    1.274   .     A
C624   C629    1.408   .     A
C624   C21     1.514   1_556 S
C624   C23     1.393   1_556 S
C625   O662    1.268   .     A
C625   O664    1.282   .     A
C625   C628    1.457   .     S
C626   O663    1.284   .     A
C626   O665    1.295   .     A
C627   H655    1.083   .     S
C629   C632    1.484   .     S
C630   H660    1.111   .     S
C630   H659    1.111   .     S
C630   C1028   1.522   1_545 S
C630   H1066   1.109   1_545 S
C631   H645    1.111   .     S
C631   H646    1.110   .     S
C631   C825    1.515   .     S
C631   H848    1.112   .     S
C632   O666    1.221   .     D
C632   H647    1.085   .     S
C633   H649    1.111   .     S
C633   H650    1.111   .     S
C634   C642    1.485   .     S
C634   H651    1.086   .     S
C634   O667    1.221   .     D
C635   H657    1.076   .     S
C636   O668    1.221   .     D
C636   H652    1.085   .     S
C636   C754    1.499   1_455 S
C637   C638    1.423   .     A
C637   C23     1.410   1_556 S
C637   C27     1.425   1_556 S
C638   C642    1.427   .     A
C640   C641    1.392   .     A
C640   C27     1.420   1_556 S
C640   C15     1.401   1_556 S
C641   H654    1.086   .     S
C641   C642    1.393   .     A
H644   C1039   1.112   1_545 S
H648   C21     1.107   1_556 S
H653   C687    1.086   .     S
H658   C834    1.109   .     S
O661   Zn680   1.931   .     S
O661   Zn677   1.971   .     S
O661   Zn678   1.934   .     S
O661   Zn679   1.934   .     S
O662   Zn678   1.921   .     S
O663   Zn680   1.933   .     S
O664   Zn679   1.921   .     S
O665   Zn677   1.912   .     S
O669   Zn677   1.937   .     S
O670   Zn680   1.946   .     S
O671   Zn678   1.927   .     S
O672   Zn679   1.940   .     S
O673   Zn680   1.929   .     S
O674   Zn677   1.921   .     S
O675   Zn678   1.956   .     S
O676   Zn679   1.944   .     S
C681   O739    1.266   .     A
C681   C687    1.438   .     S
C681   O741    1.267   .     A
C682   C707    1.416   .     A
C682   H724    1.076   .     S
C682   C696    1.393   .     A
C683   C696    1.397   .     A
C683   C695    1.388   .     A
C683   H711    1.084   .     S
C684   O740    1.283   .     A
C684   C686    1.466   .     S
C684   O742    1.289   .     A
C685   C694    1.484   .     S
C685   C697    1.428   .     A
C685   C706    1.426   .     A
C686   C755    1.347   .     S
C686   C772    1.499   .     S
C688   C691    1.465   .     S
C688   C893    1.361   .     S
C688   C902    1.522   .     S
C689   C690    1.433   .     S
C689   C1096   1.361   1_545 S
C689   C1107   1.515   1_545 S
C690   O737    1.272   .     A
C690   O743    1.271   .     A
C691   O738    1.266   .     A
C691   O744    1.274   .     A
C692   C697    1.408   .     A
C692   C89     1.514   1_556 S
C692   C91     1.393   1_556 S
C693   O730    1.268   .     A
C693   O732    1.282   .     A
C693   C696    1.457   .     S
C694   O731    1.284   .     A
C694   O733    1.295   .     A
C695   H723    1.083   .     S
C697   C700    1.484   .     S
C698   H728    1.111   .     S
C698   H727    1.111   .     S
C698   C1096   1.522   1_545 S
C698   H1134   1.109   1_545 S
C699   H713    1.111   .     S
C699   H714    1.110   .     S
C699   C893    1.515   .     S
C699   H916    1.112   .     S
C700   O734    1.221   .     D
C700   H715    1.085   .     S
C701   H717    1.111   .     S
C701   H718    1.111   .     S
C702   C710    1.485   .     S
C702   H719    1.086   .     S
C702   O735    1.221   .     D
C703   H725    1.076   .     S
C704   O736    1.221   .     D
C704   H720    1.085   .     S
C705   C706    1.423   .     A
C705   C91     1.410   1_556 S
C705   C95     1.425   1_556 S
C706   C710    1.427   .     A
C708   C709    1.392   .     A
C708   C95     1.420   1_556 S
C708   C83     1.401   1_556 S
C709   H722    1.086   .     S
C709   C710    1.393   .     A
H712   C1107   1.112   1_545 S
H716   C89     1.107   1_556 S
H721   C755    1.086   .     S
H726   C902    1.109   .     S
O729   Zn748   1.931   .     S
O729   Zn745   1.971   .     S
O729   Zn746   1.934   .     S
O729   Zn747   1.934   .     S
O730   Zn746   1.921   .     S
O731   Zn748   1.933   .     S
O732   Zn747   1.921   .     S
O733   Zn745   1.912   .     S
O737   Zn745   1.937   .     S
O738   Zn748   1.946   .     S
O739   Zn746   1.927   .     S
O740   Zn747   1.940   .     S
O741   Zn748   1.929   .     S
O742   Zn745   1.921   .     S
O743   Zn746   1.956   .     S
O744   Zn747   1.944   .     S
C749   O807    1.266   .     A
C749   C755    1.438   .     S
C749   O809    1.267   .     A
C750   C775    1.416   .     A
C750   H792    1.076   .     S
C750   C764    1.393   .     A
C751   C764    1.397   .     A
C751   C763    1.388   .     A
C751   H779    1.084   .     S
C752   O808    1.283   .     A
C752   C754    1.466   .     S
C752   O810    1.289   .     A
C753   C762    1.484   .     S
C753   C765    1.428   .     A
C753   C774    1.426   .     A
C754   C619    1.347   1_655 S
C754   C636    1.499   1_655 S
C756   C759    1.465   .     S
C756   C961    1.361   .     S
C756   C970    1.522   .     S
C757   C758    1.433   .     S
C757   C1164   1.361   1_545 S
C757   C1175   1.515   1_545 S
C758   O805    1.272   .     A
C758   O811    1.271   .     A
C759   O806    1.266   .     A
C759   O812    1.274   .     A
C760   C765    1.408   .     A
C760   C157    1.514   1_556 S
C760   C159    1.393   1_556 S
C761   O798    1.268   .     A
C761   O800    1.282   .     A
C761   C764    1.457   .     S
C762   O799    1.284   .     A
C762   O801    1.295   .     A
C763   H791    1.083   .     S
C765   C768    1.484   .     S
C766   H796    1.111   .     S
C766   H795    1.111   .     S
C766   C1164   1.522   1_545 S
C766   H1202   1.109   1_545 S
C767   H781    1.111   .     S
C767   H782    1.110   .     S
C767   C961    1.515   .     S
C767   H984    1.112   .     S
C768   O802    1.221   .     D
C768   H783    1.085   .     S
C769   H785    1.111   .     S
C769   H786    1.111   .     S
C770   C778    1.485   .     S
C770   H787    1.086   .     S
C770   O803    1.221   .     D
C771   H793    1.076   .     S
C772   O804    1.221   .     D
C772   H788    1.085   .     S
C773   C774    1.423   .     A
C773   C159    1.410   1_556 S
C773   C163    1.425   1_556 S
C774   C778    1.427   .     A
C776   C777    1.392   .     A
C776   C163    1.420   1_556 S
C776   C151    1.401   1_556 S
C777   H790    1.086   .     S
C777   C778    1.393   .     A
H780   C1175   1.112   1_545 S
H784   C157    1.107   1_556 S
H789   C619    1.086   1_655 S
H794   C970    1.109   .     S
O797   Zn816   1.931   .     S
O797   Zn813   1.971   .     S
O797   Zn814   1.934   .     S
O797   Zn815   1.934   .     S
O798   Zn814   1.921   .     S
O799   Zn816   1.933   .     S
O800   Zn815   1.921   .     S
O801   Zn813   1.912   .     S
O805   Zn813   1.937   .     S
O806   Zn816   1.946   .     S
O807   Zn814   1.927   .     S
O808   Zn815   1.940   .     S
O809   Zn816   1.929   .     S
O810   Zn813   1.921   .     S
O811   Zn814   1.956   .     S
O812   Zn815   1.944   .     S
C817   O875    1.266   .     A
C817   C823    1.438   .     S
C817   O877    1.267   .     A
C818   C843    1.416   .     A
C818   H860    1.076   .     S
C818   C832    1.393   .     A
C819   C832    1.397   .     A
C819   C831    1.388   .     A
C819   H847    1.084   .     S
C820   O876    1.283   .     A
C820   C822    1.466   .     S
C820   O878    1.289   .     A
C821   C830    1.484   .     S
C821   C833    1.428   .     A
C821   C842    1.426   .     A
C822   C891    1.347   .     S
C822   C908    1.499   .     S
C823   C958    1.347   1_455 S
C823   H993    1.086   1_455 S
C824   C827    1.465   .     S
C824   C1029   1.361   .     S
C824   C1038   1.522   .     S
C825   C826    1.433   .     S
C826   O873    1.272   .     A
C826   O879    1.271   .     A
C827   O874    1.266   .     A
C827   O880    1.274   .     A
C828   C833    1.408   .     A
C828   C225    1.514   1_556 S
C828   C227    1.393   1_556 S
C829   O866    1.268   .     A
C829   O868    1.282   .     A
C829   C832    1.457   .     S
C830   O867    1.284   .     A
C830   O869    1.295   .     A
C831   H859    1.083   .     S
C833   C836    1.484   .     S
C834   H864    1.111   .     S
C834   H863    1.111   .     S
C835   H849    1.111   .     S
C835   H850    1.110   .     S
C835   C1029   1.515   .     S
C835   H1052   1.112   .     S
C836   O870    1.221   .     D
C836   H851    1.085   .     S
C837   H853    1.111   .     S
C837   H854    1.111   .     S
C838   C846    1.485   .     S
C838   H855    1.086   .     S
C838   O871    1.221   .     D
C839   H861    1.076   .     S
C840   O872    1.221   .     D
C840   H856    1.085   .     S
C840   C958    1.499   1_455 S
C841   C842    1.423   .     A
C841   C227    1.410   1_556 S
C841   C231    1.425   1_556 S
C842   C846    1.427   .     A
C844   C845    1.392   .     A
C844   C231    1.420   1_556 S
C844   C219    1.401   1_556 S
C845   H858    1.086   .     S
C845   C846    1.393   .     A
H852   C225    1.107   1_556 S
H857   C891    1.086   .     S
H862   C1038   1.109   .     S
O865   Zn884   1.931   .     S
O865   Zn881   1.971   .     S
O865   Zn882   1.934   .     S
O865   Zn883   1.934   .     S
O866   Zn882   1.921   .     S
O867   Zn884   1.933   .     S
O868   Zn883   1.921   .     S
O869   Zn881   1.912   .     S
O873   Zn881   1.937   .     S
O874   Zn884   1.946   .     S
O875   Zn882   1.927   .     S
O876   Zn883   1.940   .     S
O877   Zn884   1.929   .     S
O878   Zn881   1.921   .     S
O879   Zn882   1.956   .     S
O880   Zn883   1.944   .     S
C885   O943    1.266   .     A
C885   C891    1.438   .     S
C885   O945    1.267   .     A
C886   C911    1.416   .     A
C886   H928    1.076   .     S
C886   C900    1.393   .     A
C887   C900    1.397   .     A
C887   C899    1.388   .     A
C887   H915    1.084   .     S
C888   O944    1.283   .     A
C888   C890    1.466   .     S
C888   O946    1.289   .     A
C889   C898    1.484   .     S
C889   C901    1.428   .     A
C889   C910    1.426   .     A
C890   C959    1.347   .     S
C890   C976    1.499   .     S
C892   C895    1.465   .     S
C892   C1097   1.361   .     S
C892   C1106   1.522   .     S
C893   C894    1.433   .     S
C894   O941    1.272   .     A
C894   O947    1.271   .     A
C895   O942    1.266   .     A
C895   O948    1.274   .     A
C896   C901    1.408   .     A
C896   C293    1.514   1_556 S
C896   C295    1.393   1_556 S
C897   O934    1.268   .     A
C897   O936    1.282   .     A
C897   C900    1.457   .     S
C898   O935    1.284   .     A
C898   O937    1.295   .     A
C899   H927    1.083   .     S
C901   C904    1.484   .     S
C902   H932    1.111   .     S
C902   H931    1.111   .     S
C903   H917    1.111   .     S
C903   H918    1.110   .     S
C903   C1097   1.515   .     S
C903   H1120   1.112   .     S
C904   O938    1.221   .     D
C904   H919    1.085   .     S
C905   H921    1.111   .     S
C905   H922    1.111   .     S
C906   C914    1.485   .     S
C906   H923    1.086   .     S
C906   O939    1.221   .     D
C907   H929    1.076   .     S
C908   O940    1.221   .     D
C908   H924    1.085   .     S
C909   C910    1.423   .     A
C909   C295    1.410   1_556 S
C909   C299    1.425   1_556 S
C910   C914    1.427   .     A
C912   C913    1.392   .     A
C912   C299    1.420   1_556 S
C912   C287    1.401   1_556 S
C913   H926    1.086   .     S
C913   C914    1.393   .     A
H920   C293    1.107   1_556 S
H925   C959    1.086   .     S
H930   C1106   1.109   .     S
O933   Zn952   1.931   .     S
O933   Zn949   1.971   .     S
O933   Zn950   1.934   .     S
O933   Zn951   1.934   .     S
O934   Zn950   1.921   .     S
O935   Zn952   1.933   .     S
O936   Zn951   1.921   .     S
O937   Zn949   1.912   .     S
O941   Zn949   1.937   .     S
O942   Zn952   1.946   .     S
O943   Zn950   1.927   .     S
O944   Zn951   1.940   .     S
O945   Zn952   1.929   .     S
O946   Zn949   1.921   .     S
O947   Zn950   1.956   .     S
O948   Zn951   1.944   .     S
C953   O1011   1.266   .     A
C953   C959    1.438   .     S
C953   O1013   1.267   .     A
C954   C979    1.416   .     A
C954   H996    1.076   .     S
C954   C968    1.393   .     A
C955   C968    1.397   .     A
C955   C967    1.388   .     A
C955   H983    1.084   .     S
C956   O1012   1.283   .     A
C956   C958    1.466   .     S
C956   O1014   1.289   .     A
C957   C966    1.484   .     S
C957   C969    1.428   .     A
C957   C978    1.426   .     A
C958   C823    1.347   1_655 S
C958   C840    1.499   1_655 S
C960   C963    1.465   .     S
C960   C1165   1.361   .     S
C960   C1174   1.522   .     S
C961   C962    1.433   .     S
C962   O1009   1.272   .     A
C962   O1015   1.271   .     A
C963   O1010   1.266   .     A
C963   O1016   1.274   .     A
C964   C969    1.408   .     A
C964   C361    1.514   1_556 S
C964   C363    1.393   1_556 S
C965   O1002   1.268   .     A
C965   O1004   1.282   .     A
C965   C968    1.457   .     S
C966   O1003   1.284   .     A
C966   O1005   1.295   .     A
C967   H995    1.083   .     S
C969   C972    1.484   .     S
C970   H1000   1.111   .     S
C970   H999    1.111   .     S
C971   H985    1.111   .     S
C971   H986    1.110   .     S
C971   C1165   1.515   .     S
C971   H1188   1.112   .     S
C972   O1006   1.221   .     D
C972   H987    1.085   .     S
C973   H989    1.111   .     S
C973   H990    1.111   .     S
C974   C982    1.485   .     S
C974   H991    1.086   .     S
C974   O1007   1.221   .     D
C975   H997    1.076   .     S
C976   O1008   1.221   .     D
C976   H992    1.085   .     S
C977   C978    1.423   .     A
C977   C363    1.410   1_556 S
C977   C367    1.425   1_556 S
C978   C982    1.427   .     A
C980   C981    1.392   .     A
C980   C367    1.420   1_556 S
C980   C355    1.401   1_556 S
C981   H994    1.086   .     S
C981   C982    1.393   .     A
H988   C361    1.107   1_556 S
H993   C823    1.086   1_655 S
H998   C1174   1.109   .     S
O1001  Zn1020  1.931   .     S
O1001  Zn1017  1.971   .     S
O1001  Zn1018  1.934   .     S
O1001  Zn1019  1.934   .     S
O1002  Zn1018  1.921   .     S
O1003  Zn1020  1.933   .     S
O1004  Zn1019  1.921   .     S
O1005  Zn1017  1.912   .     S
O1009  Zn1017  1.937   .     S
O1010  Zn1020  1.946   .     S
O1011  Zn1018  1.927   .     S
O1012  Zn1019  1.940   .     S
O1013  Zn1020  1.929   .     S
O1014  Zn1017  1.921   .     S
O1015  Zn1018  1.956   .     S
O1016  Zn1019  1.944   .     S
C1021  O1079   1.266   .     A
C1021  C1027   1.438   .     S
C1021  O1081   1.267   .     A
C1022  C1047   1.416   .     A
C1022  H1064   1.076   .     S
C1022  C1036   1.393   .     A
C1023  C1036   1.397   .     A
C1023  C1035   1.388   .     A
C1023  H1051   1.084   .     S
C1024  O1080   1.283   .     A
C1024  C1026   1.466   .     S
C1024  O1082   1.289   .     A
C1025  C1034   1.484   .     S
C1025  C1037   1.428   .     A
C1025  C1046   1.426   .     A
C1026  C1095   1.347   .     S
C1026  C1112   1.499   .     S
C1027  C1162   1.347   1_455 S
C1027  H1197   1.086   1_455 S
C1028  C1031   1.465   .     S
C1028  C621    1.361   1_565 S
C1028  C630    1.522   1_565 S
C1029  C1030   1.433   .     S
C1030  O1077   1.272   .     A
C1030  O1083   1.271   .     A
C1031  O1078   1.266   .     A
C1031  O1084   1.274   .     A
C1032  C1037   1.408   .     A
C1032  C429    1.514   1_556 S
C1032  C431    1.393   1_556 S
C1033  O1070   1.268   .     A
C1033  O1072   1.282   .     A
C1033  C1036   1.457   .     S
C1034  O1071   1.284   .     A
C1034  O1073   1.295   .     A
C1035  H1063   1.083   .     S
C1037  C1040   1.484   .     S
C1038  H1068   1.111   .     S
C1038  H1067   1.111   .     S
C1039  H1053   1.111   .     S
C1039  H1054   1.110   .     S
C1039  C621    1.515   1_565 S
C1039  H644    1.112   1_565 S
C1040  O1074   1.221   .     D
C1040  H1055   1.085   .     S
C1041  H1057   1.111   .     S
C1041  H1058   1.111   .     S
C1042  C1050   1.485   .     S
C1042  H1059   1.086   .     S
C1042  O1075   1.221   .     D
C1043  H1065   1.076   .     S
C1044  O1076   1.221   .     D
C1044  H1060   1.085   .     S
C1044  C1162   1.499   1_455 S
C1045  C1046   1.423   .     A
C1045  C431    1.410   1_556 S
C1045  C435    1.425   1_556 S
C1046  C1050   1.427   .     A
C1048  C1049   1.392   .     A
C1048  C435    1.420   1_556 S
C1048  C423    1.401   1_556 S
C1049  H1062   1.086   .     S
C1049  C1050   1.393   .     A
H1056  C429    1.107   1_556 S
H1061  C1095   1.086   .     S
H1066  C630    1.109   1_565 S
O1069  Zn1088  1.931   .     S
O1069  Zn1085  1.971   .     S
O1069  Zn1086  1.934   .     S
O1069  Zn1087  1.934   .     S
O1070  Zn1086  1.921   .     S
O1071  Zn1088  1.933   .     S
O1072  Zn1087  1.921   .     S
O1073  Zn1085  1.912   .     S
O1077  Zn1085  1.937   .     S
O1078  Zn1088  1.946   .     S
O1079  Zn1086  1.927   .     S
O1080  Zn1087  1.940   .     S
O1081  Zn1088  1.929   .     S
O1082  Zn1085  1.921   .     S
O1083  Zn1086  1.956   .     S
O1084  Zn1087  1.944   .     S
C1089  O1147   1.266   .     A
C1089  C1095   1.438   .     S
C1089  O1149   1.267   .     A
C1090  C1115   1.416   .     A
C1090  H1132   1.076   .     S
C1090  C1104   1.393   .     A
C1091  C1104   1.397   .     A
C1091  C1103   1.388   .     A
C1091  H1119   1.084   .     S
C1092  O1148   1.283   .     A
C1092  C1094   1.466   .     S
C1092  O1150   1.289   .     A
C1093  C1102   1.484   .     S
C1093  C1105   1.428   .     A
C1093  C1114   1.426   .     A
C1094  C1163   1.347   .     S
C1094  C1180   1.499   .     S
C1096  C1099   1.465   .     S
C1096  C689    1.361   1_565 S
C1096  C698    1.522   1_565 S
C1097  C1098   1.433   .     S
C1098  O1145   1.272   .     A
C1098  O1151   1.271   .     A
C1099  O1146   1.266   .     A
C1099  O1152   1.274   .     A
C1100  C1105   1.408   .     A
C1100  C497    1.514   1_556 S
C1100  C499    1.393   1_556 S
C1101  O1138   1.268   .     A
C1101  O1140   1.282   .     A
C1101  C1104   1.457   .     S
C1102  O1139   1.284   .     A
C1102  O1141   1.295   .     A
C1103  H1131   1.083   .     S
C1105  C1108   1.484   .     S
C1106  H1136   1.111   .     S
C1106  H1135   1.111   .     S
C1107  H1121   1.111   .     S
C1107  H1122   1.110   .     S
C1107  C689    1.515   1_565 S
C1107  H712    1.112   1_565 S
C1108  O1142   1.221   .     D
C1108  H1123   1.085   .     S
C1109  H1125   1.111   .     S
C1109  H1126   1.111   .     S
C1110  C1118   1.485   .     S
C1110  H1127   1.086   .     S
C1110  O1143   1.221   .     D
C1111  H1133   1.076   .     S
C1112  O1144   1.221   .     D
C1112  H1128   1.085   .     S
C1113  C1114   1.423   .     A
C1113  C499    1.410   1_556 S
C1113  C503    1.425   1_556 S
C1114  C1118   1.427   .     A
C1116  C1117   1.392   .     A
C1116  C503    1.420   1_556 S
C1116  C491    1.401   1_556 S
C1117  H1130   1.086   .     S
C1117  C1118   1.393   .     A
H1124  C497    1.107   1_556 S
H1129  C1163   1.086   .     S
H1134  C698    1.109   1_565 S
O1137  Zn1156  1.931   .     S
O1137  Zn1153  1.971   .     S
O1137  Zn1154  1.934   .     S
O1137  Zn1155  1.934   .     S
O1138  Zn1154  1.921   .     S
O1139  Zn1156  1.933   .     S
O1140  Zn1155  1.921   .     S
O1141  Zn1153  1.912   .     S
O1145  Zn1153  1.937   .     S
O1146  Zn1156  1.946   .     S
O1147  Zn1154  1.927   .     S
O1148  Zn1155  1.940   .     S
O1149  Zn1156  1.929   .     S
O1150  Zn1153  1.921   .     S
O1151  Zn1154  1.956   .     S
O1152  Zn1155  1.944   .     S
C1157  O1215   1.266   .     A
C1157  C1163   1.438   .     S
C1157  O1217   1.267   .     A
C1158  C1183   1.416   .     A
C1158  H1200   1.076   .     S
C1158  C1172   1.393   .     A
C1159  C1172   1.397   .     A
C1159  C1171   1.388   .     A
C1159  H1187   1.084   .     S
C1160  O1216   1.283   .     A
C1160  C1162   1.466   .     S
C1160  O1218   1.289   .     A
C1161  C1170   1.484   .     S
C1161  C1173   1.428   .     A
C1161  C1182   1.426   .     A
C1162  C1027   1.347   1_655 S
C1162  C1044   1.499   1_655 S
C1164  C1167   1.465   .     S
C1164  C757    1.361   1_565 S
C1164  C766    1.522   1_565 S
C1165  C1166   1.433   .     S
C1166  O1213   1.272   .     A
C1166  O1219   1.271   .     A
C1167  O1214   1.266   .     A
C1167  O1220   1.274   .     A
C1168  C1173   1.408   .     A
C1168  C565    1.514   1_556 S
C1168  C567    1.393   1_556 S
C1169  O1206   1.268   .     A
C1169  O1208   1.282   .     A
C1169  C1172   1.457   .     S
C1170  O1207   1.284   .     A
C1170  O1209   1.295   .     A
C1171  H1199   1.083   .     S
C1173  C1176   1.484   .     S
C1174  H1204   1.111   .     S
C1174  H1203   1.111   .     S
C1175  H1189   1.111   .     S
C1175  H1190   1.110   .     S
C1175  C757    1.515   1_565 S
C1175  H780    1.112   1_565 S
C1176  O1210   1.221   .     D
C1176  H1191   1.085   .     S
C1177  H1193   1.111   .     S
C1177  H1194   1.111   .     S
C1178  C1186   1.485   .     S
C1178  H1195   1.086   .     S
C1178  O1211   1.221   .     D
C1179  H1201   1.076   .     S
C1180  O1212   1.221   .     D
C1180  H1196   1.085   .     S
C1181  C1182   1.423   .     A
C1181  C567    1.410   1_556 S
C1181  C571    1.425   1_556 S
C1182  C1186   1.427   .     A
C1184  C1185   1.392   .     A
C1184  C571    1.420   1_556 S
C1184  C559    1.401   1_556 S
C1185  H1198   1.086   .     S
C1185  C1186   1.393   .     A
H1192  C565    1.107   1_556 S
H1197  C1027   1.086   1_655 S
H1202  C766    1.109   1_565 S
O1205  Zn1224  1.931   .     S
O1205  Zn1221  1.971   .     S
O1205  Zn1222  1.934   .     S
O1205  Zn1223  1.934   .     S
O1206  Zn1222  1.921   .     S
O1207  Zn1224  1.933   .     S
O1208  Zn1223  1.921   .     S
O1209  Zn1221  1.912   .     S
O1213  Zn1221  1.937   .     S
O1214  Zn1224  1.946   .     S
O1215  Zn1222  1.927   .     S
O1216  Zn1223  1.940   .     S
O1217  Zn1224  1.929   .     S
O1218  Zn1221  1.921   .     S
O1219  Zn1222  1.956   .     S
O1220  Zn1223  1.944   .     S
