data_str_m3_o1_o10_pcu_sym.168
_audit_creation_date              2020-01-03
_audit_creation_method            'Materials Studio'
_symmetry_space_group_name_H-M    'P1'
_symmetry_Int_Tables_number       1
_symmetry_cell_setting            triclinic
loop_
_symmetry_equiv_pos_as_xyz
  x,y,z
_cell_length_a                    25.7358
_cell_length_b                    31.9151
_cell_length_c                    29.7943
_cell_angle_alpha                 88.5081
_cell_angle_beta                  98.6822
_cell_angle_gamma                 92.9571
loop_
_atom_site_label
_atom_site_type_symbol
_atom_site_fract_x
_atom_site_fract_y
_atom_site_fract_z
_atom_site_U_iso_or_equiv
_atom_site_adp_type
_atom_site_occupancy
C1     C     0.17304   0.08700   0.16809   0.00000  Uiso   1.00
C2     C     0.16045   0.24637   0.16526   0.00000  Uiso   1.00
C3     C     0.06712   0.16633   0.15476   0.00000  Uiso   1.00
C4     C     0.26622   0.16701   0.17858   0.00000  Uiso   1.00
C5     C     0.01196   0.16529   0.14849   0.00000  Uiso   1.00
C6     C     0.32138   0.16806   0.18484   0.00000  Uiso   1.00
C7     C     0.18518   0.02203   0.13002   0.00000  Uiso   1.00
C8     C     0.14877   0.31141   0.20341   0.00000  Uiso   1.00
C9     C     0.16564   0.31427   0.12439   0.00000  Uiso   1.00
C10    C     0.16842   0.01913   0.20905   0.00000  Uiso   1.00
C11    C     0.15366   0.29118   0.16298   0.00000  Uiso   1.00
C12    C     0.18020   0.04225   0.17042   0.00000  Uiso   1.00
C13    C     0.20231   0.19175   0.02779   0.00000  Uiso   1.00
C14    C     0.13106   0.14156   0.30554   0.00000  Uiso   1.00
C15    C     0.20068   0.19322   0.31300   0.00000  Uiso   1.00
C16    C     0.13265   0.14011   0.02033   0.00000  Uiso   1.00
H17    H     0.32453   0.16174   0.11413   0.00000  Uiso   1.00
H18    H     0.00881   0.17161   0.21920   0.00000  Uiso   1.00
N19    N     0.16665   0.16666   0.28573   0.00000  Uiso   1.00
N20    N     0.16668   0.16668   0.04760   0.00000  Uiso   1.00
O21    O     0.16666   0.10558   0.20487   0.00000  Uiso   1.00
O22    O     0.16667   0.22775   0.12846   0.00000  Uiso   1.00
O23    O     0.16666   0.10559   0.12843   0.00000  Uiso   1.00
O24    O     0.16667   0.22774   0.20490   0.00000  Uiso   1.00
O25    O     0.09058   0.16666   0.19595   0.00000  Uiso   1.00
O26    O     0.24275   0.16667   0.13739   0.00000  Uiso   1.00
O27    O     0.09058   0.16667   0.11950   0.00000  Uiso   1.00
O28    O     0.24275   0.16666   0.21383   0.00000  Uiso   1.00
Zn29   Zn    0.16667   0.16666   0.21771   0.00000  Uiso   1.00
Zn30   Zn    0.16667   0.16667   0.11563   0.00000  Uiso   1.00
I31    I     0.22834   0.05113   0.07983   0.00000  Uiso   1.00
I32    I     0.10536   0.28247   0.25351   0.00000  Uiso   1.00
C33    C     0.15277   0.29777   0.07755   0.00000  Uiso   1.00
H34    H     0.17764   0.30571   0.05201   0.00000  Uiso   1.00
O35    O     0.11249   0.27620   0.06646   0.00000  Uiso   1.00
C36    C     0.18157   0.03561   0.25590   0.00000  Uiso   1.00
H37    H     0.15726   0.02723   0.28174   0.00000  Uiso   1.00
O38    O     0.22154   0.05763   0.26667   0.00000  Uiso   1.00
C39    C     0.24799   0.21286   0.05588   0.00000  Uiso   1.00
H40    H     0.28733   0.20713   0.04928   0.00000  Uiso   1.00
O41    O     0.24271   0.23893   0.08368   0.00000  Uiso   1.00
C42    C     0.08547   0.12036   0.27743   0.00000  Uiso   1.00
H43    H     0.04608   0.12623   0.28378   0.00000  Uiso   1.00
O44    O     0.09089   0.09406   0.24991   0.00000  Uiso   1.00
C45    C     0.23289   0.22631   0.29230   0.00000  Uiso   1.00
H46    H     0.24856   0.22136   0.26166   0.00000  Uiso   1.00
O47    O     0.24127   0.26092   0.30921   0.00000  Uiso   1.00
C48    C     0.10044   0.10703   0.04103   0.00000  Uiso   1.00
H49    H     0.08474   0.11198   0.07166   0.00000  Uiso   1.00
O50    O     0.09208   0.07240   0.02415   0.00000  Uiso   1.00
C51    C     0.50638   0.08700   0.16809   0.00000  Uiso   1.00
C52    C     0.49378   0.24637   0.16526   0.00000  Uiso   1.00
C53    C     0.40045   0.16633   0.15476   0.00000  Uiso   1.00
C54    C     0.59955   0.16701   0.17858   0.00000  Uiso   1.00
C55    C     0.34529   0.16529   0.14849   0.00000  Uiso   1.00
C56    C     0.65471   0.16806   0.18484   0.00000  Uiso   1.00
C57    C     0.51851   0.02203   0.13002   0.00000  Uiso   1.00
C58    C     0.48210   0.31141   0.20341   0.00000  Uiso   1.00
C59    C     0.49897   0.31427   0.12439   0.00000  Uiso   1.00
C60    C     0.50175   0.01913   0.20905   0.00000  Uiso   1.00
C61    C     0.48699   0.29118   0.16298   0.00000  Uiso   1.00
C62    C     0.51353   0.04225   0.17042   0.00000  Uiso   1.00
C63    C     0.53564   0.19175   0.02779   0.00000  Uiso   1.00
C64    C     0.46439   0.14156   0.30554   0.00000  Uiso   1.00
C65    C     0.53402   0.19322   0.31300   0.00000  Uiso   1.00
C66    C     0.46599   0.14011   0.02033   0.00000  Uiso   1.00
H67    H     0.65786   0.16174   0.11413   0.00000  Uiso   1.00
H68    H     0.34214   0.17161   0.21920   0.00000  Uiso   1.00
N69    N     0.49999   0.16666   0.28573   0.00000  Uiso   1.00
N70    N     0.50001   0.16668   0.04760   0.00000  Uiso   1.00
O71    O     0.50000   0.10558   0.20487   0.00000  Uiso   1.00
O72    O     0.50000   0.22775   0.12846   0.00000  Uiso   1.00
O73    O     0.50000   0.10559   0.12843   0.00000  Uiso   1.00
O74    O     0.50000   0.22774   0.20490   0.00000  Uiso   1.00
O75    O     0.42392   0.16666   0.19595   0.00000  Uiso   1.00
O76    O     0.57608   0.16667   0.13739   0.00000  Uiso   1.00
O77    O     0.42392   0.16667   0.11950   0.00000  Uiso   1.00
O78    O     0.57608   0.16666   0.21383   0.00000  Uiso   1.00
Zn79   Zn    0.50000   0.16666   0.21771   0.00000  Uiso   1.00
Zn80   Zn    0.50000   0.16667   0.11563   0.00000  Uiso   1.00
I81    I     0.56167   0.05113   0.07983   0.00000  Uiso   1.00
I82    I     0.43869   0.28247   0.25351   0.00000  Uiso   1.00
C83    C     0.48610   0.29777   0.07755   0.00000  Uiso   1.00
H84    H     0.51097   0.30571   0.05201   0.00000  Uiso   1.00
O85    O     0.44582   0.27620   0.06646   0.00000  Uiso   1.00
C86    C     0.51491   0.03561   0.25590   0.00000  Uiso   1.00
H87    H     0.49059   0.02723   0.28174   0.00000  Uiso   1.00
O88    O     0.55488   0.05763   0.26667   0.00000  Uiso   1.00
C89    C     0.58132   0.21286   0.05588   0.00000  Uiso   1.00
H90    H     0.62066   0.20713   0.04928   0.00000  Uiso   1.00
O91    O     0.57605   0.23893   0.08368   0.00000  Uiso   1.00
C92    C     0.41881   0.12036   0.27743   0.00000  Uiso   1.00
H93    H     0.37942   0.12623   0.28378   0.00000  Uiso   1.00
O94    O     0.42422   0.09406   0.24991   0.00000  Uiso   1.00
C95    C     0.56622   0.22631   0.29230   0.00000  Uiso   1.00
H96    H     0.58190   0.22136   0.26166   0.00000  Uiso   1.00
O97    O     0.57461   0.26092   0.30921   0.00000  Uiso   1.00
C98    C     0.43378   0.10703   0.04103   0.00000  Uiso   1.00
H99    H     0.41807   0.11198   0.07166   0.00000  Uiso   1.00
O100   O     0.42542   0.07240   0.02415   0.00000  Uiso   1.00
C101   C     0.83971   0.08700   0.16809   0.00000  Uiso   1.00
C102   C     0.82711   0.24637   0.16526   0.00000  Uiso   1.00
C103   C     0.73378   0.16633   0.15476   0.00000  Uiso   1.00
C104   C     0.93288   0.16701   0.17858   0.00000  Uiso   1.00
C105   C     0.67862   0.16529   0.14849   0.00000  Uiso   1.00
C106   C     0.98804   0.16806   0.18484   0.00000  Uiso   1.00
C107   C     0.85184   0.02203   0.13002   0.00000  Uiso   1.00
C108   C     0.81543   0.31141   0.20341   0.00000  Uiso   1.00
C109   C     0.83231   0.31427   0.12439   0.00000  Uiso   1.00
C110   C     0.83508   0.01913   0.20905   0.00000  Uiso   1.00
C111   C     0.82032   0.29118   0.16298   0.00000  Uiso   1.00
C112   C     0.84687   0.04225   0.17042   0.00000  Uiso   1.00
C113   C     0.86898   0.19175   0.02779   0.00000  Uiso   1.00
C114   C     0.79772   0.14156   0.30554   0.00000  Uiso   1.00
C115   C     0.86735   0.19322   0.31300   0.00000  Uiso   1.00
C116   C     0.79932   0.14011   0.02033   0.00000  Uiso   1.00
H117   H     0.99119   0.16174   0.11413   0.00000  Uiso   1.00
H118   H     0.67548   0.17161   0.21920   0.00000  Uiso   1.00
N119   N     0.83332   0.16666   0.28573   0.00000  Uiso   1.00
N120   N     0.83335   0.16668   0.04760   0.00000  Uiso   1.00
O121   O     0.83333   0.10558   0.20487   0.00000  Uiso   1.00
O122   O     0.83334   0.22775   0.12846   0.00000  Uiso   1.00
O123   O     0.83333   0.10559   0.12843   0.00000  Uiso   1.00
O124   O     0.83334   0.22774   0.20490   0.00000  Uiso   1.00
O125   O     0.75725   0.16666   0.19595   0.00000  Uiso   1.00
O126   O     0.90942   0.16667   0.13739   0.00000  Uiso   1.00
O127   O     0.75725   0.16667   0.11950   0.00000  Uiso   1.00
O128   O     0.90942   0.16666   0.21383   0.00000  Uiso   1.00
Zn129  Zn    0.83333   0.16666   0.21771   0.00000  Uiso   1.00
Zn130  Zn    0.83333   0.16667   0.11563   0.00000  Uiso   1.00
I131   I     0.89500   0.05113   0.07983   0.00000  Uiso   1.00
I132   I     0.77203   0.28247   0.25351   0.00000  Uiso   1.00
C133   C     0.81943   0.29777   0.07755   0.00000  Uiso   1.00
H134   H     0.84430   0.30571   0.05201   0.00000  Uiso   1.00
O135   O     0.77916   0.27620   0.06646   0.00000  Uiso   1.00
C136   C     0.84824   0.03561   0.25590   0.00000  Uiso   1.00
H137   H     0.82393   0.02723   0.28174   0.00000  Uiso   1.00
O138   O     0.88821   0.05763   0.26667   0.00000  Uiso   1.00
C139   C     0.91466   0.21286   0.05588   0.00000  Uiso   1.00
H140   H     0.95399   0.20713   0.04928   0.00000  Uiso   1.00
O141   O     0.90938   0.23893   0.08368   0.00000  Uiso   1.00
C142   C     0.75214   0.12036   0.27743   0.00000  Uiso   1.00
H143   H     0.71275   0.12623   0.28378   0.00000  Uiso   1.00
O144   O     0.75755   0.09406   0.24991   0.00000  Uiso   1.00
C145   C     0.89955   0.22631   0.29230   0.00000  Uiso   1.00
H146   H     0.91523   0.22136   0.26166   0.00000  Uiso   1.00
O147   O     0.90794   0.26092   0.30921   0.00000  Uiso   1.00
C148   C     0.76711   0.10703   0.04103   0.00000  Uiso   1.00
H149   H     0.75141   0.11198   0.07166   0.00000  Uiso   1.00
O150   O     0.75875   0.07240   0.02415   0.00000  Uiso   1.00
C151   C     0.17304   0.42033   0.16809   0.00000  Uiso   1.00
C152   C     0.16045   0.57971   0.16526   0.00000  Uiso   1.00
C153   C     0.06712   0.49966   0.15476   0.00000  Uiso   1.00
C154   C     0.26622   0.50034   0.17858   0.00000  Uiso   1.00
C155   C     0.01196   0.49862   0.14849   0.00000  Uiso   1.00
C156   C     0.32138   0.50139   0.18484   0.00000  Uiso   1.00
C157   C     0.18518   0.35536   0.13002   0.00000  Uiso   1.00
C158   C     0.14877   0.64474   0.20341   0.00000  Uiso   1.00
C159   C     0.16564   0.64761   0.12439   0.00000  Uiso   1.00
C160   C     0.16842   0.35247   0.20905   0.00000  Uiso   1.00
C161   C     0.15366   0.62451   0.16298   0.00000  Uiso   1.00
C162   C     0.18020   0.37558   0.17042   0.00000  Uiso   1.00
C163   C     0.20231   0.52508   0.02779   0.00000  Uiso   1.00
C164   C     0.13106   0.47489   0.30554   0.00000  Uiso   1.00
C165   C     0.20068   0.52655   0.31300   0.00000  Uiso   1.00
C166   C     0.13265   0.47344   0.02033   0.00000  Uiso   1.00
H167   H     0.32453   0.49508   0.11413   0.00000  Uiso   1.00
H168   H     0.00881   0.50494   0.21920   0.00000  Uiso   1.00
N169   N     0.16665   0.49999   0.28573   0.00000  Uiso   1.00
N170   N     0.16668   0.50001   0.04760   0.00000  Uiso   1.00
O171   O     0.16666   0.43892   0.20487   0.00000  Uiso   1.00
O172   O     0.16667   0.56108   0.12846   0.00000  Uiso   1.00
O173   O     0.16666   0.43893   0.12843   0.00000  Uiso   1.00
O174   O     0.16667   0.56107   0.20490   0.00000  Uiso   1.00
O175   O     0.09058   0.50000   0.19595   0.00000  Uiso   1.00
O176   O     0.24275   0.50000   0.13739   0.00000  Uiso   1.00
O177   O     0.09058   0.50000   0.11950   0.00000  Uiso   1.00
O178   O     0.24275   0.50000   0.21383   0.00000  Uiso   1.00
Zn179  Zn    0.16667   0.49999   0.21771   0.00000  Uiso   1.00
Zn180  Zn    0.16667   0.50001   0.11563   0.00000  Uiso   1.00
I181   I     0.22834   0.38447   0.07983   0.00000  Uiso   1.00
I182   I     0.10536   0.61580   0.25351   0.00000  Uiso   1.00
C183   C     0.15277   0.63110   0.07755   0.00000  Uiso   1.00
H184   H     0.17764   0.63905   0.05201   0.00000  Uiso   1.00
O185   O     0.11249   0.60954   0.06646   0.00000  Uiso   1.00
C186   C     0.18157   0.36895   0.25590   0.00000  Uiso   1.00
H187   H     0.15726   0.36056   0.28174   0.00000  Uiso   1.00
O188   O     0.22154   0.39096   0.26667   0.00000  Uiso   1.00
C189   C     0.24799   0.54619   0.05588   0.00000  Uiso   1.00
H190   H     0.28733   0.54047   0.04928   0.00000  Uiso   1.00
O191   O     0.24271   0.57226   0.08368   0.00000  Uiso   1.00
C192   C     0.08547   0.45370   0.27743   0.00000  Uiso   1.00
H193   H     0.04608   0.45956   0.28378   0.00000  Uiso   1.00
O194   O     0.09089   0.42739   0.24991   0.00000  Uiso   1.00
C195   C     0.23289   0.55964   0.29230   0.00000  Uiso   1.00
H196   H     0.24856   0.55470   0.26166   0.00000  Uiso   1.00
O197   O     0.24127   0.59425   0.30921   0.00000  Uiso   1.00
C198   C     0.10044   0.44036   0.04103   0.00000  Uiso   1.00
H199   H     0.08474   0.44532   0.07166   0.00000  Uiso   1.00
O200   O     0.09208   0.40574   0.02415   0.00000  Uiso   1.00
C201   C     0.50638   0.42033   0.16809   0.00000  Uiso   1.00
C202   C     0.49378   0.57971   0.16526   0.00000  Uiso   1.00
C203   C     0.40045   0.49966   0.15476   0.00000  Uiso   1.00
C204   C     0.59955   0.50034   0.17858   0.00000  Uiso   1.00
C205   C     0.34529   0.49862   0.14849   0.00000  Uiso   1.00
C206   C     0.65471   0.50139   0.18484   0.00000  Uiso   1.00
C207   C     0.51851   0.35536   0.13002   0.00000  Uiso   1.00
C208   C     0.48210   0.64474   0.20341   0.00000  Uiso   1.00
C209   C     0.49897   0.64761   0.12439   0.00000  Uiso   1.00
C210   C     0.50175   0.35247   0.20905   0.00000  Uiso   1.00
C211   C     0.48699   0.62451   0.16298   0.00000  Uiso   1.00
C212   C     0.51353   0.37558   0.17042   0.00000  Uiso   1.00
C213   C     0.53564   0.52508   0.02779   0.00000  Uiso   1.00
C214   C     0.46439   0.47489   0.30554   0.00000  Uiso   1.00
C215   C     0.53402   0.52655   0.31300   0.00000  Uiso   1.00
C216   C     0.46599   0.47344   0.02033   0.00000  Uiso   1.00
H217   H     0.65786   0.49508   0.11413   0.00000  Uiso   1.00
H218   H     0.34214   0.50494   0.21920   0.00000  Uiso   1.00
N219   N     0.49999   0.49999   0.28573   0.00000  Uiso   1.00
N220   N     0.50001   0.50001   0.04760   0.00000  Uiso   1.00
O221   O     0.50000   0.43892   0.20487   0.00000  Uiso   1.00
O222   O     0.50000   0.56108   0.12846   0.00000  Uiso   1.00
O223   O     0.50000   0.43893   0.12843   0.00000  Uiso   1.00
O224   O     0.50000   0.56107   0.20490   0.00000  Uiso   1.00
O225   O     0.42392   0.50000   0.19595   0.00000  Uiso   1.00
O226   O     0.57608   0.50000   0.13739   0.00000  Uiso   1.00
O227   O     0.42392   0.50000   0.11950   0.00000  Uiso   1.00
O228   O     0.57608   0.50000   0.21383   0.00000  Uiso   1.00
Zn229  Zn    0.50000   0.49999   0.21771   0.00000  Uiso   1.00
Zn230  Zn    0.50000   0.50001   0.11563   0.00000  Uiso   1.00
I231   I     0.56167   0.38447   0.07983   0.00000  Uiso   1.00
I232   I     0.43869   0.61580   0.25351   0.00000  Uiso   1.00
C233   C     0.48610   0.63110   0.07755   0.00000  Uiso   1.00
H234   H     0.51097   0.63905   0.05201   0.00000  Uiso   1.00
O235   O     0.44582   0.60954   0.06646   0.00000  Uiso   1.00
C236   C     0.51491   0.36895   0.25590   0.00000  Uiso   1.00
H237   H     0.49059   0.36056   0.28174   0.00000  Uiso   1.00
O238   O     0.55488   0.39096   0.26667   0.00000  Uiso   1.00
C239   C     0.58132   0.54619   0.05588   0.00000  Uiso   1.00
H240   H     0.62066   0.54047   0.04928   0.00000  Uiso   1.00
O241   O     0.57605   0.57226   0.08368   0.00000  Uiso   1.00
C242   C     0.41881   0.45370   0.27743   0.00000  Uiso   1.00
H243   H     0.37942   0.45956   0.28378   0.00000  Uiso   1.00
O244   O     0.42422   0.42739   0.24991   0.00000  Uiso   1.00
C245   C     0.56622   0.55964   0.29230   0.00000  Uiso   1.00
H246   H     0.58190   0.55470   0.26166   0.00000  Uiso   1.00
O247   O     0.57461   0.59425   0.30921   0.00000  Uiso   1.00
C248   C     0.43378   0.44036   0.04103   0.00000  Uiso   1.00
H249   H     0.41807   0.44532   0.07166   0.00000  Uiso   1.00
O250   O     0.42542   0.40574   0.02415   0.00000  Uiso   1.00
C251   C     0.83971   0.42033   0.16809   0.00000  Uiso   1.00
C252   C     0.82711   0.57971   0.16526   0.00000  Uiso   1.00
C253   C     0.73378   0.49966   0.15476   0.00000  Uiso   1.00
C254   C     0.93288   0.50034   0.17858   0.00000  Uiso   1.00
C255   C     0.67862   0.49862   0.14849   0.00000  Uiso   1.00
C256   C     0.98804   0.50139   0.18484   0.00000  Uiso   1.00
C257   C     0.85184   0.35536   0.13002   0.00000  Uiso   1.00
C258   C     0.81543   0.64474   0.20341   0.00000  Uiso   1.00
C259   C     0.83231   0.64761   0.12439   0.00000  Uiso   1.00
C260   C     0.83508   0.35247   0.20905   0.00000  Uiso   1.00
C261   C     0.82032   0.62451   0.16298   0.00000  Uiso   1.00
C262   C     0.84687   0.37558   0.17042   0.00000  Uiso   1.00
C263   C     0.86898   0.52508   0.02779   0.00000  Uiso   1.00
C264   C     0.79772   0.47489   0.30554   0.00000  Uiso   1.00
C265   C     0.86735   0.52655   0.31300   0.00000  Uiso   1.00
C266   C     0.79932   0.47344   0.02033   0.00000  Uiso   1.00
H267   H     0.99119   0.49508   0.11413   0.00000  Uiso   1.00
H268   H     0.67548   0.50494   0.21920   0.00000  Uiso   1.00
N269   N     0.83332   0.49999   0.28573   0.00000  Uiso   1.00
N270   N     0.83335   0.50001   0.04760   0.00000  Uiso   1.00
O271   O     0.83333   0.43892   0.20487   0.00000  Uiso   1.00
O272   O     0.83334   0.56108   0.12846   0.00000  Uiso   1.00
O273   O     0.83333   0.43893   0.12843   0.00000  Uiso   1.00
O274   O     0.83334   0.56107   0.20490   0.00000  Uiso   1.00
O275   O     0.75725   0.50000   0.19595   0.00000  Uiso   1.00
O276   O     0.90942   0.50000   0.13739   0.00000  Uiso   1.00
O277   O     0.75725   0.50000   0.11950   0.00000  Uiso   1.00
O278   O     0.90942   0.50000   0.21383   0.00000  Uiso   1.00
Zn279  Zn    0.83333   0.49999   0.21771   0.00000  Uiso   1.00
Zn280  Zn    0.83333   0.50001   0.11563   0.00000  Uiso   1.00
I281   I     0.89500   0.38447   0.07983   0.00000  Uiso   1.00
I282   I     0.77203   0.61580   0.25351   0.00000  Uiso   1.00
C283   C     0.81943   0.63110   0.07755   0.00000  Uiso   1.00
H284   H     0.84430   0.63905   0.05201   0.00000  Uiso   1.00
O285   O     0.77916   0.60954   0.06646   0.00000  Uiso   1.00
C286   C     0.84824   0.36895   0.25590   0.00000  Uiso   1.00
H287   H     0.82393   0.36056   0.28174   0.00000  Uiso   1.00
O288   O     0.88821   0.39096   0.26667   0.00000  Uiso   1.00
C289   C     0.91466   0.54619   0.05588   0.00000  Uiso   1.00
H290   H     0.95399   0.54047   0.04928   0.00000  Uiso   1.00
O291   O     0.90938   0.57226   0.08368   0.00000  Uiso   1.00
C292   C     0.75214   0.45370   0.27743   0.00000  Uiso   1.00
H293   H     0.71275   0.45956   0.28378   0.00000  Uiso   1.00
O294   O     0.75755   0.42739   0.24991   0.00000  Uiso   1.00
C295   C     0.89955   0.55964   0.29230   0.00000  Uiso   1.00
H296   H     0.91523   0.55470   0.26166   0.00000  Uiso   1.00
O297   O     0.90794   0.59425   0.30921   0.00000  Uiso   1.00
C298   C     0.76711   0.44036   0.04103   0.00000  Uiso   1.00
H299   H     0.75141   0.44532   0.07166   0.00000  Uiso   1.00
O300   O     0.75875   0.40574   0.02415   0.00000  Uiso   1.00
C301   C     0.17304   0.75367   0.16809   0.00000  Uiso   1.00
C302   C     0.16045   0.91304   0.16526   0.00000  Uiso   1.00
C303   C     0.06712   0.83300   0.15476   0.00000  Uiso   1.00
C304   C     0.26622   0.83368   0.17858   0.00000  Uiso   1.00
C305   C     0.01196   0.83196   0.14849   0.00000  Uiso   1.00
C306   C     0.32138   0.83472   0.18484   0.00000  Uiso   1.00
C307   C     0.18518   0.68869   0.13002   0.00000  Uiso   1.00
C308   C     0.14877   0.97808   0.20341   0.00000  Uiso   1.00
C309   C     0.16564   0.98094   0.12439   0.00000  Uiso   1.00
C310   C     0.16842   0.68580   0.20905   0.00000  Uiso   1.00
C311   C     0.15366   0.95785   0.16298   0.00000  Uiso   1.00
C312   C     0.18020   0.70891   0.17042   0.00000  Uiso   1.00
C313   C     0.20231   0.85841   0.02779   0.00000  Uiso   1.00
C314   C     0.13106   0.80823   0.30554   0.00000  Uiso   1.00
C315   C     0.20068   0.85989   0.31300   0.00000  Uiso   1.00
C316   C     0.13265   0.80677   0.02033   0.00000  Uiso   1.00
H317   H     0.32453   0.82841   0.11413   0.00000  Uiso   1.00
H318   H     0.00881   0.83827   0.21920   0.00000  Uiso   1.00
N319   N     0.16665   0.83332   0.28573   0.00000  Uiso   1.00
N320   N     0.16668   0.83334   0.04760   0.00000  Uiso   1.00
O321   O     0.16666   0.77225   0.20487   0.00000  Uiso   1.00
O322   O     0.16667   0.89442   0.12846   0.00000  Uiso   1.00
O323   O     0.16666   0.77226   0.12843   0.00000  Uiso   1.00
O324   O     0.16667   0.89441   0.20490   0.00000  Uiso   1.00
O325   O     0.09058   0.83333   0.19595   0.00000  Uiso   1.00
O326   O     0.24275   0.83334   0.13739   0.00000  Uiso   1.00
O327   O     0.09058   0.83334   0.11950   0.00000  Uiso   1.00
O328   O     0.24275   0.83333   0.21383   0.00000  Uiso   1.00
Zn329  Zn    0.16667   0.83333   0.21771   0.00000  Uiso   1.00
Zn330  Zn    0.16667   0.83334   0.11563   0.00000  Uiso   1.00
I331   I     0.22834   0.71780   0.07983   0.00000  Uiso   1.00
I332   I     0.10536   0.94913   0.25351   0.00000  Uiso   1.00
C333   C     0.15277   0.96444   0.07755   0.00000  Uiso   1.00
H334   H     0.17764   0.97238   0.05201   0.00000  Uiso   1.00
O335   O     0.11249   0.94287   0.06646   0.00000  Uiso   1.00
C336   C     0.18157   0.70228   0.25590   0.00000  Uiso   1.00
H337   H     0.15726   0.69390   0.28174   0.00000  Uiso   1.00
O338   O     0.22154   0.72429   0.26667   0.00000  Uiso   1.00
C339   C     0.24799   0.87952   0.05588   0.00000  Uiso   1.00
H340   H     0.28733   0.87380   0.04928   0.00000  Uiso   1.00
O341   O     0.24271   0.90559   0.08368   0.00000  Uiso   1.00
C342   C     0.08547   0.78703   0.27743   0.00000  Uiso   1.00
H343   H     0.04608   0.79290   0.28378   0.00000  Uiso   1.00
O344   O     0.09089   0.76073   0.24991   0.00000  Uiso   1.00
C345   C     0.23289   0.89297   0.29230   0.00000  Uiso   1.00
H346   H     0.24856   0.88803   0.26166   0.00000  Uiso   1.00
O347   O     0.24127   0.92759   0.30921   0.00000  Uiso   1.00
C348   C     0.10044   0.77370   0.04103   0.00000  Uiso   1.00
H349   H     0.08474   0.77865   0.07166   0.00000  Uiso   1.00
O350   O     0.09208   0.73907   0.02415   0.00000  Uiso   1.00
C351   C     0.50638   0.75367   0.16809   0.00000  Uiso   1.00
C352   C     0.49378   0.91304   0.16526   0.00000  Uiso   1.00
C353   C     0.40045   0.83300   0.15476   0.00000  Uiso   1.00
C354   C     0.59955   0.83368   0.17858   0.00000  Uiso   1.00
C355   C     0.34529   0.83196   0.14849   0.00000  Uiso   1.00
C356   C     0.65471   0.83472   0.18484   0.00000  Uiso   1.00
C357   C     0.51851   0.68869   0.13002   0.00000  Uiso   1.00
C358   C     0.48210   0.97808   0.20341   0.00000  Uiso   1.00
C359   C     0.49897   0.98094   0.12439   0.00000  Uiso   1.00
C360   C     0.50175   0.68580   0.20905   0.00000  Uiso   1.00
C361   C     0.48699   0.95785   0.16298   0.00000  Uiso   1.00
C362   C     0.51353   0.70891   0.17042   0.00000  Uiso   1.00
C363   C     0.53564   0.85841   0.02779   0.00000  Uiso   1.00
C364   C     0.46439   0.80823   0.30554   0.00000  Uiso   1.00
C365   C     0.53402   0.85989   0.31300   0.00000  Uiso   1.00
C366   C     0.46599   0.80677   0.02033   0.00000  Uiso   1.00
H367   H     0.65786   0.82841   0.11413   0.00000  Uiso   1.00
H368   H     0.34214   0.83827   0.21920   0.00000  Uiso   1.00
N369   N     0.49999   0.83332   0.28573   0.00000  Uiso   1.00
N370   N     0.50001   0.83334   0.04760   0.00000  Uiso   1.00
O371   O     0.50000   0.77225   0.20487   0.00000  Uiso   1.00
O372   O     0.50000   0.89442   0.12846   0.00000  Uiso   1.00
O373   O     0.50000   0.77226   0.12843   0.00000  Uiso   1.00
O374   O     0.50000   0.89441   0.20490   0.00000  Uiso   1.00
O375   O     0.42392   0.83333   0.19595   0.00000  Uiso   1.00
O376   O     0.57608   0.83334   0.13739   0.00000  Uiso   1.00
O377   O     0.42392   0.83334   0.11950   0.00000  Uiso   1.00
O378   O     0.57608   0.83333   0.21383   0.00000  Uiso   1.00
Zn379  Zn    0.50000   0.83333   0.21771   0.00000  Uiso   1.00
Zn380  Zn    0.50000   0.83334   0.11563   0.00000  Uiso   1.00
I381   I     0.56167   0.71780   0.07983   0.00000  Uiso   1.00
I382   I     0.43869   0.94913   0.25351   0.00000  Uiso   1.00
C383   C     0.48610   0.96444   0.07755   0.00000  Uiso   1.00
H384   H     0.51097   0.97238   0.05201   0.00000  Uiso   1.00
O385   O     0.44582   0.94287   0.06646   0.00000  Uiso   1.00
C386   C     0.51491   0.70228   0.25590   0.00000  Uiso   1.00
H387   H     0.49059   0.69390   0.28174   0.00000  Uiso   1.00
O388   O     0.55488   0.72429   0.26667   0.00000  Uiso   1.00
C389   C     0.58132   0.87952   0.05588   0.00000  Uiso   1.00
H390   H     0.62066   0.87380   0.04928   0.00000  Uiso   1.00
O391   O     0.57605   0.90559   0.08368   0.00000  Uiso   1.00
C392   C     0.41881   0.78703   0.27743   0.00000  Uiso   1.00
H393   H     0.37942   0.79290   0.28378   0.00000  Uiso   1.00
O394   O     0.42422   0.76073   0.24991   0.00000  Uiso   1.00
C395   C     0.56622   0.89297   0.29230   0.00000  Uiso   1.00
H396   H     0.58190   0.88803   0.26166   0.00000  Uiso   1.00
O397   O     0.57461   0.92759   0.30921   0.00000  Uiso   1.00
C398   C     0.43378   0.77370   0.04103   0.00000  Uiso   1.00
H399   H     0.41807   0.77865   0.07166   0.00000  Uiso   1.00
O400   O     0.42542   0.73907   0.02415   0.00000  Uiso   1.00
C401   C     0.83971   0.75367   0.16809   0.00000  Uiso   1.00
C402   C     0.82711   0.91304   0.16526   0.00000  Uiso   1.00
C403   C     0.73378   0.83300   0.15476   0.00000  Uiso   1.00
C404   C     0.93288   0.83368   0.17858   0.00000  Uiso   1.00
C405   C     0.67862   0.83196   0.14849   0.00000  Uiso   1.00
C406   C     0.98804   0.83472   0.18484   0.00000  Uiso   1.00
C407   C     0.85184   0.68869   0.13002   0.00000  Uiso   1.00
C408   C     0.81543   0.97808   0.20341   0.00000  Uiso   1.00
C409   C     0.83231   0.98094   0.12439   0.00000  Uiso   1.00
C410   C     0.83508   0.68580   0.20905   0.00000  Uiso   1.00
C411   C     0.82032   0.95785   0.16298   0.00000  Uiso   1.00
C412   C     0.84687   0.70891   0.17042   0.00000  Uiso   1.00
C413   C     0.86898   0.85841   0.02779   0.00000  Uiso   1.00
C414   C     0.79772   0.80823   0.30554   0.00000  Uiso   1.00
C415   C     0.86735   0.85989   0.31300   0.00000  Uiso   1.00
C416   C     0.79932   0.80677   0.02033   0.00000  Uiso   1.00
H417   H     0.99119   0.82841   0.11413   0.00000  Uiso   1.00
H418   H     0.67548   0.83827   0.21920   0.00000  Uiso   1.00
N419   N     0.83332   0.83332   0.28573   0.00000  Uiso   1.00
N420   N     0.83335   0.83334   0.04760   0.00000  Uiso   1.00
O421   O     0.83333   0.77225   0.20487   0.00000  Uiso   1.00
O422   O     0.83334   0.89442   0.12846   0.00000  Uiso   1.00
O423   O     0.83333   0.77226   0.12843   0.00000  Uiso   1.00
O424   O     0.83334   0.89441   0.20490   0.00000  Uiso   1.00
O425   O     0.75725   0.83333   0.19595   0.00000  Uiso   1.00
O426   O     0.90942   0.83334   0.13739   0.00000  Uiso   1.00
O427   O     0.75725   0.83334   0.11950   0.00000  Uiso   1.00
O428   O     0.90942   0.83333   0.21383   0.00000  Uiso   1.00
Zn429  Zn    0.83333   0.83333   0.21771   0.00000  Uiso   1.00
Zn430  Zn    0.83333   0.83334   0.11563   0.00000  Uiso   1.00
I431   I     0.89500   0.71780   0.07983   0.00000  Uiso   1.00
I432   I     0.77203   0.94913   0.25351   0.00000  Uiso   1.00
C433   C     0.81943   0.96444   0.07755   0.00000  Uiso   1.00
H434   H     0.84430   0.97238   0.05201   0.00000  Uiso   1.00
O435   O     0.77916   0.94287   0.06646   0.00000  Uiso   1.00
C436   C     0.84824   0.70228   0.25590   0.00000  Uiso   1.00
H437   H     0.82393   0.69390   0.28174   0.00000  Uiso   1.00
O438   O     0.88821   0.72429   0.26667   0.00000  Uiso   1.00
C439   C     0.91466   0.87952   0.05588   0.00000  Uiso   1.00
H440   H     0.95399   0.87380   0.04928   0.00000  Uiso   1.00
O441   O     0.90938   0.90559   0.08368   0.00000  Uiso   1.00
C442   C     0.75214   0.78703   0.27743   0.00000  Uiso   1.00
H443   H     0.71275   0.79290   0.28378   0.00000  Uiso   1.00
O444   O     0.75755   0.76073   0.24991   0.00000  Uiso   1.00
C445   C     0.89955   0.89297   0.29230   0.00000  Uiso   1.00
H446   H     0.91523   0.88803   0.26166   0.00000  Uiso   1.00
O447   O     0.90794   0.92759   0.30921   0.00000  Uiso   1.00
C448   C     0.76711   0.77370   0.04103   0.00000  Uiso   1.00
H449   H     0.75141   0.77865   0.07166   0.00000  Uiso   1.00
O450   O     0.75875   0.73907   0.02415   0.00000  Uiso   1.00
C451   C     0.17304   0.08700   0.50142   0.00000  Uiso   1.00
C452   C     0.16045   0.24637   0.49859   0.00000  Uiso   1.00
C453   C     0.06712   0.16633   0.48809   0.00000  Uiso   1.00
C454   C     0.26622   0.16701   0.51191   0.00000  Uiso   1.00
C455   C     0.01196   0.16529   0.48183   0.00000  Uiso   1.00
C456   C     0.32138   0.16806   0.51817   0.00000  Uiso   1.00
C457   C     0.18518   0.02203   0.46335   0.00000  Uiso   1.00
C458   C     0.14877   0.31141   0.53674   0.00000  Uiso   1.00
C459   C     0.16564   0.31427   0.45773   0.00000  Uiso   1.00
C460   C     0.16842   0.01913   0.54238   0.00000  Uiso   1.00
C461   C     0.15366   0.29118   0.49631   0.00000  Uiso   1.00
C462   C     0.18020   0.04225   0.50375   0.00000  Uiso   1.00
C463   C     0.20231   0.19175   0.36112   0.00000  Uiso   1.00
C464   C     0.13106   0.14156   0.63887   0.00000  Uiso   1.00
C465   C     0.20068   0.19322   0.64634   0.00000  Uiso   1.00
C466   C     0.13265   0.14011   0.35366   0.00000  Uiso   1.00
H467   H     0.32453   0.16174   0.44747   0.00000  Uiso   1.00
H468   H     0.00881   0.17161   0.55253   0.00000  Uiso   1.00
N469   N     0.16665   0.16666   0.61907   0.00000  Uiso   1.00
N470   N     0.16668   0.16668   0.38093   0.00000  Uiso   1.00
O471   O     0.16666   0.10558   0.53821   0.00000  Uiso   1.00
O472   O     0.16667   0.22775   0.46179   0.00000  Uiso   1.00
O473   O     0.16666   0.10559   0.46176   0.00000  Uiso   1.00
O474   O     0.16667   0.22774   0.53824   0.00000  Uiso   1.00
O475   O     0.09058   0.16666   0.52928   0.00000  Uiso   1.00
O476   O     0.24275   0.16667   0.47072   0.00000  Uiso   1.00
O477   O     0.09058   0.16667   0.45284   0.00000  Uiso   1.00
O478   O     0.24275   0.16666   0.54716   0.00000  Uiso   1.00
Zn479  Zn    0.16667   0.16666   0.55104   0.00000  Uiso   1.00
Zn480  Zn    0.16667   0.16667   0.44896   0.00000  Uiso   1.00
I481   I     0.22834   0.05113   0.41317   0.00000  Uiso   1.00
I482   I     0.10536   0.28247   0.58684   0.00000  Uiso   1.00
C483   C     0.15277   0.29777   0.41088   0.00000  Uiso   1.00
H484   H     0.17764   0.30571   0.38534   0.00000  Uiso   1.00
O485   O     0.11249   0.27620   0.39980   0.00000  Uiso   1.00
C486   C     0.18157   0.03561   0.58924   0.00000  Uiso   1.00
H487   H     0.15726   0.02723   0.61507   0.00000  Uiso   1.00
O488   O     0.22154   0.05763   0.60000   0.00000  Uiso   1.00
C489   C     0.24799   0.21286   0.38921   0.00000  Uiso   1.00
H490   H     0.28733   0.20713   0.38261   0.00000  Uiso   1.00
O491   O     0.24271   0.23893   0.41702   0.00000  Uiso   1.00
C492   C     0.08547   0.12036   0.61076   0.00000  Uiso   1.00
H493   H     0.04608   0.12623   0.61712   0.00000  Uiso   1.00
O494   O     0.09089   0.09406   0.58325   0.00000  Uiso   1.00
C495   C     0.23289   0.22631   0.62564   0.00000  Uiso   1.00
H496   H     0.24856   0.22136   0.59499   0.00000  Uiso   1.00
O497   O     0.24127   0.26092   0.64254   0.00000  Uiso   1.00
C498   C     0.10044   0.10703   0.37436   0.00000  Uiso   1.00
H499   H     0.08474   0.11198   0.40499   0.00000  Uiso   1.00
O500   O     0.09208   0.07240   0.35748   0.00000  Uiso   1.00
C501   C     0.50638   0.08700   0.50142   0.00000  Uiso   1.00
C502   C     0.49378   0.24637   0.49859   0.00000  Uiso   1.00
C503   C     0.40045   0.16633   0.48809   0.00000  Uiso   1.00
C504   C     0.59955   0.16701   0.51191   0.00000  Uiso   1.00
C505   C     0.34529   0.16529   0.48183   0.00000  Uiso   1.00
C506   C     0.65471   0.16806   0.51817   0.00000  Uiso   1.00
C507   C     0.51851   0.02203   0.46335   0.00000  Uiso   1.00
C508   C     0.48210   0.31141   0.53674   0.00000  Uiso   1.00
C509   C     0.49897   0.31427   0.45773   0.00000  Uiso   1.00
C510   C     0.50175   0.01913   0.54238   0.00000  Uiso   1.00
C511   C     0.48699   0.29118   0.49631   0.00000  Uiso   1.00
C512   C     0.51353   0.04225   0.50375   0.00000  Uiso   1.00
C513   C     0.53564   0.19175   0.36112   0.00000  Uiso   1.00
C514   C     0.46439   0.14156   0.63887   0.00000  Uiso   1.00
C515   C     0.53402   0.19322   0.64634   0.00000  Uiso   1.00
C516   C     0.46599   0.14011   0.35366   0.00000  Uiso   1.00
H517   H     0.65786   0.16174   0.44747   0.00000  Uiso   1.00
H518   H     0.34214   0.17161   0.55253   0.00000  Uiso   1.00
N519   N     0.49999   0.16666   0.61907   0.00000  Uiso   1.00
N520   N     0.50001   0.16668   0.38093   0.00000  Uiso   1.00
O521   O     0.50000   0.10558   0.53821   0.00000  Uiso   1.00
O522   O     0.50000   0.22775   0.46179   0.00000  Uiso   1.00
O523   O     0.50000   0.10559   0.46176   0.00000  Uiso   1.00
O524   O     0.50000   0.22774   0.53824   0.00000  Uiso   1.00
O525   O     0.42392   0.16666   0.52928   0.00000  Uiso   1.00
O526   O     0.57608   0.16667   0.47072   0.00000  Uiso   1.00
O527   O     0.42392   0.16667   0.45284   0.00000  Uiso   1.00
O528   O     0.57608   0.16666   0.54716   0.00000  Uiso   1.00
Zn529  Zn    0.50000   0.16666   0.55104   0.00000  Uiso   1.00
Zn530  Zn    0.50000   0.16667   0.44896   0.00000  Uiso   1.00
I531   I     0.56167   0.05113   0.41317   0.00000  Uiso   1.00
I532   I     0.43869   0.28247   0.58684   0.00000  Uiso   1.00
C533   C     0.48610   0.29777   0.41088   0.00000  Uiso   1.00
H534   H     0.51097   0.30571   0.38534   0.00000  Uiso   1.00
O535   O     0.44582   0.27620   0.39980   0.00000  Uiso   1.00
C536   C     0.51491   0.03561   0.58924   0.00000  Uiso   1.00
H537   H     0.49059   0.02723   0.61507   0.00000  Uiso   1.00
O538   O     0.55488   0.05763   0.60000   0.00000  Uiso   1.00
C539   C     0.58132   0.21286   0.38921   0.00000  Uiso   1.00
H540   H     0.62066   0.20713   0.38261   0.00000  Uiso   1.00
O541   O     0.57605   0.23893   0.41702   0.00000  Uiso   1.00
C542   C     0.41881   0.12036   0.61076   0.00000  Uiso   1.00
H543   H     0.37942   0.12623   0.61712   0.00000  Uiso   1.00
O544   O     0.42422   0.09406   0.58325   0.00000  Uiso   1.00
C545   C     0.56622   0.22631   0.62564   0.00000  Uiso   1.00
H546   H     0.58190   0.22136   0.59499   0.00000  Uiso   1.00
O547   O     0.57461   0.26092   0.64254   0.00000  Uiso   1.00
C548   C     0.43378   0.10703   0.37436   0.00000  Uiso   1.00
H549   H     0.41807   0.11198   0.40499   0.00000  Uiso   1.00
O550   O     0.42542   0.07240   0.35748   0.00000  Uiso   1.00
C551   C     0.83971   0.08700   0.50142   0.00000  Uiso   1.00
C552   C     0.82711   0.24637   0.49859   0.00000  Uiso   1.00
C553   C     0.73378   0.16633   0.48809   0.00000  Uiso   1.00
C554   C     0.93288   0.16701   0.51191   0.00000  Uiso   1.00
C555   C     0.67862   0.16529   0.48183   0.00000  Uiso   1.00
C556   C     0.98804   0.16806   0.51817   0.00000  Uiso   1.00
C557   C     0.85184   0.02203   0.46335   0.00000  Uiso   1.00
C558   C     0.81543   0.31141   0.53674   0.00000  Uiso   1.00
C559   C     0.83231   0.31427   0.45773   0.00000  Uiso   1.00
C560   C     0.83508   0.01913   0.54238   0.00000  Uiso   1.00
C561   C     0.82032   0.29118   0.49631   0.00000  Uiso   1.00
C562   C     0.84687   0.04225   0.50375   0.00000  Uiso   1.00
C563   C     0.86898   0.19175   0.36112   0.00000  Uiso   1.00
C564   C     0.79772   0.14156   0.63887   0.00000  Uiso   1.00
C565   C     0.86735   0.19322   0.64634   0.00000  Uiso   1.00
C566   C     0.79932   0.14011   0.35366   0.00000  Uiso   1.00
H567   H     0.99119   0.16174   0.44747   0.00000  Uiso   1.00
H568   H     0.67548   0.17161   0.55253   0.00000  Uiso   1.00
N569   N     0.83332   0.16666   0.61907   0.00000  Uiso   1.00
N570   N     0.83335   0.16668   0.38093   0.00000  Uiso   1.00
O571   O     0.83333   0.10558   0.53821   0.00000  Uiso   1.00
O572   O     0.83334   0.22775   0.46179   0.00000  Uiso   1.00
O573   O     0.83333   0.10559   0.46176   0.00000  Uiso   1.00
O574   O     0.83334   0.22774   0.53824   0.00000  Uiso   1.00
O575   O     0.75725   0.16666   0.52928   0.00000  Uiso   1.00
O576   O     0.90942   0.16667   0.47072   0.00000  Uiso   1.00
O577   O     0.75725   0.16667   0.45284   0.00000  Uiso   1.00
O578   O     0.90942   0.16666   0.54716   0.00000  Uiso   1.00
Zn579  Zn    0.83333   0.16666   0.55104   0.00000  Uiso   1.00
Zn580  Zn    0.83333   0.16667   0.44896   0.00000  Uiso   1.00
I581   I     0.89500   0.05113   0.41317   0.00000  Uiso   1.00
I582   I     0.77203   0.28247   0.58684   0.00000  Uiso   1.00
C583   C     0.81943   0.29777   0.41088   0.00000  Uiso   1.00
H584   H     0.84430   0.30571   0.38534   0.00000  Uiso   1.00
O585   O     0.77916   0.27620   0.39980   0.00000  Uiso   1.00
C586   C     0.84824   0.03561   0.58924   0.00000  Uiso   1.00
H587   H     0.82393   0.02723   0.61507   0.00000  Uiso   1.00
O588   O     0.88821   0.05763   0.60000   0.00000  Uiso   1.00
C589   C     0.91466   0.21286   0.38921   0.00000  Uiso   1.00
H590   H     0.95399   0.20713   0.38261   0.00000  Uiso   1.00
O591   O     0.90938   0.23893   0.41702   0.00000  Uiso   1.00
C592   C     0.75214   0.12036   0.61076   0.00000  Uiso   1.00
H593   H     0.71275   0.12623   0.61712   0.00000  Uiso   1.00
O594   O     0.75755   0.09406   0.58325   0.00000  Uiso   1.00
C595   C     0.89955   0.22631   0.62564   0.00000  Uiso   1.00
H596   H     0.91523   0.22136   0.59499   0.00000  Uiso   1.00
O597   O     0.90794   0.26092   0.64254   0.00000  Uiso   1.00
C598   C     0.76711   0.10703   0.37436   0.00000  Uiso   1.00
H599   H     0.75141   0.11198   0.40499   0.00000  Uiso   1.00
O600   O     0.75875   0.07240   0.35748   0.00000  Uiso   1.00
C601   C     0.17304   0.42033   0.50142   0.00000  Uiso   1.00
C602   C     0.16045   0.57971   0.49859   0.00000  Uiso   1.00
C603   C     0.06712   0.49966   0.48809   0.00000  Uiso   1.00
C604   C     0.26622   0.50034   0.51191   0.00000  Uiso   1.00
C605   C     0.01196   0.49862   0.48183   0.00000  Uiso   1.00
C606   C     0.32138   0.50139   0.51817   0.00000  Uiso   1.00
C607   C     0.18518   0.35536   0.46335   0.00000  Uiso   1.00
C608   C     0.14877   0.64474   0.53674   0.00000  Uiso   1.00
C609   C     0.16564   0.64761   0.45773   0.00000  Uiso   1.00
C610   C     0.16842   0.35247   0.54238   0.00000  Uiso   1.00
C611   C     0.15366   0.62451   0.49631   0.00000  Uiso   1.00
C612   C     0.18020   0.37558   0.50375   0.00000  Uiso   1.00
C613   C     0.20231   0.52508   0.36112   0.00000  Uiso   1.00
C614   C     0.13106   0.47489   0.63887   0.00000  Uiso   1.00
C615   C     0.20068   0.52655   0.64634   0.00000  Uiso   1.00
C616   C     0.13265   0.47344   0.35366   0.00000  Uiso   1.00
H617   H     0.32453   0.49508   0.44747   0.00000  Uiso   1.00
H618   H     0.00881   0.50494   0.55253   0.00000  Uiso   1.00
N619   N     0.16665   0.49999   0.61907   0.00000  Uiso   1.00
N620   N     0.16668   0.50001   0.38093   0.00000  Uiso   1.00
O621   O     0.16666   0.43892   0.53821   0.00000  Uiso   1.00
O622   O     0.16667   0.56108   0.46179   0.00000  Uiso   1.00
O623   O     0.16666   0.43893   0.46176   0.00000  Uiso   1.00
O624   O     0.16667   0.56107   0.53824   0.00000  Uiso   1.00
O625   O     0.09058   0.50000   0.52928   0.00000  Uiso   1.00
O626   O     0.24275   0.50000   0.47072   0.00000  Uiso   1.00
O627   O     0.09058   0.50000   0.45284   0.00000  Uiso   1.00
O628   O     0.24275   0.50000   0.54716   0.00000  Uiso   1.00
Zn629  Zn    0.16667   0.49999   0.55104   0.00000  Uiso   1.00
Zn630  Zn    0.16667   0.50001   0.44896   0.00000  Uiso   1.00
I631   I     0.22834   0.38447   0.41317   0.00000  Uiso   1.00
I632   I     0.10536   0.61580   0.58684   0.00000  Uiso   1.00
C633   C     0.15277   0.63110   0.41088   0.00000  Uiso   1.00
H634   H     0.17764   0.63905   0.38534   0.00000  Uiso   1.00
O635   O     0.11249   0.60954   0.39980   0.00000  Uiso   1.00
C636   C     0.18157   0.36895   0.58924   0.00000  Uiso   1.00
H637   H     0.15726   0.36056   0.61507   0.00000  Uiso   1.00
O638   O     0.22154   0.39096   0.60000   0.00000  Uiso   1.00
C639   C     0.24799   0.54619   0.38921   0.00000  Uiso   1.00
H640   H     0.28733   0.54047   0.38261   0.00000  Uiso   1.00
O641   O     0.24271   0.57226   0.41702   0.00000  Uiso   1.00
C642   C     0.08547   0.45370   0.61076   0.00000  Uiso   1.00
H643   H     0.04608   0.45956   0.61712   0.00000  Uiso   1.00
O644   O     0.09089   0.42739   0.58325   0.00000  Uiso   1.00
C645   C     0.23289   0.55964   0.62564   0.00000  Uiso   1.00
H646   H     0.24856   0.55470   0.59499   0.00000  Uiso   1.00
O647   O     0.24127   0.59425   0.64254   0.00000  Uiso   1.00
C648   C     0.10044   0.44036   0.37436   0.00000  Uiso   1.00
H649   H     0.08474   0.44532   0.40499   0.00000  Uiso   1.00
O650   O     0.09208   0.40574   0.35748   0.00000  Uiso   1.00
C651   C     0.50638   0.42033   0.50142   0.00000  Uiso   1.00
C652   C     0.49378   0.57971   0.49859   0.00000  Uiso   1.00
C653   C     0.40045   0.49966   0.48809   0.00000  Uiso   1.00
C654   C     0.59955   0.50034   0.51191   0.00000  Uiso   1.00
C655   C     0.34529   0.49862   0.48183   0.00000  Uiso   1.00
C656   C     0.65471   0.50139   0.51817   0.00000  Uiso   1.00
C657   C     0.51851   0.35536   0.46335   0.00000  Uiso   1.00
C658   C     0.48210   0.64474   0.53674   0.00000  Uiso   1.00
C659   C     0.49897   0.64761   0.45773   0.00000  Uiso   1.00
C660   C     0.50175   0.35247   0.54238   0.00000  Uiso   1.00
C661   C     0.48699   0.62451   0.49631   0.00000  Uiso   1.00
C662   C     0.51353   0.37558   0.50375   0.00000  Uiso   1.00
C663   C     0.53564   0.52508   0.36112   0.00000  Uiso   1.00
C664   C     0.46439   0.47489   0.63887   0.00000  Uiso   1.00
C665   C     0.53402   0.52655   0.64634   0.00000  Uiso   1.00
C666   C     0.46599   0.47344   0.35366   0.00000  Uiso   1.00
H667   H     0.65786   0.49508   0.44747   0.00000  Uiso   1.00
H668   H     0.34214   0.50494   0.55253   0.00000  Uiso   1.00
N669   N     0.49999   0.49999   0.61907   0.00000  Uiso   1.00
N670   N     0.50001   0.50001   0.38093   0.00000  Uiso   1.00
O671   O     0.50000   0.43892   0.53821   0.00000  Uiso   1.00
O672   O     0.50000   0.56108   0.46179   0.00000  Uiso   1.00
O673   O     0.50000   0.43893   0.46176   0.00000  Uiso   1.00
O674   O     0.50000   0.56107   0.53824   0.00000  Uiso   1.00
O675   O     0.42392   0.50000   0.52928   0.00000  Uiso   1.00
O676   O     0.57608   0.50000   0.47072   0.00000  Uiso   1.00
O677   O     0.42392   0.50000   0.45284   0.00000  Uiso   1.00
O678   O     0.57608   0.50000   0.54716   0.00000  Uiso   1.00
Zn679  Zn    0.50000   0.49999   0.55104   0.00000  Uiso   1.00
Zn680  Zn    0.50000   0.50001   0.44896   0.00000  Uiso   1.00
I681   I     0.56167   0.38447   0.41317   0.00000  Uiso   1.00
I682   I     0.43869   0.61580   0.58684   0.00000  Uiso   1.00
C683   C     0.48610   0.63110   0.41088   0.00000  Uiso   1.00
H684   H     0.51097   0.63905   0.38534   0.00000  Uiso   1.00
O685   O     0.44582   0.60954   0.39980   0.00000  Uiso   1.00
C686   C     0.51491   0.36895   0.58924   0.00000  Uiso   1.00
H687   H     0.49059   0.36056   0.61507   0.00000  Uiso   1.00
O688   O     0.55488   0.39096   0.60000   0.00000  Uiso   1.00
C689   C     0.58132   0.54619   0.38921   0.00000  Uiso   1.00
H690   H     0.62066   0.54047   0.38261   0.00000  Uiso   1.00
O691   O     0.57605   0.57226   0.41702   0.00000  Uiso   1.00
C692   C     0.41881   0.45370   0.61076   0.00000  Uiso   1.00
H693   H     0.37942   0.45956   0.61712   0.00000  Uiso   1.00
O694   O     0.42422   0.42739   0.58325   0.00000  Uiso   1.00
C695   C     0.56622   0.55964   0.62564   0.00000  Uiso   1.00
H696   H     0.58190   0.55470   0.59499   0.00000  Uiso   1.00
O697   O     0.57461   0.59425   0.64254   0.00000  Uiso   1.00
C698   C     0.43378   0.44036   0.37436   0.00000  Uiso   1.00
H699   H     0.41807   0.44532   0.40499   0.00000  Uiso   1.00
O700   O     0.42542   0.40574   0.35748   0.00000  Uiso   1.00
C701   C     0.83971   0.42033   0.50142   0.00000  Uiso   1.00
C702   C     0.82711   0.57971   0.49859   0.00000  Uiso   1.00
C703   C     0.73378   0.49966   0.48809   0.00000  Uiso   1.00
C704   C     0.93288   0.50034   0.51191   0.00000  Uiso   1.00
C705   C     0.67862   0.49862   0.48183   0.00000  Uiso   1.00
C706   C     0.98804   0.50139   0.51817   0.00000  Uiso   1.00
C707   C     0.85184   0.35536   0.46335   0.00000  Uiso   1.00
C708   C     0.81543   0.64474   0.53674   0.00000  Uiso   1.00
C709   C     0.83231   0.64761   0.45773   0.00000  Uiso   1.00
C710   C     0.83508   0.35247   0.54238   0.00000  Uiso   1.00
C711   C     0.82032   0.62451   0.49631   0.00000  Uiso   1.00
C712   C     0.84687   0.37558   0.50375   0.00000  Uiso   1.00
C713   C     0.86898   0.52508   0.36112   0.00000  Uiso   1.00
C714   C     0.79772   0.47489   0.63887   0.00000  Uiso   1.00
C715   C     0.86735   0.52655   0.64634   0.00000  Uiso   1.00
C716   C     0.79932   0.47344   0.35366   0.00000  Uiso   1.00
H717   H     0.99119   0.49508   0.44747   0.00000  Uiso   1.00
H718   H     0.67548   0.50494   0.55253   0.00000  Uiso   1.00
N719   N     0.83332   0.49999   0.61907   0.00000  Uiso   1.00
N720   N     0.83335   0.50001   0.38093   0.00000  Uiso   1.00
O721   O     0.83333   0.43892   0.53821   0.00000  Uiso   1.00
O722   O     0.83334   0.56108   0.46179   0.00000  Uiso   1.00
O723   O     0.83333   0.43893   0.46176   0.00000  Uiso   1.00
O724   O     0.83334   0.56107   0.53824   0.00000  Uiso   1.00
O725   O     0.75725   0.50000   0.52928   0.00000  Uiso   1.00
O726   O     0.90942   0.50000   0.47072   0.00000  Uiso   1.00
O727   O     0.75725   0.50000   0.45284   0.00000  Uiso   1.00
O728   O     0.90942   0.50000   0.54716   0.00000  Uiso   1.00
Zn729  Zn    0.83333   0.49999   0.55104   0.00000  Uiso   1.00
Zn730  Zn    0.83333   0.50001   0.44896   0.00000  Uiso   1.00
I731   I     0.89500   0.38447   0.41317   0.00000  Uiso   1.00
I732   I     0.77203   0.61580   0.58684   0.00000  Uiso   1.00
C733   C     0.81943   0.63110   0.41088   0.00000  Uiso   1.00
H734   H     0.84430   0.63905   0.38534   0.00000  Uiso   1.00
O735   O     0.77916   0.60954   0.39980   0.00000  Uiso   1.00
C736   C     0.84824   0.36895   0.58924   0.00000  Uiso   1.00
H737   H     0.82393   0.36056   0.61507   0.00000  Uiso   1.00
O738   O     0.88821   0.39096   0.60000   0.00000  Uiso   1.00
C739   C     0.91466   0.54619   0.38921   0.00000  Uiso   1.00
H740   H     0.95399   0.54047   0.38261   0.00000  Uiso   1.00
O741   O     0.90938   0.57226   0.41702   0.00000  Uiso   1.00
C742   C     0.75214   0.45370   0.61076   0.00000  Uiso   1.00
H743   H     0.71275   0.45956   0.61712   0.00000  Uiso   1.00
O744   O     0.75755   0.42739   0.58325   0.00000  Uiso   1.00
C745   C     0.89955   0.55964   0.62564   0.00000  Uiso   1.00
H746   H     0.91523   0.55470   0.59499   0.00000  Uiso   1.00
O747   O     0.90794   0.59425   0.64254   0.00000  Uiso   1.00
C748   C     0.76711   0.44036   0.37436   0.00000  Uiso   1.00
H749   H     0.75141   0.44532   0.40499   0.00000  Uiso   1.00
O750   O     0.75875   0.40574   0.35748   0.00000  Uiso   1.00
C751   C     0.17304   0.75367   0.50142   0.00000  Uiso   1.00
C752   C     0.16045   0.91304   0.49859   0.00000  Uiso   1.00
C753   C     0.06712   0.83300   0.48809   0.00000  Uiso   1.00
C754   C     0.26622   0.83368   0.51191   0.00000  Uiso   1.00
C755   C     0.01196   0.83196   0.48183   0.00000  Uiso   1.00
C756   C     0.32138   0.83472   0.51817   0.00000  Uiso   1.00
C757   C     0.18518   0.68869   0.46335   0.00000  Uiso   1.00
C758   C     0.14877   0.97808   0.53674   0.00000  Uiso   1.00
C759   C     0.16564   0.98094   0.45773   0.00000  Uiso   1.00
C760   C     0.16842   0.68580   0.54238   0.00000  Uiso   1.00
C761   C     0.15366   0.95785   0.49631   0.00000  Uiso   1.00
C762   C     0.18020   0.70891   0.50375   0.00000  Uiso   1.00
C763   C     0.20231   0.85841   0.36112   0.00000  Uiso   1.00
C764   C     0.13106   0.80823   0.63887   0.00000  Uiso   1.00
C765   C     0.20068   0.85989   0.64634   0.00000  Uiso   1.00
C766   C     0.13265   0.80677   0.35366   0.00000  Uiso   1.00
H767   H     0.32453   0.82841   0.44747   0.00000  Uiso   1.00
H768   H     0.00881   0.83827   0.55253   0.00000  Uiso   1.00
N769   N     0.16665   0.83332   0.61907   0.00000  Uiso   1.00
N770   N     0.16668   0.83334   0.38093   0.00000  Uiso   1.00
O771   O     0.16666   0.77225   0.53821   0.00000  Uiso   1.00
O772   O     0.16667   0.89442   0.46179   0.00000  Uiso   1.00
O773   O     0.16666   0.77226   0.46176   0.00000  Uiso   1.00
O774   O     0.16667   0.89441   0.53824   0.00000  Uiso   1.00
O775   O     0.09058   0.83333   0.52928   0.00000  Uiso   1.00
O776   O     0.24275   0.83334   0.47072   0.00000  Uiso   1.00
O777   O     0.09058   0.83334   0.45284   0.00000  Uiso   1.00
O778   O     0.24275   0.83333   0.54716   0.00000  Uiso   1.00
Zn779  Zn    0.16667   0.83333   0.55104   0.00000  Uiso   1.00
Zn780  Zn    0.16667   0.83334   0.44896   0.00000  Uiso   1.00
I781   I     0.22834   0.71780   0.41317   0.00000  Uiso   1.00
I782   I     0.10536   0.94913   0.58684   0.00000  Uiso   1.00
C783   C     0.15277   0.96444   0.41088   0.00000  Uiso   1.00
H784   H     0.17764   0.97238   0.38534   0.00000  Uiso   1.00
O785   O     0.11249   0.94287   0.39980   0.00000  Uiso   1.00
C786   C     0.18157   0.70228   0.58924   0.00000  Uiso   1.00
H787   H     0.15726   0.69390   0.61507   0.00000  Uiso   1.00
O788   O     0.22154   0.72429   0.60000   0.00000  Uiso   1.00
C789   C     0.24799   0.87952   0.38921   0.00000  Uiso   1.00
H790   H     0.28733   0.87380   0.38261   0.00000  Uiso   1.00
O791   O     0.24271   0.90559   0.41702   0.00000  Uiso   1.00
C792   C     0.08547   0.78703   0.61076   0.00000  Uiso   1.00
H793   H     0.04608   0.79290   0.61712   0.00000  Uiso   1.00
O794   O     0.09089   0.76073   0.58325   0.00000  Uiso   1.00
C795   C     0.23289   0.89297   0.62564   0.00000  Uiso   1.00
H796   H     0.24856   0.88803   0.59499   0.00000  Uiso   1.00
O797   O     0.24127   0.92759   0.64254   0.00000  Uiso   1.00
C798   C     0.10044   0.77370   0.37436   0.00000  Uiso   1.00
H799   H     0.08474   0.77865   0.40499   0.00000  Uiso   1.00
O800   O     0.09208   0.73907   0.35748   0.00000  Uiso   1.00
C801   C     0.50638   0.75367   0.50142   0.00000  Uiso   1.00
C802   C     0.49378   0.91304   0.49859   0.00000  Uiso   1.00
C803   C     0.40045   0.83300   0.48809   0.00000  Uiso   1.00
C804   C     0.59955   0.83368   0.51191   0.00000  Uiso   1.00
C805   C     0.34529   0.83196   0.48183   0.00000  Uiso   1.00
C806   C     0.65471   0.83472   0.51817   0.00000  Uiso   1.00
C807   C     0.51851   0.68869   0.46335   0.00000  Uiso   1.00
C808   C     0.48210   0.97808   0.53674   0.00000  Uiso   1.00
C809   C     0.49897   0.98094   0.45773   0.00000  Uiso   1.00
C810   C     0.50175   0.68580   0.54238   0.00000  Uiso   1.00
C811   C     0.48699   0.95785   0.49631   0.00000  Uiso   1.00
C812   C     0.51353   0.70891   0.50375   0.00000  Uiso   1.00
C813   C     0.53564   0.85841   0.36112   0.00000  Uiso   1.00
C814   C     0.46439   0.80823   0.63887   0.00000  Uiso   1.00
C815   C     0.53402   0.85989   0.64634   0.00000  Uiso   1.00
C816   C     0.46599   0.80677   0.35366   0.00000  Uiso   1.00
H817   H     0.65786   0.82841   0.44747   0.00000  Uiso   1.00
H818   H     0.34214   0.83827   0.55253   0.00000  Uiso   1.00
N819   N     0.49999   0.83332   0.61907   0.00000  Uiso   1.00
N820   N     0.50001   0.83334   0.38093   0.00000  Uiso   1.00
O821   O     0.50000   0.77225   0.53821   0.00000  Uiso   1.00
O822   O     0.50000   0.89442   0.46179   0.00000  Uiso   1.00
O823   O     0.50000   0.77226   0.46176   0.00000  Uiso   1.00
O824   O     0.50000   0.89441   0.53824   0.00000  Uiso   1.00
O825   O     0.42392   0.83333   0.52928   0.00000  Uiso   1.00
O826   O     0.57608   0.83334   0.47072   0.00000  Uiso   1.00
O827   O     0.42392   0.83334   0.45284   0.00000  Uiso   1.00
O828   O     0.57608   0.83333   0.54716   0.00000  Uiso   1.00
Zn829  Zn    0.50000   0.83333   0.55104   0.00000  Uiso   1.00
Zn830  Zn    0.50000   0.83334   0.44896   0.00000  Uiso   1.00
I831   I     0.56167   0.71780   0.41317   0.00000  Uiso   1.00
I832   I     0.43869   0.94913   0.58684   0.00000  Uiso   1.00
C833   C     0.48610   0.96444   0.41088   0.00000  Uiso   1.00
H834   H     0.51097   0.97238   0.38534   0.00000  Uiso   1.00
O835   O     0.44582   0.94287   0.39980   0.00000  Uiso   1.00
C836   C     0.51491   0.70228   0.58924   0.00000  Uiso   1.00
H837   H     0.49059   0.69390   0.61507   0.00000  Uiso   1.00
O838   O     0.55488   0.72429   0.60000   0.00000  Uiso   1.00
C839   C     0.58132   0.87952   0.38921   0.00000  Uiso   1.00
H840   H     0.62066   0.87380   0.38261   0.00000  Uiso   1.00
O841   O     0.57605   0.90559   0.41702   0.00000  Uiso   1.00
C842   C     0.41881   0.78703   0.61076   0.00000  Uiso   1.00
H843   H     0.37942   0.79290   0.61712   0.00000  Uiso   1.00
O844   O     0.42422   0.76073   0.58325   0.00000  Uiso   1.00
C845   C     0.56622   0.89297   0.62564   0.00000  Uiso   1.00
H846   H     0.58190   0.88803   0.59499   0.00000  Uiso   1.00
O847   O     0.57461   0.92759   0.64254   0.00000  Uiso   1.00
C848   C     0.43378   0.77370   0.37436   0.00000  Uiso   1.00
H849   H     0.41807   0.77865   0.40499   0.00000  Uiso   1.00
O850   O     0.42542   0.73907   0.35748   0.00000  Uiso   1.00
C851   C     0.83971   0.75367   0.50142   0.00000  Uiso   1.00
C852   C     0.82711   0.91304   0.49859   0.00000  Uiso   1.00
C853   C     0.73378   0.83300   0.48809   0.00000  Uiso   1.00
C854   C     0.93288   0.83368   0.51191   0.00000  Uiso   1.00
C855   C     0.67862   0.83196   0.48183   0.00000  Uiso   1.00
C856   C     0.98804   0.83472   0.51817   0.00000  Uiso   1.00
C857   C     0.85184   0.68869   0.46335   0.00000  Uiso   1.00
C858   C     0.81543   0.97808   0.53674   0.00000  Uiso   1.00
C859   C     0.83231   0.98094   0.45773   0.00000  Uiso   1.00
C860   C     0.83508   0.68580   0.54238   0.00000  Uiso   1.00
C861   C     0.82032   0.95785   0.49631   0.00000  Uiso   1.00
C862   C     0.84687   0.70891   0.50375   0.00000  Uiso   1.00
C863   C     0.86898   0.85841   0.36112   0.00000  Uiso   1.00
C864   C     0.79772   0.80823   0.63887   0.00000  Uiso   1.00
C865   C     0.86735   0.85989   0.64634   0.00000  Uiso   1.00
C866   C     0.79932   0.80677   0.35366   0.00000  Uiso   1.00
H867   H     0.99119   0.82841   0.44747   0.00000  Uiso   1.00
H868   H     0.67548   0.83827   0.55253   0.00000  Uiso   1.00
N869   N     0.83332   0.83332   0.61907   0.00000  Uiso   1.00
N870   N     0.83335   0.83334   0.38093   0.00000  Uiso   1.00
O871   O     0.83333   0.77225   0.53821   0.00000  Uiso   1.00
O872   O     0.83334   0.89442   0.46179   0.00000  Uiso   1.00
O873   O     0.83333   0.77226   0.46176   0.00000  Uiso   1.00
O874   O     0.83334   0.89441   0.53824   0.00000  Uiso   1.00
O875   O     0.75725   0.83333   0.52928   0.00000  Uiso   1.00
O876   O     0.90942   0.83334   0.47072   0.00000  Uiso   1.00
O877   O     0.75725   0.83334   0.45284   0.00000  Uiso   1.00
O878   O     0.90942   0.83333   0.54716   0.00000  Uiso   1.00
Zn879  Zn    0.83333   0.83333   0.55104   0.00000  Uiso   1.00
Zn880  Zn    0.83333   0.83334   0.44896   0.00000  Uiso   1.00
I881   I     0.89500   0.71780   0.41317   0.00000  Uiso   1.00
I882   I     0.77203   0.94913   0.58684   0.00000  Uiso   1.00
C883   C     0.81943   0.96444   0.41088   0.00000  Uiso   1.00
H884   H     0.84430   0.97238   0.38534   0.00000  Uiso   1.00
O885   O     0.77916   0.94287   0.39980   0.00000  Uiso   1.00
C886   C     0.84824   0.70228   0.58924   0.00000  Uiso   1.00
H887   H     0.82393   0.69390   0.61507   0.00000  Uiso   1.00
O888   O     0.88821   0.72429   0.60000   0.00000  Uiso   1.00
C889   C     0.91466   0.87952   0.38921   0.00000  Uiso   1.00
H890   H     0.95399   0.87380   0.38261   0.00000  Uiso   1.00
O891   O     0.90938   0.90559   0.41702   0.00000  Uiso   1.00
C892   C     0.75214   0.78703   0.61076   0.00000  Uiso   1.00
H893   H     0.71275   0.79290   0.61712   0.00000  Uiso   1.00
O894   O     0.75755   0.76073   0.58325   0.00000  Uiso   1.00
C895   C     0.89955   0.89297   0.62564   0.00000  Uiso   1.00
H896   H     0.91523   0.88803   0.59499   0.00000  Uiso   1.00
O897   O     0.90794   0.92759   0.64254   0.00000  Uiso   1.00
C898   C     0.76711   0.77370   0.37436   0.00000  Uiso   1.00
H899   H     0.75141   0.77865   0.40499   0.00000  Uiso   1.00
O900   O     0.75875   0.73907   0.35748   0.00000  Uiso   1.00
C901   C     0.17304   0.08700   0.83476   0.00000  Uiso   1.00
C902   C     0.16045   0.24637   0.83193   0.00000  Uiso   1.00
C903   C     0.06712   0.16633   0.82142   0.00000  Uiso   1.00
C904   C     0.26622   0.16701   0.84524   0.00000  Uiso   1.00
C905   C     0.01196   0.16529   0.81516   0.00000  Uiso   1.00
C906   C     0.32138   0.16806   0.85151   0.00000  Uiso   1.00
C907   C     0.18518   0.02203   0.79668   0.00000  Uiso   1.00
C908   C     0.14877   0.31141   0.87007   0.00000  Uiso   1.00
C909   C     0.16564   0.31427   0.79106   0.00000  Uiso   1.00
C910   C     0.16842   0.01913   0.87571   0.00000  Uiso   1.00
C911   C     0.15366   0.29118   0.82965   0.00000  Uiso   1.00
C912   C     0.18020   0.04225   0.83709   0.00000  Uiso   1.00
C913   C     0.20231   0.19175   0.69446   0.00000  Uiso   1.00
C914   C     0.13106   0.14156   0.97221   0.00000  Uiso   1.00
C915   C     0.20068   0.19322   0.97967   0.00000  Uiso   1.00
C916   C     0.13265   0.14011   0.68699   0.00000  Uiso   1.00
H917   H     0.32453   0.16174   0.78080   0.00000  Uiso   1.00
H918   H     0.00881   0.17161   0.88586   0.00000  Uiso   1.00
N919   N     0.16665   0.16666   0.95240   0.00000  Uiso   1.00
N920   N     0.16668   0.16668   0.71427   0.00000  Uiso   1.00
O921   O     0.16666   0.10558   0.87154   0.00000  Uiso   1.00
O922   O     0.16667   0.22775   0.79513   0.00000  Uiso   1.00
O923   O     0.16666   0.10559   0.79510   0.00000  Uiso   1.00
O924   O     0.16667   0.22774   0.87157   0.00000  Uiso   1.00
O925   O     0.09058   0.16666   0.86261   0.00000  Uiso   1.00
O926   O     0.24275   0.16667   0.80405   0.00000  Uiso   1.00
O927   O     0.09058   0.16667   0.78617   0.00000  Uiso   1.00
O928   O     0.24275   0.16666   0.88050   0.00000  Uiso   1.00
Zn929  Zn    0.16667   0.16666   0.88437   0.00000  Uiso   1.00
Zn930  Zn    0.16667   0.16667   0.78229   0.00000  Uiso   1.00
I931   I     0.22834   0.05113   0.74650   0.00000  Uiso   1.00
I932   I     0.10536   0.28247   0.92018   0.00000  Uiso   1.00
C933   C     0.15277   0.29777   0.74421   0.00000  Uiso   1.00
H934   H     0.17764   0.30571   0.71867   0.00000  Uiso   1.00
O935   O     0.11249   0.27620   0.73313   0.00000  Uiso   1.00
C936   C     0.18157   0.03561   0.92257   0.00000  Uiso   1.00
H937   H     0.15726   0.02723   0.94840   0.00000  Uiso   1.00
O938   O     0.22154   0.05763   0.93333   0.00000  Uiso   1.00
C939   C     0.24799   0.21286   0.72254   0.00000  Uiso   1.00
H940   H     0.28733   0.20713   0.71595   0.00000  Uiso   1.00
O941   O     0.24271   0.23893   0.75035   0.00000  Uiso   1.00
C942   C     0.08547   0.12036   0.94410   0.00000  Uiso   1.00
H943   H     0.04608   0.12623   0.95045   0.00000  Uiso   1.00
O944   O     0.09089   0.09406   0.91658   0.00000  Uiso   1.00
C945   C     0.23289   0.22631   0.95897   0.00000  Uiso   1.00
H946   H     0.24856   0.22136   0.92832   0.00000  Uiso   1.00
O947   O     0.24127   0.26092   0.97587   0.00000  Uiso   1.00
C948   C     0.10044   0.10703   0.70770   0.00000  Uiso   1.00
H949   H     0.08474   0.11198   0.73833   0.00000  Uiso   1.00
O950   O     0.09208   0.07240   0.69082   0.00000  Uiso   1.00
C951   C     0.50638   0.08700   0.83476   0.00000  Uiso   1.00
C952   C     0.49378   0.24637   0.83193   0.00000  Uiso   1.00
C953   C     0.40045   0.16633   0.82142   0.00000  Uiso   1.00
C954   C     0.59955   0.16701   0.84524   0.00000  Uiso   1.00
C955   C     0.34529   0.16529   0.81516   0.00000  Uiso   1.00
C956   C     0.65471   0.16806   0.85151   0.00000  Uiso   1.00
C957   C     0.51851   0.02203   0.79668   0.00000  Uiso   1.00
C958   C     0.48210   0.31141   0.87007   0.00000  Uiso   1.00
C959   C     0.49897   0.31427   0.79106   0.00000  Uiso   1.00
C960   C     0.50175   0.01913   0.87571   0.00000  Uiso   1.00
C961   C     0.48699   0.29118   0.82965   0.00000  Uiso   1.00
C962   C     0.51353   0.04225   0.83709   0.00000  Uiso   1.00
C963   C     0.53564   0.19175   0.69446   0.00000  Uiso   1.00
C964   C     0.46439   0.14156   0.97221   0.00000  Uiso   1.00
C965   C     0.53402   0.19322   0.97967   0.00000  Uiso   1.00
C966   C     0.46599   0.14011   0.68699   0.00000  Uiso   1.00
H967   H     0.65786   0.16174   0.78080   0.00000  Uiso   1.00
H968   H     0.34214   0.17161   0.88586   0.00000  Uiso   1.00
N969   N     0.49999   0.16666   0.95240   0.00000  Uiso   1.00
N970   N     0.50001   0.16668   0.71427   0.00000  Uiso   1.00
O971   O     0.50000   0.10558   0.87154   0.00000  Uiso   1.00
O972   O     0.50000   0.22775   0.79513   0.00000  Uiso   1.00
O973   O     0.50000   0.10559   0.79510   0.00000  Uiso   1.00
O974   O     0.50000   0.22774   0.87157   0.00000  Uiso   1.00
O975   O     0.42392   0.16666   0.86261   0.00000  Uiso   1.00
O976   O     0.57608   0.16667   0.80405   0.00000  Uiso   1.00
O977   O     0.42392   0.16667   0.78617   0.00000  Uiso   1.00
O978   O     0.57608   0.16666   0.88050   0.00000  Uiso   1.00
Zn979  Zn    0.50000   0.16666   0.88437   0.00000  Uiso   1.00
Zn980  Zn    0.50000   0.16667   0.78229   0.00000  Uiso   1.00
I981   I     0.56167   0.05113   0.74650   0.00000  Uiso   1.00
I982   I     0.43869   0.28247   0.92018   0.00000  Uiso   1.00
C983   C     0.48610   0.29777   0.74421   0.00000  Uiso   1.00
H984   H     0.51097   0.30571   0.71867   0.00000  Uiso   1.00
O985   O     0.44582   0.27620   0.73313   0.00000  Uiso   1.00
C986   C     0.51491   0.03561   0.92257   0.00000  Uiso   1.00
H987   H     0.49059   0.02723   0.94840   0.00000  Uiso   1.00
O988   O     0.55488   0.05763   0.93333   0.00000  Uiso   1.00
C989   C     0.58132   0.21286   0.72254   0.00000  Uiso   1.00
H990   H     0.62066   0.20713   0.71595   0.00000  Uiso   1.00
O991   O     0.57605   0.23893   0.75035   0.00000  Uiso   1.00
C992   C     0.41881   0.12036   0.94410   0.00000  Uiso   1.00
H993   H     0.37942   0.12623   0.95045   0.00000  Uiso   1.00
O994   O     0.42422   0.09406   0.91658   0.00000  Uiso   1.00
C995   C     0.56622   0.22631   0.95897   0.00000  Uiso   1.00
H996   H     0.58190   0.22136   0.92832   0.00000  Uiso   1.00
O997   O     0.57461   0.26092   0.97587   0.00000  Uiso   1.00
C998   C     0.43378   0.10703   0.70770   0.00000  Uiso   1.00
H999   H     0.41807   0.11198   0.73833   0.00000  Uiso   1.00
O1000  O     0.42542   0.07240   0.69082   0.00000  Uiso   1.00
C1001  C     0.83971   0.08700   0.83476   0.00000  Uiso   1.00
C1002  C     0.82711   0.24637   0.83193   0.00000  Uiso   1.00
C1003  C     0.73378   0.16633   0.82142   0.00000  Uiso   1.00
C1004  C     0.93288   0.16701   0.84524   0.00000  Uiso   1.00
C1005  C     0.67862   0.16529   0.81516   0.00000  Uiso   1.00
C1006  C     0.98804   0.16806   0.85151   0.00000  Uiso   1.00
C1007  C     0.85184   0.02203   0.79668   0.00000  Uiso   1.00
C1008  C     0.81543   0.31141   0.87007   0.00000  Uiso   1.00
C1009  C     0.83231   0.31427   0.79106   0.00000  Uiso   1.00
C1010  C     0.83508   0.01913   0.87571   0.00000  Uiso   1.00
C1011  C     0.82032   0.29118   0.82965   0.00000  Uiso   1.00
C1012  C     0.84687   0.04225   0.83709   0.00000  Uiso   1.00
C1013  C     0.86898   0.19175   0.69446   0.00000  Uiso   1.00
C1014  C     0.79772   0.14156   0.97221   0.00000  Uiso   1.00
C1015  C     0.86735   0.19322   0.97967   0.00000  Uiso   1.00
C1016  C     0.79932   0.14011   0.68699   0.00000  Uiso   1.00
H1017  H     0.99119   0.16174   0.78080   0.00000  Uiso   1.00
H1018  H     0.67548   0.17161   0.88586   0.00000  Uiso   1.00
N1019  N     0.83332   0.16666   0.95240   0.00000  Uiso   1.00
N1020  N     0.83335   0.16668   0.71427   0.00000  Uiso   1.00
O1021  O     0.83333   0.10558   0.87154   0.00000  Uiso   1.00
O1022  O     0.83334   0.22775   0.79513   0.00000  Uiso   1.00
O1023  O     0.83333   0.10559   0.79510   0.00000  Uiso   1.00
O1024  O     0.83334   0.22774   0.87157   0.00000  Uiso   1.00
O1025  O     0.75725   0.16666   0.86261   0.00000  Uiso   1.00
O1026  O     0.90942   0.16667   0.80405   0.00000  Uiso   1.00
O1027  O     0.75725   0.16667   0.78617   0.00000  Uiso   1.00
O1028  O     0.90942   0.16666   0.88050   0.00000  Uiso   1.00
Zn1029 Zn    0.83333   0.16666   0.88437   0.00000  Uiso   1.00
Zn1030 Zn    0.83333   0.16667   0.78229   0.00000  Uiso   1.00
I1031  I     0.89500   0.05113   0.74650   0.00000  Uiso   1.00
I1032  I     0.77203   0.28247   0.92018   0.00000  Uiso   1.00
C1033  C     0.81943   0.29777   0.74421   0.00000  Uiso   1.00
H1034  H     0.84430   0.30571   0.71867   0.00000  Uiso   1.00
O1035  O     0.77916   0.27620   0.73313   0.00000  Uiso   1.00
C1036  C     0.84824   0.03561   0.92257   0.00000  Uiso   1.00
H1037  H     0.82393   0.02723   0.94840   0.00000  Uiso   1.00
O1038  O     0.88821   0.05763   0.93333   0.00000  Uiso   1.00
C1039  C     0.91466   0.21286   0.72254   0.00000  Uiso   1.00
H1040  H     0.95399   0.20713   0.71595   0.00000  Uiso   1.00
O1041  O     0.90938   0.23893   0.75035   0.00000  Uiso   1.00
C1042  C     0.75214   0.12036   0.94410   0.00000  Uiso   1.00
H1043  H     0.71275   0.12623   0.95045   0.00000  Uiso   1.00
O1044  O     0.75755   0.09406   0.91658   0.00000  Uiso   1.00
C1045  C     0.89955   0.22631   0.95897   0.00000  Uiso   1.00
H1046  H     0.91523   0.22136   0.92832   0.00000  Uiso   1.00
O1047  O     0.90794   0.26092   0.97587   0.00000  Uiso   1.00
C1048  C     0.76711   0.10703   0.70770   0.00000  Uiso   1.00
H1049  H     0.75141   0.11198   0.73833   0.00000  Uiso   1.00
O1050  O     0.75875   0.07240   0.69082   0.00000  Uiso   1.00
C1051  C     0.17304   0.42033   0.83476   0.00000  Uiso   1.00
C1052  C     0.16045   0.57971   0.83193   0.00000  Uiso   1.00
C1053  C     0.06712   0.49966   0.82142   0.00000  Uiso   1.00
C1054  C     0.26622   0.50034   0.84524   0.00000  Uiso   1.00
C1055  C     0.01196   0.49862   0.81516   0.00000  Uiso   1.00
C1056  C     0.32138   0.50139   0.85151   0.00000  Uiso   1.00
C1057  C     0.18518   0.35536   0.79668   0.00000  Uiso   1.00
C1058  C     0.14877   0.64474   0.87007   0.00000  Uiso   1.00
C1059  C     0.16564   0.64761   0.79106   0.00000  Uiso   1.00
C1060  C     0.16842   0.35247   0.87571   0.00000  Uiso   1.00
C1061  C     0.15366   0.62451   0.82965   0.00000  Uiso   1.00
C1062  C     0.18020   0.37558   0.83709   0.00000  Uiso   1.00
C1063  C     0.20231   0.52508   0.69446   0.00000  Uiso   1.00
C1064  C     0.13106   0.47489   0.97221   0.00000  Uiso   1.00
C1065  C     0.20068   0.52655   0.97967   0.00000  Uiso   1.00
C1066  C     0.13265   0.47344   0.68699   0.00000  Uiso   1.00
H1067  H     0.32453   0.49508   0.78080   0.00000  Uiso   1.00
H1068  H     0.00881   0.50494   0.88586   0.00000  Uiso   1.00
N1069  N     0.16665   0.49999   0.95240   0.00000  Uiso   1.00
N1070  N     0.16668   0.50001   0.71427   0.00000  Uiso   1.00
O1071  O     0.16666   0.43892   0.87154   0.00000  Uiso   1.00
O1072  O     0.16667   0.56108   0.79513   0.00000  Uiso   1.00
O1073  O     0.16666   0.43893   0.79510   0.00000  Uiso   1.00
O1074  O     0.16667   0.56107   0.87157   0.00000  Uiso   1.00
O1075  O     0.09058   0.50000   0.86261   0.00000  Uiso   1.00
O1076  O     0.24275   0.50000   0.80405   0.00000  Uiso   1.00
O1077  O     0.09058   0.50000   0.78617   0.00000  Uiso   1.00
O1078  O     0.24275   0.50000   0.88050   0.00000  Uiso   1.00
Zn1079 Zn    0.16667   0.49999   0.88437   0.00000  Uiso   1.00
Zn1080 Zn    0.16667   0.50001   0.78229   0.00000  Uiso   1.00
I1081  I     0.22834   0.38447   0.74650   0.00000  Uiso   1.00
I1082  I     0.10536   0.61580   0.92018   0.00000  Uiso   1.00
C1083  C     0.15277   0.63110   0.74421   0.00000  Uiso   1.00
H1084  H     0.17764   0.63905   0.71867   0.00000  Uiso   1.00
O1085  O     0.11249   0.60954   0.73313   0.00000  Uiso   1.00
C1086  C     0.18157   0.36895   0.92257   0.00000  Uiso   1.00
H1087  H     0.15726   0.36056   0.94840   0.00000  Uiso   1.00
O1088  O     0.22154   0.39096   0.93333   0.00000  Uiso   1.00
C1089  C     0.24799   0.54619   0.72254   0.00000  Uiso   1.00
H1090  H     0.28733   0.54047   0.71595   0.00000  Uiso   1.00
O1091  O     0.24271   0.57226   0.75035   0.00000  Uiso   1.00
C1092  C     0.08547   0.45370   0.94410   0.00000  Uiso   1.00
H1093  H     0.04608   0.45956   0.95045   0.00000  Uiso   1.00
O1094  O     0.09089   0.42739   0.91658   0.00000  Uiso   1.00
C1095  C     0.23289   0.55964   0.95897   0.00000  Uiso   1.00
H1096  H     0.24856   0.55470   0.92832   0.00000  Uiso   1.00
O1097  O     0.24127   0.59425   0.97587   0.00000  Uiso   1.00
C1098  C     0.10044   0.44036   0.70770   0.00000  Uiso   1.00
H1099  H     0.08474   0.44532   0.73833   0.00000  Uiso   1.00
O1100  O     0.09208   0.40574   0.69082   0.00000  Uiso   1.00
C1101  C     0.50638   0.42033   0.83476   0.00000  Uiso   1.00
C1102  C     0.49378   0.57971   0.83193   0.00000  Uiso   1.00
C1103  C     0.40045   0.49966   0.82142   0.00000  Uiso   1.00
C1104  C     0.59955   0.50034   0.84524   0.00000  Uiso   1.00
C1105  C     0.34529   0.49862   0.81516   0.00000  Uiso   1.00
C1106  C     0.65471   0.50139   0.85151   0.00000  Uiso   1.00
C1107  C     0.51851   0.35536   0.79668   0.00000  Uiso   1.00
C1108  C     0.48210   0.64474   0.87007   0.00000  Uiso   1.00
C1109  C     0.49897   0.64761   0.79106   0.00000  Uiso   1.00
C1110  C     0.50175   0.35247   0.87571   0.00000  Uiso   1.00
C1111  C     0.48699   0.62451   0.82965   0.00000  Uiso   1.00
C1112  C     0.51353   0.37558   0.83709   0.00000  Uiso   1.00
C1113  C     0.53564   0.52508   0.69446   0.00000  Uiso   1.00
C1114  C     0.46439   0.47489   0.97221   0.00000  Uiso   1.00
C1115  C     0.53402   0.52655   0.97967   0.00000  Uiso   1.00
C1116  C     0.46599   0.47344   0.68699   0.00000  Uiso   1.00
H1117  H     0.65786   0.49508   0.78080   0.00000  Uiso   1.00
H1118  H     0.34214   0.50494   0.88586   0.00000  Uiso   1.00
N1119  N     0.49999   0.49999   0.95240   0.00000  Uiso   1.00
N1120  N     0.50001   0.50001   0.71427   0.00000  Uiso   1.00
O1121  O     0.50000   0.43892   0.87154   0.00000  Uiso   1.00
O1122  O     0.50000   0.56108   0.79513   0.00000  Uiso   1.00
O1123  O     0.50000   0.43893   0.79510   0.00000  Uiso   1.00
O1124  O     0.50000   0.56107   0.87157   0.00000  Uiso   1.00
O1125  O     0.42392   0.50000   0.86261   0.00000  Uiso   1.00
O1126  O     0.57608   0.50000   0.80405   0.00000  Uiso   1.00
O1127  O     0.42392   0.50000   0.78617   0.00000  Uiso   1.00
O1128  O     0.57608   0.50000   0.88050   0.00000  Uiso   1.00
Zn1129 Zn    0.50000   0.49999   0.88437   0.00000  Uiso   1.00
Zn1130 Zn    0.50000   0.50001   0.78229   0.00000  Uiso   1.00
I1131  I     0.56167   0.38447   0.74650   0.00000  Uiso   1.00
I1132  I     0.43869   0.61580   0.92018   0.00000  Uiso   1.00
C1133  C     0.48610   0.63110   0.74421   0.00000  Uiso   1.00
H1134  H     0.51097   0.63905   0.71867   0.00000  Uiso   1.00
O1135  O     0.44582   0.60954   0.73313   0.00000  Uiso   1.00
C1136  C     0.51491   0.36895   0.92257   0.00000  Uiso   1.00
H1137  H     0.49059   0.36056   0.94840   0.00000  Uiso   1.00
O1138  O     0.55488   0.39096   0.93333   0.00000  Uiso   1.00
C1139  C     0.58132   0.54619   0.72254   0.00000  Uiso   1.00
H1140  H     0.62066   0.54047   0.71595   0.00000  Uiso   1.00
O1141  O     0.57605   0.57226   0.75035   0.00000  Uiso   1.00
C1142  C     0.41881   0.45370   0.94410   0.00000  Uiso   1.00
H1143  H     0.37942   0.45956   0.95045   0.00000  Uiso   1.00
O1144  O     0.42422   0.42739   0.91658   0.00000  Uiso   1.00
C1145  C     0.56622   0.55964   0.95897   0.00000  Uiso   1.00
H1146  H     0.58190   0.55470   0.92832   0.00000  Uiso   1.00
O1147  O     0.57461   0.59425   0.97587   0.00000  Uiso   1.00
C1148  C     0.43378   0.44036   0.70770   0.00000  Uiso   1.00
H1149  H     0.41807   0.44532   0.73833   0.00000  Uiso   1.00
O1150  O     0.42542   0.40574   0.69082   0.00000  Uiso   1.00
C1151  C     0.83971   0.42033   0.83476   0.00000  Uiso   1.00
C1152  C     0.82711   0.57971   0.83193   0.00000  Uiso   1.00
C1153  C     0.73378   0.49966   0.82142   0.00000  Uiso   1.00
C1154  C     0.93288   0.50034   0.84524   0.00000  Uiso   1.00
C1155  C     0.67862   0.49862   0.81516   0.00000  Uiso   1.00
C1156  C     0.98804   0.50139   0.85151   0.00000  Uiso   1.00
C1157  C     0.85184   0.35536   0.79668   0.00000  Uiso   1.00
C1158  C     0.81543   0.64474   0.87007   0.00000  Uiso   1.00
C1159  C     0.83231   0.64761   0.79106   0.00000  Uiso   1.00
C1160  C     0.83508   0.35247   0.87571   0.00000  Uiso   1.00
C1161  C     0.82032   0.62451   0.82965   0.00000  Uiso   1.00
C1162  C     0.84687   0.37558   0.83709   0.00000  Uiso   1.00
C1163  C     0.86898   0.52508   0.69446   0.00000  Uiso   1.00
C1164  C     0.79772   0.47489   0.97221   0.00000  Uiso   1.00
C1165  C     0.86735   0.52655   0.97967   0.00000  Uiso   1.00
C1166  C     0.79932   0.47344   0.68699   0.00000  Uiso   1.00
H1167  H     0.99119   0.49508   0.78080   0.00000  Uiso   1.00
H1168  H     0.67548   0.50494   0.88586   0.00000  Uiso   1.00
N1169  N     0.83332   0.49999   0.95240   0.00000  Uiso   1.00
N1170  N     0.83335   0.50001   0.71427   0.00000  Uiso   1.00
O1171  O     0.83333   0.43892   0.87154   0.00000  Uiso   1.00
O1172  O     0.83334   0.56108   0.79513   0.00000  Uiso   1.00
O1173  O     0.83333   0.43893   0.79510   0.00000  Uiso   1.00
O1174  O     0.83334   0.56107   0.87157   0.00000  Uiso   1.00
O1175  O     0.75725   0.50000   0.86261   0.00000  Uiso   1.00
O1176  O     0.90942   0.50000   0.80405   0.00000  Uiso   1.00
O1177  O     0.75725   0.50000   0.78617   0.00000  Uiso   1.00
O1178  O     0.90942   0.50000   0.88050   0.00000  Uiso   1.00
Zn1179 Zn    0.83333   0.49999   0.88437   0.00000  Uiso   1.00
Zn1180 Zn    0.83333   0.50001   0.78229   0.00000  Uiso   1.00
I1181  I     0.89500   0.38447   0.74650   0.00000  Uiso   1.00
I1182  I     0.77203   0.61580   0.92018   0.00000  Uiso   1.00
C1183  C     0.81943   0.63110   0.74421   0.00000  Uiso   1.00
H1184  H     0.84430   0.63905   0.71867   0.00000  Uiso   1.00
O1185  O     0.77916   0.60954   0.73313   0.00000  Uiso   1.00
C1186  C     0.84824   0.36895   0.92257   0.00000  Uiso   1.00
H1187  H     0.82393   0.36056   0.94840   0.00000  Uiso   1.00
O1188  O     0.88821   0.39096   0.93333   0.00000  Uiso   1.00
C1189  C     0.91466   0.54619   0.72254   0.00000  Uiso   1.00
H1190  H     0.95399   0.54047   0.71595   0.00000  Uiso   1.00
O1191  O     0.90938   0.57226   0.75035   0.00000  Uiso   1.00
C1192  C     0.75214   0.45370   0.94410   0.00000  Uiso   1.00
H1193  H     0.71275   0.45956   0.95045   0.00000  Uiso   1.00
O1194  O     0.75755   0.42739   0.91658   0.00000  Uiso   1.00
C1195  C     0.89955   0.55964   0.95897   0.00000  Uiso   1.00
H1196  H     0.91523   0.55470   0.92832   0.00000  Uiso   1.00
O1197  O     0.90794   0.59425   0.97587   0.00000  Uiso   1.00
C1198  C     0.76711   0.44036   0.70770   0.00000  Uiso   1.00
H1199  H     0.75141   0.44532   0.73833   0.00000  Uiso   1.00
O1200  O     0.75875   0.40574   0.69082   0.00000  Uiso   1.00
C1201  C     0.17304   0.75367   0.83476   0.00000  Uiso   1.00
C1202  C     0.16045   0.91304   0.83193   0.00000  Uiso   1.00
C1203  C     0.06712   0.83300   0.82142   0.00000  Uiso   1.00
C1204  C     0.26622   0.83368   0.84524   0.00000  Uiso   1.00
C1205  C     0.01196   0.83196   0.81516   0.00000  Uiso   1.00
C1206  C     0.32138   0.83472   0.85151   0.00000  Uiso   1.00
C1207  C     0.18518   0.68869   0.79668   0.00000  Uiso   1.00
C1208  C     0.14877   0.97808   0.87007   0.00000  Uiso   1.00
C1209  C     0.16564   0.98094   0.79106   0.00000  Uiso   1.00
C1210  C     0.16842   0.68580   0.87571   0.00000  Uiso   1.00
C1211  C     0.15366   0.95785   0.82965   0.00000  Uiso   1.00
C1212  C     0.18020   0.70891   0.83709   0.00000  Uiso   1.00
C1213  C     0.20231   0.85841   0.69446   0.00000  Uiso   1.00
C1214  C     0.13106   0.80823   0.97221   0.00000  Uiso   1.00
C1215  C     0.20068   0.85989   0.97967   0.00000  Uiso   1.00
C1216  C     0.13265   0.80677   0.68699   0.00000  Uiso   1.00
H1217  H     0.32453   0.82841   0.78080   0.00000  Uiso   1.00
H1218  H     0.00881   0.83827   0.88586   0.00000  Uiso   1.00
N1219  N     0.16665   0.83332   0.95240   0.00000  Uiso   1.00
N1220  N     0.16668   0.83334   0.71427   0.00000  Uiso   1.00
O1221  O     0.16666   0.77225   0.87154   0.00000  Uiso   1.00
O1222  O     0.16667   0.89442   0.79513   0.00000  Uiso   1.00
O1223  O     0.16666   0.77226   0.79510   0.00000  Uiso   1.00
O1224  O     0.16667   0.89441   0.87157   0.00000  Uiso   1.00
O1225  O     0.09058   0.83333   0.86261   0.00000  Uiso   1.00
O1226  O     0.24275   0.83334   0.80405   0.00000  Uiso   1.00
O1227  O     0.09058   0.83334   0.78617   0.00000  Uiso   1.00
O1228  O     0.24275   0.83333   0.88050   0.00000  Uiso   1.00
Zn1229 Zn    0.16667   0.83333   0.88437   0.00000  Uiso   1.00
Zn1230 Zn    0.16667   0.83334   0.78229   0.00000  Uiso   1.00
I1231  I     0.22834   0.71780   0.74650   0.00000  Uiso   1.00
I1232  I     0.10536   0.94913   0.92018   0.00000  Uiso   1.00
C1233  C     0.15277   0.96444   0.74421   0.00000  Uiso   1.00
H1234  H     0.17764   0.97238   0.71867   0.00000  Uiso   1.00
O1235  O     0.11249   0.94287   0.73313   0.00000  Uiso   1.00
C1236  C     0.18157   0.70228   0.92257   0.00000  Uiso   1.00
H1237  H     0.15726   0.69390   0.94840   0.00000  Uiso   1.00
O1238  O     0.22154   0.72429   0.93333   0.00000  Uiso   1.00
C1239  C     0.24799   0.87952   0.72254   0.00000  Uiso   1.00
H1240  H     0.28733   0.87380   0.71595   0.00000  Uiso   1.00
O1241  O     0.24271   0.90559   0.75035   0.00000  Uiso   1.00
C1242  C     0.08547   0.78703   0.94410   0.00000  Uiso   1.00
H1243  H     0.04608   0.79290   0.95045   0.00000  Uiso   1.00
O1244  O     0.09089   0.76073   0.91658   0.00000  Uiso   1.00
C1245  C     0.23289   0.89297   0.95897   0.00000  Uiso   1.00
H1246  H     0.24856   0.88803   0.92832   0.00000  Uiso   1.00
O1247  O     0.24127   0.92759   0.97587   0.00000  Uiso   1.00
C1248  C     0.10044   0.77370   0.70770   0.00000  Uiso   1.00
H1249  H     0.08474   0.77865   0.73833   0.00000  Uiso   1.00
O1250  O     0.09208   0.73907   0.69082   0.00000  Uiso   1.00
C1251  C     0.50638   0.75367   0.83476   0.00000  Uiso   1.00
C1252  C     0.49378   0.91304   0.83193   0.00000  Uiso   1.00
C1253  C     0.40045   0.83300   0.82142   0.00000  Uiso   1.00
C1254  C     0.59955   0.83368   0.84524   0.00000  Uiso   1.00
C1255  C     0.34529   0.83196   0.81516   0.00000  Uiso   1.00
C1256  C     0.65471   0.83472   0.85151   0.00000  Uiso   1.00
C1257  C     0.51851   0.68869   0.79668   0.00000  Uiso   1.00
C1258  C     0.48210   0.97808   0.87007   0.00000  Uiso   1.00
C1259  C     0.49897   0.98094   0.79106   0.00000  Uiso   1.00
C1260  C     0.50175   0.68580   0.87571   0.00000  Uiso   1.00
C1261  C     0.48699   0.95785   0.82965   0.00000  Uiso   1.00
C1262  C     0.51353   0.70891   0.83709   0.00000  Uiso   1.00
C1263  C     0.53564   0.85841   0.69446   0.00000  Uiso   1.00
C1264  C     0.46439   0.80823   0.97221   0.00000  Uiso   1.00
C1265  C     0.53402   0.85989   0.97967   0.00000  Uiso   1.00
C1266  C     0.46599   0.80677   0.68699   0.00000  Uiso   1.00
H1267  H     0.65786   0.82841   0.78080   0.00000  Uiso   1.00
H1268  H     0.34214   0.83827   0.88586   0.00000  Uiso   1.00
N1269  N     0.49999   0.83332   0.95240   0.00000  Uiso   1.00
N1270  N     0.50001   0.83334   0.71427   0.00000  Uiso   1.00
O1271  O     0.50000   0.77225   0.87154   0.00000  Uiso   1.00
O1272  O     0.50000   0.89442   0.79513   0.00000  Uiso   1.00
O1273  O     0.50000   0.77226   0.79510   0.00000  Uiso   1.00
O1274  O     0.50000   0.89441   0.87157   0.00000  Uiso   1.00
O1275  O     0.42392   0.83333   0.86261   0.00000  Uiso   1.00
O1276  O     0.57608   0.83334   0.80405   0.00000  Uiso   1.00
O1277  O     0.42392   0.83334   0.78617   0.00000  Uiso   1.00
O1278  O     0.57608   0.83333   0.88050   0.00000  Uiso   1.00
Zn1279 Zn    0.50000   0.83333   0.88437   0.00000  Uiso   1.00
Zn1280 Zn    0.50000   0.83334   0.78229   0.00000  Uiso   1.00
I1281  I     0.56167   0.71780   0.74650   0.00000  Uiso   1.00
I1282  I     0.43869   0.94913   0.92018   0.00000  Uiso   1.00
C1283  C     0.48610   0.96444   0.74421   0.00000  Uiso   1.00
H1284  H     0.51097   0.97238   0.71867   0.00000  Uiso   1.00
O1285  O     0.44582   0.94287   0.73313   0.00000  Uiso   1.00
C1286  C     0.51491   0.70228   0.92257   0.00000  Uiso   1.00
H1287  H     0.49059   0.69390   0.94840   0.00000  Uiso   1.00
O1288  O     0.55488   0.72429   0.93333   0.00000  Uiso   1.00
C1289  C     0.58132   0.87952   0.72254   0.00000  Uiso   1.00
H1290  H     0.62066   0.87380   0.71595   0.00000  Uiso   1.00
O1291  O     0.57605   0.90559   0.75035   0.00000  Uiso   1.00
C1292  C     0.41881   0.78703   0.94410   0.00000  Uiso   1.00
H1293  H     0.37942   0.79290   0.95045   0.00000  Uiso   1.00
O1294  O     0.42422   0.76073   0.91658   0.00000  Uiso   1.00
C1295  C     0.56622   0.89297   0.95897   0.00000  Uiso   1.00
H1296  H     0.58190   0.88803   0.92832   0.00000  Uiso   1.00
O1297  O     0.57461   0.92759   0.97587   0.00000  Uiso   1.00
C1298  C     0.43378   0.77370   0.70770   0.00000  Uiso   1.00
H1299  H     0.41807   0.77865   0.73833   0.00000  Uiso   1.00
O1300  O     0.42542   0.73907   0.69082   0.00000  Uiso   1.00
C1301  C     0.83971   0.75367   0.83476   0.00000  Uiso   1.00
C1302  C     0.82711   0.91304   0.83193   0.00000  Uiso   1.00
C1303  C     0.73378   0.83300   0.82142   0.00000  Uiso   1.00
C1304  C     0.93288   0.83368   0.84524   0.00000  Uiso   1.00
C1305  C     0.67862   0.83196   0.81516   0.00000  Uiso   1.00
C1306  C     0.98804   0.83472   0.85151   0.00000  Uiso   1.00
C1307  C     0.85184   0.68869   0.79668   0.00000  Uiso   1.00
C1308  C     0.81543   0.97808   0.87007   0.00000  Uiso   1.00
C1309  C     0.83231   0.98094   0.79106   0.00000  Uiso   1.00
C1310  C     0.83508   0.68580   0.87571   0.00000  Uiso   1.00
C1311  C     0.82032   0.95785   0.82965   0.00000  Uiso   1.00
C1312  C     0.84687   0.70891   0.83709   0.00000  Uiso   1.00
C1313  C     0.86898   0.85841   0.69446   0.00000  Uiso   1.00
C1314  C     0.79772   0.80823   0.97221   0.00000  Uiso   1.00
C1315  C     0.86735   0.85989   0.97967   0.00000  Uiso   1.00
C1316  C     0.79932   0.80677   0.68699   0.00000  Uiso   1.00
H1317  H     0.99119   0.82841   0.78080   0.00000  Uiso   1.00
H1318  H     0.67548   0.83827   0.88586   0.00000  Uiso   1.00
N1319  N     0.83332   0.83332   0.95240   0.00000  Uiso   1.00
N1320  N     0.83335   0.83334   0.71427   0.00000  Uiso   1.00
O1321  O     0.83333   0.77225   0.87154   0.00000  Uiso   1.00
O1322  O     0.83334   0.89442   0.79513   0.00000  Uiso   1.00
O1323  O     0.83333   0.77226   0.79510   0.00000  Uiso   1.00
O1324  O     0.83334   0.89441   0.87157   0.00000  Uiso   1.00
O1325  O     0.75725   0.83333   0.86261   0.00000  Uiso   1.00
O1326  O     0.90942   0.83334   0.80405   0.00000  Uiso   1.00
O1327  O     0.75725   0.83334   0.78617   0.00000  Uiso   1.00
O1328  O     0.90942   0.83333   0.88050   0.00000  Uiso   1.00
Zn1329 Zn    0.83333   0.83333   0.88437   0.00000  Uiso   1.00
Zn1330 Zn    0.83333   0.83334   0.78229   0.00000  Uiso   1.00
I1331  I     0.89500   0.71780   0.74650   0.00000  Uiso   1.00
I1332  I     0.77203   0.94913   0.92018   0.00000  Uiso   1.00
C1333  C     0.81943   0.96444   0.74421   0.00000  Uiso   1.00
H1334  H     0.84430   0.97238   0.71867   0.00000  Uiso   1.00
O1335  O     0.77916   0.94287   0.73313   0.00000  Uiso   1.00
C1336  C     0.84824   0.70228   0.92257   0.00000  Uiso   1.00
H1337  H     0.82393   0.69390   0.94840   0.00000  Uiso   1.00
O1338  O     0.88821   0.72429   0.93333   0.00000  Uiso   1.00
C1339  C     0.91466   0.87952   0.72254   0.00000  Uiso   1.00
H1340  H     0.95399   0.87380   0.71595   0.00000  Uiso   1.00
O1341  O     0.90938   0.90559   0.75035   0.00000  Uiso   1.00
C1342  C     0.75214   0.78703   0.94410   0.00000  Uiso   1.00
H1343  H     0.71275   0.79290   0.95045   0.00000  Uiso   1.00
O1344  O     0.75755   0.76073   0.91658   0.00000  Uiso   1.00
C1345  C     0.89955   0.89297   0.95897   0.00000  Uiso   1.00
H1346  H     0.91523   0.88803   0.92832   0.00000  Uiso   1.00
O1347  O     0.90794   0.92759   0.97587   0.00000  Uiso   1.00
C1348  C     0.76711   0.77370   0.70770   0.00000  Uiso   1.00
H1349  H     0.75141   0.77865   0.73833   0.00000  Uiso   1.00
O1350  O     0.75875   0.73907   0.69082   0.00000  Uiso   1.00
loop_
_geom_bond_atom_site_label_1
_geom_bond_atom_site_label_2
_geom_bond_distance
_geom_bond_site_symmetry_2
_ccdc_geom_bond_type
C1     O21     1.295   .     A
C1     C12     1.448   .     S
C1     O23     1.300   .     A
C2     O22     1.295   .     A
C2     C11     1.448   .     S
C2     O24     1.300   .     A
C3     O27     1.288   .     A
C3     O25     1.283   .     A
C3     C5      1.402   .     S
C4     O26     1.283   .     A
C4     C6      1.402   .     S
C4     O28     1.288   .     A
C5     C106    1.331   1_455 S
C5     H117    1.087   1_455 S
C6     C55     1.331   .     S
C6     H68     1.087   .     S
C7     C12     1.406   .     A
C7     I31     2.158   .     S
C7     C309    1.385   1_545 S
C8     C11     1.406   .     A
C8     I32     2.157   .     S
C8     C160    1.385   .     S
C9     C33     1.489   .     S
C9     C11     1.414   .     A
C9     C157    1.385   .     S
C10    C12     1.414   .     A
C10    C36     1.489   .     S
C10    C308    1.385   1_545 S
C13    C39     1.479   .     S
C13    N20     1.376   .     A
C13    C915    1.428   1_554 S
C14    C42     1.479   .     S
C14    N19     1.375   .     A
C14    C466    1.428   .     S
C15    C45     1.487   .     S
C15    N19     1.375   .     A
C15    C463    1.428   .     S
C16    N20     1.375   .     A
C16    C48     1.487   .     S
C16    C914    1.428   1_554 S
H17    C55     1.087   .     S
H18    C106    1.087   1_455 S
N19    Zn29    2.027   .     S
N20    Zn30    2.027   .     S
O21    Zn29    1.996   .     S
O22    Zn30    1.996   .     S
O23    Zn30    1.977   .     S
O24    Zn29    1.977   .     S
O25    Zn29    1.968   .     S
O26    Zn30    1.968   .     S
O27    Zn30    1.979   .     S
O28    Zn29    1.979   .     S
C33    H34     1.083   .     S
C33    O35     1.222   .     D
C36    H37     1.083   .     S
C36    O38     1.222   .     D
C39    O41     1.216   .     D
C39    H40     1.085   .     S
C42    O44     1.216   .     D
C42    H43     1.085   .     S
C45    H46     1.071   .     S
C45    O47     1.222   .     D
C48    O50     1.222   .     D
C48    H49     1.071   .     S
C51    O71     1.295   .     A
C51    C62     1.448   .     S
C51    O73     1.300   .     A
C52    O72     1.295   .     A
C52    C61     1.448   .     S
C52    O74     1.300   .     A
C53    O77     1.288   .     A
C53    O75     1.283   .     A
C53    C55     1.402   .     S
C54    O76     1.283   .     A
C54    C56     1.402   .     S
C54    O78     1.288   .     A
C56    C105    1.331   .     S
C56    H118    1.087   .     S
C57    C62     1.406   .     A
C57    I81     2.158   .     S
C57    C359    1.385   1_545 S
C58    C61     1.406   .     A
C58    I82     2.157   .     S
C58    C210    1.385   .     S
C59    C83     1.489   .     S
C59    C61     1.414   .     A
C59    C207    1.385   .     S
C60    C62     1.414   .     A
C60    C86     1.489   .     S
C60    C358    1.385   1_545 S
C63    C89     1.479   .     S
C63    N70     1.376   .     A
C63    C965    1.428   1_554 S
C64    C92     1.479   .     S
C64    N69     1.375   .     A
C64    C516    1.428   .     S
C65    C95     1.487   .     S
C65    N69     1.375   .     A
C65    C513    1.428   .     S
C66    N70     1.375   .     A
C66    C98     1.487   .     S
C66    C964    1.428   1_554 S
H67    C105    1.087   .     S
N69    Zn79    2.027   .     S
N70    Zn80    2.027   .     S
O71    Zn79    1.996   .     S
O72    Zn80    1.996   .     S
O73    Zn80    1.977   .     S
O74    Zn79    1.977   .     S
O75    Zn79    1.968   .     S
O76    Zn80    1.968   .     S
O77    Zn80    1.979   .     S
O78    Zn79    1.979   .     S
C83    H84     1.083   .     S
C83    O85     1.222   .     D
C86    H87     1.083   .     S
C86    O88     1.222   .     D
C89    O91     1.216   .     D
C89    H90     1.085   .     S
C92    O94     1.216   .     D
C92    H93     1.085   .     S
C95    H96     1.071   .     S
C95    O97     1.222   .     D
C98    O100    1.222   .     D
C98    H99     1.071   .     S
C101   O121    1.295   .     A
C101   C112    1.448   .     S
C101   O123    1.300   .     A
C102   O122    1.295   .     A
C102   C111    1.448   .     S
C102   O124    1.300   .     A
C103   O127    1.288   .     A
C103   O125    1.283   .     A
C103   C105    1.402   .     S
C104   O126    1.283   .     A
C104   C106    1.402   .     S
C104   O128    1.288   .     A
C106   C5      1.331   1_655 S
C106   H18     1.087   1_655 S
C107   C112    1.406   .     A
C107   I131    2.158   .     S
C107   C409    1.385   1_545 S
C108   C111    1.406   .     A
C108   I132    2.157   .     S
C108   C260    1.385   .     S
C109   C133    1.489   .     S
C109   C111    1.414   .     A
C109   C257    1.385   .     S
C110   C112    1.414   .     A
C110   C136    1.489   .     S
C110   C408    1.385   1_545 S
C113   C139    1.479   .     S
C113   N120    1.376   .     A
C113   C1015   1.428   1_554 S
C114   C142    1.479   .     S
C114   N119    1.375   .     A
C114   C566    1.428   .     S
C115   C145    1.487   .     S
C115   N119    1.375   .     A
C115   C563    1.428   .     S
C116   N120    1.375   .     A
C116   C148    1.487   .     S
C116   C1014   1.428   1_554 S
H117   C5      1.087   1_655 S
N119   Zn129   2.027   .     S
N120   Zn130   2.027   .     S
O121   Zn129   1.996   .     S
O122   Zn130   1.996   .     S
O123   Zn130   1.977   .     S
O124   Zn129   1.977   .     S
O125   Zn129   1.968   .     S
O126   Zn130   1.968   .     S
O127   Zn130   1.979   .     S
O128   Zn129   1.979   .     S
C133   H134    1.083   .     S
C133   O135    1.222   .     D
C136   H137    1.083   .     S
C136   O138    1.222   .     D
C139   O141    1.216   .     D
C139   H140    1.085   .     S
C142   O144    1.216   .     D
C142   H143    1.085   .     S
C145   H146    1.071   .     S
C145   O147    1.222   .     D
C148   O150    1.222   .     D
C148   H149    1.071   .     S
C151   O171    1.295   .     A
C151   C162    1.448   .     S
C151   O173    1.300   .     A
C152   O172    1.295   .     A
C152   C161    1.448   .     S
C152   O174    1.300   .     A
C153   O177    1.288   .     A
C153   O175    1.283   .     A
C153   C155    1.402   .     S
C154   O176    1.283   .     A
C154   C156    1.402   .     S
C154   O178    1.288   .     A
C155   C256    1.331   1_455 S
C155   H267    1.087   1_455 S
C156   C205    1.331   .     S
C156   H218    1.087   .     S
C157   C162    1.406   .     A
C157   I181    2.158   .     S
C158   C161    1.406   .     A
C158   I182    2.157   .     S
C158   C310    1.385   .     S
C159   C183    1.489   .     S
C159   C161    1.414   .     A
C159   C307    1.385   .     S
C160   C162    1.414   .     A
C160   C186    1.489   .     S
C163   C189    1.479   .     S
C163   N170    1.376   .     A
C163   C1065   1.428   1_554 S
C164   C192    1.479   .     S
C164   N169    1.375   .     A
C164   C616    1.428   .     S
C165   C195    1.487   .     S
C165   N169    1.375   .     A
C165   C613    1.428   .     S
C166   N170    1.375   .     A
C166   C198    1.487   .     S
C166   C1064   1.428   1_554 S
H167   C205    1.087   .     S
H168   C256    1.087   1_455 S
N169   Zn179   2.027   .     S
N170   Zn180   2.027   .     S
O171   Zn179   1.996   .     S
O172   Zn180   1.996   .     S
O173   Zn180   1.977   .     S
O174   Zn179   1.977   .     S
O175   Zn179   1.968   .     S
O176   Zn180   1.968   .     S
O177   Zn180   1.979   .     S
O178   Zn179   1.979   .     S
C183   H184    1.083   .     S
C183   O185    1.222   .     D
C186   H187    1.083   .     S
C186   O188    1.222   .     D
C189   O191    1.216   .     D
C189   H190    1.085   .     S
C192   O194    1.216   .     D
C192   H193    1.085   .     S
C195   H196    1.071   .     S
C195   O197    1.222   .     D
C198   O200    1.222   .     D
C198   H199    1.071   .     S
C201   O221    1.295   .     A
C201   C212    1.448   .     S
C201   O223    1.300   .     A
C202   O222    1.295   .     A
C202   C211    1.448   .     S
C202   O224    1.300   .     A
C203   O227    1.288   .     A
C203   O225    1.283   .     A
C203   C205    1.402   .     S
C204   O226    1.283   .     A
C204   C206    1.402   .     S
C204   O228    1.288   .     A
C206   C255    1.331   .     S
C206   H268    1.087   .     S
C207   C212    1.406   .     A
C207   I231    2.158   .     S
C208   C211    1.406   .     A
C208   I232    2.157   .     S
C208   C360    1.385   .     S
C209   C233    1.489   .     S
C209   C211    1.414   .     A
C209   C357    1.385   .     S
C210   C212    1.414   .     A
C210   C236    1.489   .     S
C213   C239    1.479   .     S
C213   N220    1.376   .     A
C213   C1115   1.428   1_554 S
C214   C242    1.479   .     S
C214   N219    1.375   .     A
C214   C666    1.428   .     S
C215   C245    1.487   .     S
C215   N219    1.375   .     A
C215   C663    1.428   .     S
C216   N220    1.375   .     A
C216   C248    1.487   .     S
C216   C1114   1.428   1_554 S
H217   C255    1.087   .     S
N219   Zn229   2.027   .     S
N220   Zn230   2.027   .     S
O221   Zn229   1.996   .     S
O222   Zn230   1.996   .     S
O223   Zn230   1.977   .     S
O224   Zn229   1.977   .     S
O225   Zn229   1.968   .     S
O226   Zn230   1.968   .     S
O227   Zn230   1.979   .     S
O228   Zn229   1.979   .     S
C233   H234    1.083   .     S
C233   O235    1.222   .     D
C236   H237    1.083   .     S
C236   O238    1.222   .     D
C239   O241    1.216   .     D
C239   H240    1.085   .     S
C242   O244    1.216   .     D
C242   H243    1.085   .     S
C245   H246    1.071   .     S
C245   O247    1.222   .     D
C248   O250    1.222   .     D
C248   H249    1.071   .     S
C251   O271    1.295   .     A
C251   C262    1.448   .     S
C251   O273    1.300   .     A
C252   O272    1.295   .     A
C252   C261    1.448   .     S
C252   O274    1.300   .     A
C253   O277    1.288   .     A
C253   O275    1.283   .     A
C253   C255    1.402   .     S
C254   O276    1.283   .     A
C254   C256    1.402   .     S
C254   O278    1.288   .     A
C256   C155    1.331   1_655 S
C256   H168    1.087   1_655 S
C257   C262    1.406   .     A
C257   I281    2.158   .     S
C258   C261    1.406   .     A
C258   I282    2.157   .     S
C258   C410    1.385   .     S
C259   C283    1.489   .     S
C259   C261    1.414   .     A
C259   C407    1.385   .     S
C260   C262    1.414   .     A
C260   C286    1.489   .     S
C263   C289    1.479   .     S
C263   N270    1.376   .     A
C263   C1165   1.428   1_554 S
C264   C292    1.479   .     S
C264   N269    1.375   .     A
C264   C716    1.428   .     S
C265   C295    1.487   .     S
C265   N269    1.375   .     A
C265   C713    1.428   .     S
C266   N270    1.375   .     A
C266   C298    1.487   .     S
C266   C1164   1.428   1_554 S
H267   C155    1.087   1_655 S
N269   Zn279   2.027   .     S
N270   Zn280   2.027   .     S
O271   Zn279   1.996   .     S
O272   Zn280   1.996   .     S
O273   Zn280   1.977   .     S
O274   Zn279   1.977   .     S
O275   Zn279   1.968   .     S
O276   Zn280   1.968   .     S
O277   Zn280   1.979   .     S
O278   Zn279   1.979   .     S
C283   H284    1.083   .     S
C283   O285    1.222   .     D
C286   H287    1.083   .     S
C286   O288    1.222   .     D
C289   O291    1.216   .     D
C289   H290    1.085   .     S
C292   O294    1.216   .     D
C292   H293    1.085   .     S
C295   H296    1.071   .     S
C295   O297    1.222   .     D
C298   O300    1.222   .     D
C298   H299    1.071   .     S
C301   O321    1.295   .     A
C301   C312    1.448   .     S
C301   O323    1.300   .     A
C302   O322    1.295   .     A
C302   C311    1.448   .     S
C302   O324    1.300   .     A
C303   O327    1.288   .     A
C303   O325    1.283   .     A
C303   C305    1.402   .     S
C304   O326    1.283   .     A
C304   C306    1.402   .     S
C304   O328    1.288   .     A
C305   C406    1.331   1_455 S
C305   H417    1.087   1_455 S
C306   C355    1.331   .     S
C306   H368    1.087   .     S
C307   C312    1.406   .     A
C307   I331    2.158   .     S
C308   C311    1.406   .     A
C308   I332    2.157   .     S
C308   C10     1.385   1_565 S
C309   C333    1.489   .     S
C309   C311    1.414   .     A
C309   C7      1.385   1_565 S
C310   C312    1.414   .     A
C310   C336    1.489   .     S
C313   C339    1.479   .     S
C313   N320    1.376   .     A
C313   C1215   1.428   1_554 S
C314   C342    1.479   .     S
C314   N319    1.375   .     A
C314   C766    1.428   .     S
C315   C345    1.487   .     S
C315   N319    1.375   .     A
C315   C763    1.428   .     S
C316   N320    1.375   .     A
C316   C348    1.487   .     S
C316   C1214   1.428   1_554 S
H317   C355    1.087   .     S
H318   C406    1.087   1_455 S
N319   Zn329   2.027   .     S
N320   Zn330   2.027   .     S
O321   Zn329   1.996   .     S
O322   Zn330   1.996   .     S
O323   Zn330   1.977   .     S
O324   Zn329   1.977   .     S
O325   Zn329   1.968   .     S
O326   Zn330   1.968   .     S
O327   Zn330   1.979   .     S
O328   Zn329   1.979   .     S
C333   H334    1.083   .     S
C333   O335    1.222   .     D
C336   H337    1.083   .     S
C336   O338    1.222   .     D
C339   O341    1.216   .     D
C339   H340    1.085   .     S
C342   O344    1.216   .     D
C342   H343    1.085   .     S
C345   H346    1.071   .     S
C345   O347    1.222   .     D
C348   O350    1.222   .     D
C348   H349    1.071   .     S
C351   O371    1.295   .     A
C351   C362    1.448   .     S
C351   O373    1.300   .     A
C352   O372    1.295   .     A
C352   C361    1.448   .     S
C352   O374    1.300   .     A
C353   O377    1.288   .     A
C353   O375    1.283   .     A
C353   C355    1.402   .     S
C354   O376    1.283   .     A
C354   C356    1.402   .     S
C354   O378    1.288   .     A
C356   C405    1.331   .     S
C356   H418    1.087   .     S
C357   C362    1.406   .     A
C357   I381    2.158   .     S
C358   C361    1.406   .     A
C358   I382    2.157   .     S
C358   C60     1.385   1_565 S
C359   C383    1.489   .     S
C359   C361    1.414   .     A
C359   C57     1.385   1_565 S
C360   C362    1.414   .     A
C360   C386    1.489   .     S
C363   C389    1.479   .     S
C363   N370    1.376   .     A
C363   C1265   1.428   1_554 S
C364   C392    1.479   .     S
C364   N369    1.375   .     A
C364   C816    1.428   .     S
C365   C395    1.487   .     S
C365   N369    1.375   .     A
C365   C813    1.428   .     S
C366   N370    1.375   .     A
C366   C398    1.487   .     S
C366   C1264   1.428   1_554 S
H367   C405    1.087   .     S
N369   Zn379   2.027   .     S
N370   Zn380   2.027   .     S
O371   Zn379   1.996   .     S
O372   Zn380   1.996   .     S
O373   Zn380   1.977   .     S
O374   Zn379   1.977   .     S
O375   Zn379   1.968   .     S
O376   Zn380   1.968   .     S
O377   Zn380   1.979   .     S
O378   Zn379   1.979   .     S
C383   H384    1.083   .     S
C383   O385    1.222   .     D
C386   H387    1.083   .     S
C386   O388    1.222   .     D
C389   O391    1.216   .     D
C389   H390    1.085   .     S
C392   O394    1.216   .     D
C392   H393    1.085   .     S
C395   H396    1.071   .     S
C395   O397    1.222   .     D
C398   O400    1.222   .     D
C398   H399    1.071   .     S
C401   O421    1.295   .     A
C401   C412    1.448   .     S
C401   O423    1.300   .     A
C402   O422    1.295   .     A
C402   C411    1.448   .     S
C402   O424    1.300   .     A
C403   O427    1.288   .     A
C403   O425    1.283   .     A
C403   C405    1.402   .     S
C404   O426    1.283   .     A
C404   C406    1.402   .     S
C404   O428    1.288   .     A
C406   C305    1.331   1_655 S
C406   H318    1.087   1_655 S
C407   C412    1.406   .     A
C407   I431    2.158   .     S
C408   C411    1.406   .     A
C408   I432    2.157   .     S
C408   C110    1.385   1_565 S
C409   C433    1.489   .     S
C409   C411    1.414   .     A
C409   C107    1.385   1_565 S
C410   C412    1.414   .     A
C410   C436    1.489   .     S
C413   C439    1.479   .     S
C413   N420    1.376   .     A
C413   C1315   1.428   1_554 S
C414   C442    1.479   .     S
C414   N419    1.375   .     A
C414   C866    1.428   .     S
C415   C445    1.487   .     S
C415   N419    1.375   .     A
C415   C863    1.428   .     S
C416   N420    1.375   .     A
C416   C448    1.487   .     S
C416   C1314   1.428   1_554 S
H417   C305    1.087   1_655 S
N419   Zn429   2.027   .     S
N420   Zn430   2.027   .     S
O421   Zn429   1.996   .     S
O422   Zn430   1.996   .     S
O423   Zn430   1.977   .     S
O424   Zn429   1.977   .     S
O425   Zn429   1.968   .     S
O426   Zn430   1.968   .     S
O427   Zn430   1.979   .     S
O428   Zn429   1.979   .     S
C433   H434    1.083   .     S
C433   O435    1.222   .     D
C436   H437    1.083   .     S
C436   O438    1.222   .     D
C439   O441    1.216   .     D
C439   H440    1.085   .     S
C442   O444    1.216   .     D
C442   H443    1.085   .     S
C445   H446    1.071   .     S
C445   O447    1.222   .     D
C448   O450    1.222   .     D
C448   H449    1.071   .     S
C451   O471    1.295   .     A
C451   C462    1.448   .     S
C451   O473    1.300   .     A
C452   O472    1.295   .     A
C452   C461    1.448   .     S
C452   O474    1.300   .     A
C453   O477    1.288   .     A
C453   O475    1.283   .     A
C453   C455    1.402   .     S
C454   O476    1.283   .     A
C454   C456    1.402   .     S
C454   O478    1.288   .     A
C455   C556    1.331   1_455 S
C455   H567    1.087   1_455 S
C456   C505    1.331   .     S
C456   H518    1.087   .     S
C457   C462    1.406   .     A
C457   I481    2.158   .     S
C457   C759    1.385   1_545 S
C458   C461    1.406   .     A
C458   I482    2.157   .     S
C458   C610    1.385   .     S
C459   C483    1.489   .     S
C459   C461    1.414   .     A
C459   C607    1.385   .     S
C460   C462    1.414   .     A
C460   C486    1.489   .     S
C460   C758    1.385   1_545 S
C463   C489    1.479   .     S
C463   N470    1.376   .     A
C464   C492    1.479   .     S
C464   N469    1.375   .     A
C464   C916    1.428   .     S
C465   C495    1.487   .     S
C465   N469    1.375   .     A
C465   C913    1.428   .     S
C466   N470    1.375   .     A
C466   C498    1.487   .     S
H467   C505    1.087   .     S
H468   C556    1.087   1_455 S
N469   Zn479   2.027   .     S
N470   Zn480   2.027   .     S
O471   Zn479   1.996   .     S
O472   Zn480   1.996   .     S
O473   Zn480   1.977   .     S
O474   Zn479   1.977   .     S
O475   Zn479   1.968   .     S
O476   Zn480   1.968   .     S
O477   Zn480   1.979   .     S
O478   Zn479   1.979   .     S
C483   H484    1.083   .     S
C483   O485    1.222   .     D
C486   H487    1.083   .     S
C486   O488    1.222   .     D
C489   O491    1.216   .     D
C489   H490    1.085   .     S
C492   O494    1.216   .     D
C492   H493    1.085   .     S
C495   H496    1.071   .     S
C495   O497    1.222   .     D
C498   O500    1.222   .     D
C498   H499    1.071   .     S
C501   O521    1.295   .     A
C501   C512    1.448   .     S
C501   O523    1.300   .     A
C502   O522    1.295   .     A
C502   C511    1.448   .     S
C502   O524    1.300   .     A
C503   O527    1.288   .     A
C503   O525    1.283   .     A
C503   C505    1.402   .     S
C504   O526    1.283   .     A
C504   C506    1.402   .     S
C504   O528    1.288   .     A
C506   C555    1.331   .     S
C506   H568    1.087   .     S
C507   C512    1.406   .     A
C507   I531    2.158   .     S
C507   C809    1.385   1_545 S
C508   C511    1.406   .     A
C508   I532    2.157   .     S
C508   C660    1.385   .     S
C509   C533    1.489   .     S
C509   C511    1.414   .     A
C509   C657    1.385   .     S
C510   C512    1.414   .     A
C510   C536    1.489   .     S
C510   C808    1.385   1_545 S
C513   C539    1.479   .     S
C513   N520    1.376   .     A
C514   C542    1.479   .     S
C514   N519    1.375   .     A
C514   C966    1.428   .     S
C515   C545    1.487   .     S
C515   N519    1.375   .     A
C515   C963    1.428   .     S
C516   N520    1.375   .     A
C516   C548    1.487   .     S
H517   C555    1.087   .     S
N519   Zn529   2.027   .     S
N520   Zn530   2.027   .     S
O521   Zn529   1.996   .     S
O522   Zn530   1.996   .     S
O523   Zn530   1.977   .     S
O524   Zn529   1.977   .     S
O525   Zn529   1.968   .     S
O526   Zn530   1.968   .     S
O527   Zn530   1.979   .     S
O528   Zn529   1.979   .     S
C533   H534    1.083   .     S
C533   O535    1.222   .     D
C536   H537    1.083   .     S
C536   O538    1.222   .     D
C539   O541    1.216   .     D
C539   H540    1.085   .     S
C542   O544    1.216   .     D
C542   H543    1.085   .     S
C545   H546    1.071   .     S
C545   O547    1.222   .     D
C548   O550    1.222   .     D
C548   H549    1.071   .     S
C551   O571    1.295   .     A
C551   C562    1.448   .     S
C551   O573    1.300   .     A
C552   O572    1.295   .     A
C552   C561    1.448   .     S
C552   O574    1.300   .     A
C553   O577    1.288   .     A
C553   O575    1.283   .     A
C553   C555    1.402   .     S
C554   O576    1.283   .     A
C554   C556    1.402   .     S
C554   O578    1.288   .     A
C556   C455    1.331   1_655 S
C556   H468    1.087   1_655 S
C557   C562    1.406   .     A
C557   I581    2.158   .     S
C557   C859    1.385   1_545 S
C558   C561    1.406   .     A
C558   I582    2.157   .     S
C558   C710    1.385   .     S
C559   C583    1.489   .     S
C559   C561    1.414   .     A
C559   C707    1.385   .     S
C560   C562    1.414   .     A
C560   C586    1.489   .     S
C560   C858    1.385   1_545 S
C563   C589    1.479   .     S
C563   N570    1.376   .     A
C564   C592    1.479   .     S
C564   N569    1.375   .     A
C564   C1016   1.428   .     S
C565   C595    1.487   .     S
C565   N569    1.375   .     A
C565   C1013   1.428   .     S
C566   N570    1.375   .     A
C566   C598    1.487   .     S
H567   C455    1.087   1_655 S
N569   Zn579   2.027   .     S
N570   Zn580   2.027   .     S
O571   Zn579   1.996   .     S
O572   Zn580   1.996   .     S
O573   Zn580   1.977   .     S
O574   Zn579   1.977   .     S
O575   Zn579   1.968   .     S
O576   Zn580   1.968   .     S
O577   Zn580   1.979   .     S
O578   Zn579   1.979   .     S
C583   H584    1.083   .     S
C583   O585    1.222   .     D
C586   H587    1.083   .     S
C586   O588    1.222   .     D
C589   O591    1.216   .     D
C589   H590    1.085   .     S
C592   O594    1.216   .     D
C592   H593    1.085   .     S
C595   H596    1.071   .     S
C595   O597    1.222   .     D
C598   O600    1.222   .     D
C598   H599    1.071   .     S
C601   O621    1.295   .     A
C601   C612    1.448   .     S
C601   O623    1.300   .     A
C602   O622    1.295   .     A
C602   C611    1.448   .     S
C602   O624    1.300   .     A
C603   O627    1.288   .     A
C603   O625    1.283   .     A
C603   C605    1.402   .     S
C604   O626    1.283   .     A
C604   C606    1.402   .     S
C604   O628    1.288   .     A
C605   C706    1.331   1_455 S
C605   H717    1.087   1_455 S
C606   C655    1.331   .     S
C606   H668    1.087   .     S
C607   C612    1.406   .     A
C607   I631    2.158   .     S
C608   C611    1.406   .     A
C608   I632    2.157   .     S
C608   C760    1.385   .     S
C609   C633    1.489   .     S
C609   C611    1.414   .     A
C609   C757    1.385   .     S
C610   C612    1.414   .     A
C610   C636    1.489   .     S
C613   C639    1.479   .     S
C613   N620    1.376   .     A
C614   C642    1.479   .     S
C614   N619    1.375   .     A
C614   C1066   1.428   .     S
C615   C645    1.487   .     S
C615   N619    1.375   .     A
C615   C1063   1.428   .     S
C616   N620    1.375   .     A
C616   C648    1.487   .     S
H617   C655    1.087   .     S
H618   C706    1.087   1_455 S
N619   Zn629   2.027   .     S
N620   Zn630   2.027   .     S
O621   Zn629   1.996   .     S
O622   Zn630   1.996   .     S
O623   Zn630   1.977   .     S
O624   Zn629   1.977   .     S
O625   Zn629   1.968   .     S
O626   Zn630   1.968   .     S
O627   Zn630   1.979   .     S
O628   Zn629   1.979   .     S
C633   H634    1.083   .     S
C633   O635    1.222   .     D
C636   H637    1.083   .     S
C636   O638    1.222   .     D
C639   O641    1.216   .     D
C639   H640    1.085   .     S
C642   O644    1.216   .     D
C642   H643    1.085   .     S
C645   H646    1.071   .     S
C645   O647    1.222   .     D
C648   O650    1.222   .     D
C648   H649    1.071   .     S
C651   O671    1.295   .     A
C651   C662    1.448   .     S
C651   O673    1.300   .     A
C652   O672    1.295   .     A
C652   C661    1.448   .     S
C652   O674    1.300   .     A
C653   O677    1.288   .     A
C653   O675    1.283   .     A
C653   C655    1.402   .     S
C654   O676    1.283   .     A
C654   C656    1.402   .     S
C654   O678    1.288   .     A
C656   C705    1.331   .     S
C656   H718    1.087   .     S
C657   C662    1.406   .     A
C657   I681    2.158   .     S
C658   C661    1.406   .     A
C658   I682    2.157   .     S
C658   C810    1.385   .     S
C659   C683    1.489   .     S
C659   C661    1.414   .     A
C659   C807    1.385   .     S
C660   C662    1.414   .     A
C660   C686    1.489   .     S
C663   C689    1.479   .     S
C663   N670    1.376   .     A
C664   C692    1.479   .     S
C664   N669    1.375   .     A
C664   C1116   1.428   .     S
C665   C695    1.487   .     S
C665   N669    1.375   .     A
C665   C1113   1.428   .     S
C666   N670    1.375   .     A
C666   C698    1.487   .     S
H667   C705    1.087   .     S
N669   Zn679   2.027   .     S
N670   Zn680   2.027   .     S
O671   Zn679   1.996   .     S
O672   Zn680   1.996   .     S
O673   Zn680   1.977   .     S
O674   Zn679   1.977   .     S
O675   Zn679   1.968   .     S
O676   Zn680   1.968   .     S
O677   Zn680   1.979   .     S
O678   Zn679   1.979   .     S
C683   H684    1.083   .     S
C683   O685    1.222   .     D
C686   H687    1.083   .     S
C686   O688    1.222   .     D
C689   O691    1.216   .     D
C689   H690    1.085   .     S
C692   O694    1.216   .     D
C692   H693    1.085   .     S
C695   H696    1.071   .     S
C695   O697    1.222   .     D
C698   O700    1.222   .     D
C698   H699    1.071   .     S
C701   O721    1.295   .     A
C701   C712    1.448   .     S
C701   O723    1.300   .     A
C702   O722    1.295   .     A
C702   C711    1.448   .     S
C702   O724    1.300   .     A
C703   O727    1.288   .     A
C703   O725    1.283   .     A
C703   C705    1.402   .     S
C704   O726    1.283   .     A
C704   C706    1.402   .     S
C704   O728    1.288   .     A
C706   C605    1.331   1_655 S
C706   H618    1.087   1_655 S
C707   C712    1.406   .     A
C707   I731    2.158   .     S
C708   C711    1.406   .     A
C708   I732    2.157   .     S
C708   C860    1.385   .     S
C709   C733    1.489   .     S
C709   C711    1.414   .     A
C709   C857    1.385   .     S
C710   C712    1.414   .     A
C710   C736    1.489   .     S
C713   C739    1.479   .     S
C713   N720    1.376   .     A
C714   C742    1.479   .     S
C714   N719    1.375   .     A
C714   C1166   1.428   .     S
C715   C745    1.487   .     S
C715   N719    1.375   .     A
C715   C1163   1.428   .     S
C716   N720    1.375   .     A
C716   C748    1.487   .     S
H717   C605    1.087   1_655 S
N719   Zn729   2.027   .     S
N720   Zn730   2.027   .     S
O721   Zn729   1.996   .     S
O722   Zn730   1.996   .     S
O723   Zn730   1.977   .     S
O724   Zn729   1.977   .     S
O725   Zn729   1.968   .     S
O726   Zn730   1.968   .     S
O727   Zn730   1.979   .     S
O728   Zn729   1.979   .     S
C733   H734    1.083   .     S
C733   O735    1.222   .     D
C736   H737    1.083   .     S
C736   O738    1.222   .     D
C739   O741    1.216   .     D
C739   H740    1.085   .     S
C742   O744    1.216   .     D
C742   H743    1.085   .     S
C745   H746    1.071   .     S
C745   O747    1.222   .     D
C748   O750    1.222   .     D
C748   H749    1.071   .     S
C751   O771    1.295   .     A
C751   C762    1.448   .     S
C751   O773    1.300   .     A
C752   O772    1.295   .     A
C752   C761    1.448   .     S
C752   O774    1.300   .     A
C753   O777    1.288   .     A
C753   O775    1.283   .     A
C753   C755    1.402   .     S
C754   O776    1.283   .     A
C754   C756    1.402   .     S
C754   O778    1.288   .     A
C755   C856    1.331   1_455 S
C755   H867    1.087   1_455 S
C756   C805    1.331   .     S
C756   H818    1.087   .     S
C757   C762    1.406   .     A
C757   I781    2.158   .     S
C758   C761    1.406   .     A
C758   I782    2.157   .     S
C758   C460    1.385   1_565 S
C759   C783    1.489   .     S
C759   C761    1.414   .     A
C759   C457    1.385   1_565 S
C760   C762    1.414   .     A
C760   C786    1.489   .     S
C763   C789    1.479   .     S
C763   N770    1.376   .     A
C764   C792    1.479   .     S
C764   N769    1.375   .     A
C764   C1216   1.428   .     S
C765   C795    1.487   .     S
C765   N769    1.375   .     A
C765   C1213   1.428   .     S
C766   N770    1.375   .     A
C766   C798    1.487   .     S
H767   C805    1.087   .     S
H768   C856    1.087   1_455 S
N769   Zn779   2.027   .     S
N770   Zn780   2.027   .     S
O771   Zn779   1.996   .     S
O772   Zn780   1.996   .     S
O773   Zn780   1.977   .     S
O774   Zn779   1.977   .     S
O775   Zn779   1.968   .     S
O776   Zn780   1.968   .     S
O777   Zn780   1.979   .     S
O778   Zn779   1.979   .     S
C783   H784    1.083   .     S
C783   O785    1.222   .     D
C786   H787    1.083   .     S
C786   O788    1.222   .     D
C789   O791    1.216   .     D
C789   H790    1.085   .     S
C792   O794    1.216   .     D
C792   H793    1.085   .     S
C795   H796    1.071   .     S
C795   O797    1.222   .     D
C798   O800    1.222   .     D
C798   H799    1.071   .     S
C801   O821    1.295   .     A
C801   C812    1.448   .     S
C801   O823    1.300   .     A
C802   O822    1.295   .     A
C802   C811    1.448   .     S
C802   O824    1.300   .     A
C803   O827    1.288   .     A
C803   O825    1.283   .     A
C803   C805    1.402   .     S
C804   O826    1.283   .     A
C804   C806    1.402   .     S
C804   O828    1.288   .     A
C806   C855    1.331   .     S
C806   H868    1.087   .     S
C807   C812    1.406   .     A
C807   I831    2.158   .     S
C808   C811    1.406   .     A
C808   I832    2.157   .     S
C808   C510    1.385   1_565 S
C809   C833    1.489   .     S
C809   C811    1.414   .     A
C809   C507    1.385   1_565 S
C810   C812    1.414   .     A
C810   C836    1.489   .     S
C813   C839    1.479   .     S
C813   N820    1.376   .     A
C814   C842    1.479   .     S
C814   N819    1.375   .     A
C814   C1266   1.428   .     S
C815   C845    1.487   .     S
C815   N819    1.375   .     A
C815   C1263   1.428   .     S
C816   N820    1.375   .     A
C816   C848    1.487   .     S
H817   C855    1.087   .     S
N819   Zn829   2.027   .     S
N820   Zn830   2.027   .     S
O821   Zn829   1.996   .     S
O822   Zn830   1.996   .     S
O823   Zn830   1.977   .     S
O824   Zn829   1.977   .     S
O825   Zn829   1.968   .     S
O826   Zn830   1.968   .     S
O827   Zn830   1.979   .     S
O828   Zn829   1.979   .     S
C833   H834    1.083   .     S
C833   O835    1.222   .     D
C836   H837    1.083   .     S
C836   O838    1.222   .     D
C839   O841    1.216   .     D
C839   H840    1.085   .     S
C842   O844    1.216   .     D
C842   H843    1.085   .     S
C845   H846    1.071   .     S
C845   O847    1.222   .     D
C848   O850    1.222   .     D
C848   H849    1.071   .     S
C851   O871    1.295   .     A
C851   C862    1.448   .     S
C851   O873    1.300   .     A
C852   O872    1.295   .     A
C852   C861    1.448   .     S
C852   O874    1.300   .     A
C853   O877    1.288   .     A
C853   O875    1.283   .     A
C853   C855    1.402   .     S
C854   O876    1.283   .     A
C854   C856    1.402   .     S
C854   O878    1.288   .     A
C856   C755    1.331   1_655 S
C856   H768    1.087   1_655 S
C857   C862    1.406   .     A
C857   I881    2.158   .     S
C858   C861    1.406   .     A
C858   I882    2.157   .     S
C858   C560    1.385   1_565 S
C859   C883    1.489   .     S
C859   C861    1.414   .     A
C859   C557    1.385   1_565 S
C860   C862    1.414   .     A
C860   C886    1.489   .     S
C863   C889    1.479   .     S
C863   N870    1.376   .     A
C864   C892    1.479   .     S
C864   N869    1.375   .     A
C864   C1316   1.428   .     S
C865   C895    1.487   .     S
C865   N869    1.375   .     A
C865   C1313   1.428   .     S
C866   N870    1.375   .     A
C866   C898    1.487   .     S
H867   C755    1.087   1_655 S
N869   Zn879   2.027   .     S
N870   Zn880   2.027   .     S
O871   Zn879   1.996   .     S
O872   Zn880   1.996   .     S
O873   Zn880   1.977   .     S
O874   Zn879   1.977   .     S
O875   Zn879   1.968   .     S
O876   Zn880   1.968   .     S
O877   Zn880   1.979   .     S
O878   Zn879   1.979   .     S
C883   H884    1.083   .     S
C883   O885    1.222   .     D
C886   H887    1.083   .     S
C886   O888    1.222   .     D
C889   O891    1.216   .     D
C889   H890    1.085   .     S
C892   O894    1.216   .     D
C892   H893    1.085   .     S
C895   H896    1.071   .     S
C895   O897    1.222   .     D
C898   O900    1.222   .     D
C898   H899    1.071   .     S
C901   O921    1.295   .     A
C901   C912    1.448   .     S
C901   O923    1.300   .     A
C902   O922    1.295   .     A
C902   C911    1.448   .     S
C902   O924    1.300   .     A
C903   O927    1.288   .     A
C903   O925    1.283   .     A
C903   C905    1.402   .     S
C904   O926    1.283   .     A
C904   C906    1.402   .     S
C904   O928    1.288   .     A
C905   C1006   1.331   1_455 S
C905   H1017   1.087   1_455 S
C906   C955    1.331   .     S
C906   H968    1.087   .     S
C907   C912    1.406   .     A
C907   I931    2.158   .     S
C907   C1209   1.385   1_545 S
C908   C911    1.406   .     A
C908   I932    2.157   .     S
C908   C1060   1.385   .     S
C909   C933    1.489   .     S
C909   C911    1.414   .     A
C909   C1057   1.385   .     S
C910   C912    1.414   .     A
C910   C936    1.489   .     S
C910   C1208   1.385   1_545 S
C913   C939    1.479   .     S
C913   N920    1.376   .     A
C914   C942    1.479   .     S
C914   N919    1.375   .     A
C914   C16     1.428   1_556 S
C915   C945    1.487   .     S
C915   N919    1.375   .     A
C915   C13     1.428   1_556 S
C916   N920    1.375   .     A
C916   C948    1.487   .     S
H917   C955    1.087   .     S
H918   C1006   1.087   1_455 S
N919   Zn929   2.027   .     S
N920   Zn930   2.027   .     S
O921   Zn929   1.996   .     S
O922   Zn930   1.996   .     S
O923   Zn930   1.977   .     S
O924   Zn929   1.977   .     S
O925   Zn929   1.968   .     S
O926   Zn930   1.968   .     S
O927   Zn930   1.979   .     S
O928   Zn929   1.979   .     S
C933   H934    1.083   .     S
C933   O935    1.222   .     D
C936   H937    1.083   .     S
C936   O938    1.222   .     D
C939   O941    1.216   .     D
C939   H940    1.085   .     S
C942   O944    1.216   .     D
C942   H943    1.085   .     S
C945   H946    1.071   .     S
C945   O947    1.222   .     D
C948   O950    1.222   .     D
C948   H949    1.071   .     S
C951   O971    1.295   .     A
C951   C962    1.448   .     S
C951   O973    1.300   .     A
C952   O972    1.295   .     A
C952   C961    1.448   .     S
C952   O974    1.300   .     A
C953   O977    1.288   .     A
C953   O975    1.283   .     A
C953   C955    1.402   .     S
C954   O976    1.283   .     A
C954   C956    1.402   .     S
C954   O978    1.288   .     A
C956   C1005   1.331   .     S
C956   H1018   1.087   .     S
C957   C962    1.406   .     A
C957   I981    2.158   .     S
C957   C1259   1.385   1_545 S
C958   C961    1.406   .     A
C958   I982    2.157   .     S
C958   C1110   1.385   .     S
C959   C983    1.489   .     S
C959   C961    1.414   .     A
C959   C1107   1.385   .     S
C960   C962    1.414   .     A
C960   C986    1.489   .     S
C960   C1258   1.385   1_545 S
C963   C989    1.479   .     S
C963   N970    1.376   .     A
C964   C992    1.479   .     S
C964   N969    1.375   .     A
C964   C66     1.428   1_556 S
C965   C995    1.487   .     S
C965   N969    1.375   .     A
C965   C63     1.428   1_556 S
C966   N970    1.375   .     A
C966   C998    1.487   .     S
H967   C1005   1.087   .     S
N969   Zn979   2.027   .     S
N970   Zn980   2.027   .     S
O971   Zn979   1.996   .     S
O972   Zn980   1.996   .     S
O973   Zn980   1.977   .     S
O974   Zn979   1.977   .     S
O975   Zn979   1.968   .     S
O976   Zn980   1.968   .     S
O977   Zn980   1.979   .     S
O978   Zn979   1.979   .     S
C983   H984    1.083   .     S
C983   O985    1.222   .     D
C986   H987    1.083   .     S
C986   O988    1.222   .     D
C989   O991    1.216   .     D
C989   H990    1.085   .     S
C992   O994    1.216   .     D
C992   H993    1.085   .     S
C995   H996    1.071   .     S
C995   O997    1.222   .     D
C998   O1000   1.222   .     D
C998   H999    1.071   .     S
C1001  O1021   1.295   .     A
C1001  C1012   1.448   .     S
C1001  O1023   1.300   .     A
C1002  O1022   1.295   .     A
C1002  C1011   1.448   .     S
C1002  O1024   1.300   .     A
C1003  O1027   1.288   .     A
C1003  O1025   1.283   .     A
C1003  C1005   1.402   .     S
C1004  O1026   1.283   .     A
C1004  C1006   1.402   .     S
C1004  O1028   1.288   .     A
C1006  C905    1.331   1_655 S
C1006  H918    1.087   1_655 S
C1007  C1012   1.406   .     A
C1007  I1031   2.158   .     S
C1007  C1309   1.385   1_545 S
C1008  C1011   1.406   .     A
C1008  I1032   2.157   .     S
C1008  C1160   1.385   .     S
C1009  C1033   1.489   .     S
C1009  C1011   1.414   .     A
C1009  C1157   1.385   .     S
C1010  C1012   1.414   .     A
C1010  C1036   1.489   .     S
C1010  C1308   1.385   1_545 S
C1013  C1039   1.479   .     S
C1013  N1020   1.376   .     A
C1014  C1042   1.479   .     S
C1014  N1019   1.375   .     A
C1014  C116    1.428   1_556 S
C1015  C1045   1.487   .     S
C1015  N1019   1.375   .     A
C1015  C113    1.428   1_556 S
C1016  N1020   1.375   .     A
C1016  C1048   1.487   .     S
H1017  C905    1.087   1_655 S
N1019  Zn1029  2.027   .     S
N1020  Zn1030  2.027   .     S
O1021  Zn1029  1.996   .     S
O1022  Zn1030  1.996   .     S
O1023  Zn1030  1.977   .     S
O1024  Zn1029  1.977   .     S
O1025  Zn1029  1.968   .     S
O1026  Zn1030  1.968   .     S
O1027  Zn1030  1.979   .     S
O1028  Zn1029  1.979   .     S
C1033  H1034   1.083   .     S
C1033  O1035   1.222   .     D
C1036  H1037   1.083   .     S
C1036  O1038   1.222   .     D
C1039  O1041   1.216   .     D
C1039  H1040   1.085   .     S
C1042  O1044   1.216   .     D
C1042  H1043   1.085   .     S
C1045  H1046   1.071   .     S
C1045  O1047   1.222   .     D
C1048  O1050   1.222   .     D
C1048  H1049   1.071   .     S
C1051  O1071   1.295   .     A
C1051  C1062   1.448   .     S
C1051  O1073   1.300   .     A
C1052  O1072   1.295   .     A
C1052  C1061   1.448   .     S
C1052  O1074   1.300   .     A
C1053  O1077   1.288   .     A
C1053  O1075   1.283   .     A
C1053  C1055   1.402   .     S
C1054  O1076   1.283   .     A
C1054  C1056   1.402   .     S
C1054  O1078   1.288   .     A
C1055  C1156   1.331   1_455 S
C1055  H1167   1.087   1_455 S
C1056  C1105   1.331   .     S
C1056  H1118   1.087   .     S
C1057  C1062   1.406   .     A
C1057  I1081   2.158   .     S
C1058  C1061   1.406   .     A
C1058  I1082   2.157   .     S
C1058  C1210   1.385   .     S
C1059  C1083   1.489   .     S
C1059  C1061   1.414   .     A
C1059  C1207   1.385   .     S
C1060  C1062   1.414   .     A
C1060  C1086   1.489   .     S
C1063  C1089   1.479   .     S
C1063  N1070   1.376   .     A
C1064  C1092   1.479   .     S
C1064  N1069   1.375   .     A
C1064  C166    1.428   1_556 S
C1065  C1095   1.487   .     S
C1065  N1069   1.375   .     A
C1065  C163    1.428   1_556 S
C1066  N1070   1.375   .     A
C1066  C1098   1.487   .     S
H1067  C1105   1.087   .     S
H1068  C1156   1.087   1_455 S
N1069  Zn1079  2.027   .     S
N1070  Zn1080  2.027   .     S
O1071  Zn1079  1.996   .     S
O1072  Zn1080  1.996   .     S
O1073  Zn1080  1.977   .     S
O1074  Zn1079  1.977   .     S
O1075  Zn1079  1.968   .     S
O1076  Zn1080  1.968   .     S
O1077  Zn1080  1.979   .     S
O1078  Zn1079  1.979   .     S
C1083  H1084   1.083   .     S
C1083  O1085   1.222   .     D
C1086  H1087   1.083   .     S
C1086  O1088   1.222   .     D
C1089  O1091   1.216   .     D
C1089  H1090   1.085   .     S
C1092  O1094   1.216   .     D
C1092  H1093   1.085   .     S
C1095  H1096   1.071   .     S
C1095  O1097   1.222   .     D
C1098  O1100   1.222   .     D
C1098  H1099   1.071   .     S
C1101  O1121   1.295   .     A
C1101  C1112   1.448   .     S
C1101  O1123   1.300   .     A
C1102  O1122   1.295   .     A
C1102  C1111   1.448   .     S
C1102  O1124   1.300   .     A
C1103  O1127   1.288   .     A
C1103  O1125   1.283   .     A
C1103  C1105   1.402   .     S
C1104  O1126   1.283   .     A
C1104  C1106   1.402   .     S
C1104  O1128   1.288   .     A
C1106  C1155   1.331   .     S
C1106  H1168   1.087   .     S
C1107  C1112   1.406   .     A
C1107  I1131   2.158   .     S
C1108  C1111   1.406   .     A
C1108  I1132   2.157   .     S
C1108  C1260   1.385   .     S
C1109  C1133   1.489   .     S
C1109  C1111   1.414   .     A
C1109  C1257   1.385   .     S
C1110  C1112   1.414   .     A
C1110  C1136   1.489   .     S
C1113  C1139   1.479   .     S
C1113  N1120   1.376   .     A
C1114  C1142   1.479   .     S
C1114  N1119   1.375   .     A
C1114  C216    1.428   1_556 S
C1115  C1145   1.487   .     S
C1115  N1119   1.375   .     A
C1115  C213    1.428   1_556 S
C1116  N1120   1.375   .     A
C1116  C1148   1.487   .     S
H1117  C1155   1.087   .     S
N1119  Zn1129  2.027   .     S
N1120  Zn1130  2.027   .     S
O1121  Zn1129  1.996   .     S
O1122  Zn1130  1.996   .     S
O1123  Zn1130  1.977   .     S
O1124  Zn1129  1.977   .     S
O1125  Zn1129  1.968   .     S
O1126  Zn1130  1.968   .     S
O1127  Zn1130  1.979   .     S
O1128  Zn1129  1.979   .     S
C1133  H1134   1.083   .     S
C1133  O1135   1.222   .     D
C1136  H1137   1.083   .     S
C1136  O1138   1.222   .     D
C1139  O1141   1.216   .     D
C1139  H1140   1.085   .     S
C1142  O1144   1.216   .     D
C1142  H1143   1.085   .     S
C1145  H1146   1.071   .     S
C1145  O1147   1.222   .     D
C1148  O1150   1.222   .     D
C1148  H1149   1.071   .     S
C1151  O1171   1.295   .     A
C1151  C1162   1.448   .     S
C1151  O1173   1.300   .     A
C1152  O1172   1.295   .     A
C1152  C1161   1.448   .     S
C1152  O1174   1.300   .     A
C1153  O1177   1.288   .     A
C1153  O1175   1.283   .     A
C1153  C1155   1.402   .     S
C1154  O1176   1.283   .     A
C1154  C1156   1.402   .     S
C1154  O1178   1.288   .     A
C1156  C1055   1.331   1_655 S
C1156  H1068   1.087   1_655 S
C1157  C1162   1.406   .     A
C1157  I1181   2.158   .     S
C1158  C1161   1.406   .     A
C1158  I1182   2.157   .     S
C1158  C1310   1.385   .     S
C1159  C1183   1.489   .     S
C1159  C1161   1.414   .     A
C1159  C1307   1.385   .     S
C1160  C1162   1.414   .     A
C1160  C1186   1.489   .     S
C1163  C1189   1.479   .     S
C1163  N1170   1.376   .     A
C1164  C1192   1.479   .     S
C1164  N1169   1.375   .     A
C1164  C266    1.428   1_556 S
C1165  C1195   1.487   .     S
C1165  N1169   1.375   .     A
C1165  C263    1.428   1_556 S
C1166  N1170   1.375   .     A
C1166  C1198   1.487   .     S
H1167  C1055   1.087   1_655 S
N1169  Zn1179  2.027   .     S
N1170  Zn1180  2.027   .     S
O1171  Zn1179  1.996   .     S
O1172  Zn1180  1.996   .     S
O1173  Zn1180  1.977   .     S
O1174  Zn1179  1.977   .     S
O1175  Zn1179  1.968   .     S
O1176  Zn1180  1.968   .     S
O1177  Zn1180  1.979   .     S
O1178  Zn1179  1.979   .     S
C1183  H1184   1.083   .     S
C1183  O1185   1.222   .     D
C1186  H1187   1.083   .     S
C1186  O1188   1.222   .     D
C1189  O1191   1.216   .     D
C1189  H1190   1.085   .     S
C1192  O1194   1.216   .     D
C1192  H1193   1.085   .     S
C1195  H1196   1.071   .     S
C1195  O1197   1.222   .     D
C1198  O1200   1.222   .     D
C1198  H1199   1.071   .     S
C1201  O1221   1.295   .     A
C1201  C1212   1.448   .     S
C1201  O1223   1.300   .     A
C1202  O1222   1.295   .     A
C1202  C1211   1.448   .     S
C1202  O1224   1.300   .     A
C1203  O1227   1.288   .     A
C1203  O1225   1.283   .     A
C1203  C1205   1.402   .     S
C1204  O1226   1.283   .     A
C1204  C1206   1.402   .     S
C1204  O1228   1.288   .     A
C1205  C1306   1.331   1_455 S
C1205  H1317   1.087   1_455 S
C1206  C1255   1.331   .     S
C1206  H1268   1.087   .     S
C1207  C1212   1.406   .     A
C1207  I1231   2.158   .     S
C1208  C1211   1.406   .     A
C1208  I1232   2.157   .     S
C1208  C910    1.385   1_565 S
C1209  C1233   1.489   .     S
C1209  C1211   1.414   .     A
C1209  C907    1.385   1_565 S
C1210  C1212   1.414   .     A
C1210  C1236   1.489   .     S
C1213  C1239   1.479   .     S
C1213  N1220   1.376   .     A
C1214  C1242   1.479   .     S
C1214  N1219   1.375   .     A
C1214  C316    1.428   1_556 S
C1215  C1245   1.487   .     S
C1215  N1219   1.375   .     A
C1215  C313    1.428   1_556 S
C1216  N1220   1.375   .     A
C1216  C1248   1.487   .     S
H1217  C1255   1.087   .     S
H1218  C1306   1.087   1_455 S
N1219  Zn1229  2.027   .     S
N1220  Zn1230  2.027   .     S
O1221  Zn1229  1.996   .     S
O1222  Zn1230  1.996   .     S
O1223  Zn1230  1.977   .     S
O1224  Zn1229  1.977   .     S
O1225  Zn1229  1.968   .     S
O1226  Zn1230  1.968   .     S
O1227  Zn1230  1.979   .     S
O1228  Zn1229  1.979   .     S
C1233  H1234   1.083   .     S
C1233  O1235   1.222   .     D
C1236  H1237   1.083   .     S
C1236  O1238   1.222   .     D
C1239  O1241   1.216   .     D
C1239  H1240   1.085   .     S
C1242  O1244   1.216   .     D
C1242  H1243   1.085   .     S
C1245  H1246   1.071   .     S
C1245  O1247   1.222   .     D
C1248  O1250   1.222   .     D
C1248  H1249   1.071   .     S
C1251  O1271   1.295   .     A
C1251  C1262   1.448   .     S
C1251  O1273   1.300   .     A
C1252  O1272   1.295   .     A
C1252  C1261   1.448   .     S
C1252  O1274   1.300   .     A
C1253  O1277   1.288   .     A
C1253  O1275   1.283   .     A
C1253  C1255   1.402   .     S
C1254  O1276   1.283   .     A
C1254  C1256   1.402   .     S
C1254  O1278   1.288   .     A
C1256  C1305   1.331   .     S
C1256  H1318   1.087   .     S
C1257  C1262   1.406   .     A
C1257  I1281   2.158   .     S
C1258  C1261   1.406   .     A
C1258  I1282   2.157   .     S
C1258  C960    1.385   1_565 S
C1259  C1283   1.489   .     S
C1259  C1261   1.414   .     A
C1259  C957    1.385   1_565 S
C1260  C1262   1.414   .     A
C1260  C1286   1.489   .     S
C1263  C1289   1.479   .     S
C1263  N1270   1.376   .     A
C1264  C1292   1.479   .     S
C1264  N1269   1.375   .     A
C1264  C366    1.428   1_556 S
C1265  C1295   1.487   .     S
C1265  N1269   1.375   .     A
C1265  C363    1.428   1_556 S
C1266  N1270   1.375   .     A
C1266  C1298   1.487   .     S
H1267  C1305   1.087   .     S
N1269  Zn1279  2.027   .     S
N1270  Zn1280  2.027   .     S
O1271  Zn1279  1.996   .     S
O1272  Zn1280  1.996   .     S
O1273  Zn1280  1.977   .     S
O1274  Zn1279  1.977   .     S
O1275  Zn1279  1.968   .     S
O1276  Zn1280  1.968   .     S
O1277  Zn1280  1.979   .     S
O1278  Zn1279  1.979   .     S
C1283  H1284   1.083   .     S
C1283  O1285   1.222   .     D
C1286  H1287   1.083   .     S
C1286  O1288   1.222   .     D
C1289  O1291   1.216   .     D
C1289  H1290   1.085   .     S
C1292  O1294   1.216   .     D
C1292  H1293   1.085   .     S
C1295  H1296   1.071   .     S
C1295  O1297   1.222   .     D
C1298  O1300   1.222   .     D
C1298  H1299   1.071   .     S
C1301  O1321   1.295   .     A
C1301  C1312   1.448   .     S
C1301  O1323   1.300   .     A
C1302  O1322   1.295   .     A
C1302  C1311   1.448   .     S
C1302  O1324   1.300   .     A
C1303  O1327   1.288   .     A
C1303  O1325   1.283   .     A
C1303  C1305   1.402   .     S
C1304  O1326   1.283   .     A
C1304  C1306   1.402   .     S
C1304  O1328   1.288   .     A
C1306  C1205   1.331   1_655 S
C1306  H1218   1.087   1_655 S
C1307  C1312   1.406   .     A
C1307  I1331   2.158   .     S
C1308  C1311   1.406   .     A
C1308  I1332   2.157   .     S
C1308  C1010   1.385   1_565 S
C1309  C1333   1.489   .     S
C1309  C1311   1.414   .     A
C1309  C1007   1.385   1_565 S
C1310  C1312   1.414   .     A
C1310  C1336   1.489   .     S
C1313  C1339   1.479   .     S
C1313  N1320   1.376   .     A
C1314  C1342   1.479   .     S
C1314  N1319   1.375   .     A
C1314  C416    1.428   1_556 S
C1315  C1345   1.487   .     S
C1315  N1319   1.375   .     A
C1315  C413    1.428   1_556 S
C1316  N1320   1.375   .     A
C1316  C1348   1.487   .     S
H1317  C1205   1.087   1_655 S
N1319  Zn1329  2.027   .     S
N1320  Zn1330  2.027   .     S
O1321  Zn1329  1.996   .     S
O1322  Zn1330  1.996   .     S
O1323  Zn1330  1.977   .     S
O1324  Zn1329  1.977   .     S
O1325  Zn1329  1.968   .     S
O1326  Zn1330  1.968   .     S
O1327  Zn1330  1.979   .     S
O1328  Zn1329  1.979   .     S
C1333  H1334   1.083   .     S
C1333  O1335   1.222   .     D
C1336  H1337   1.083   .     S
C1336  O1338   1.222   .     D
C1339  O1341   1.216   .     D
C1339  H1340   1.085   .     S
C1342  O1344   1.216   .     D
C1342  H1343   1.085   .     S
C1345  H1346   1.071   .     S
C1345  O1347   1.222   .     D
C1348  O1350   1.222   .     D
C1348  H1349   1.071   .     S
