data_str_m3_o10_o17_pcu_sym.104
_audit_creation_date              2020-01-03
_audit_creation_method            'Materials Studio'
_symmetry_space_group_name_H-M    'P1'
_symmetry_Int_Tables_number       1
_symmetry_cell_setting            triclinic
loop_
_symmetry_equiv_pos_as_xyz
  x,y,z
_cell_length_a                    23.6724
_cell_length_b                    25.7898
_cell_length_c                    29.8333
_cell_angle_alpha                 93.5280
_cell_angle_beta                  84.8008
_cell_angle_gamma                 93.1914
loop_
_atom_site_label
_atom_site_type_symbol
_atom_site_fract_x
_atom_site_fract_y
_atom_site_fract_z
_atom_site_U_iso_or_equiv
_atom_site_adp_type
_atom_site_occupancy
C1     C     0.18149   0.26457   0.24899   0.00000  Uiso   1.00
C2     C     0.18851   0.21354   0.40750   0.00000  Uiso   1.00
C3     C     0.16610   0.16429   0.11610   0.00000  Uiso   1.00
C4     C     0.16723   0.16905   0.38390   0.00000  Uiso   1.00
C5     C     0.18604   0.20898   0.09504   0.00000  Uiso   1.00
C6     C     0.14729   0.12435   0.40496   0.00000  Uiso   1.00
C7     C     0.18497   0.21081   0.04882   0.00000  Uiso   1.00
C8     C     0.14837   0.12253   0.45118   0.00000  Uiso   1.00
C9     C     0.16621   0.16593   0.02351   0.00000  Uiso   1.00
C10    C     0.16712   0.16740   0.47649   0.00000  Uiso   1.00
C11    C     0.14692   0.11961   0.04514   0.00000  Uiso   1.00
C12    C     0.15184   0.06876   0.25101   0.00000  Uiso   1.00
C13    C     0.18642   0.21373   0.45486   0.00000  Uiso   1.00
C14    C     0.20178   0.25682   0.02763   0.00000  Uiso   1.00
C15    C     0.13156   0.07651   0.47237   0.00000  Uiso   1.00
C16    C     0.12007   0.07532   0.11855   0.00000  Uiso   1.00
C17    C     0.21326   0.25801   0.38145   0.00000  Uiso   1.00
C18    C     0.00527   0.11432   0.20587   0.00000  Uiso   1.00
C19    C     0.32806   0.21902   0.29413   0.00000  Uiso   1.00
C20    C     0.20139   0.25871   0.48146   0.00000  Uiso   1.00
C21    C     0.13194   0.07462   0.01854   0.00000  Uiso   1.00
C22    C     0.18933   0.31881   0.25025   0.00000  Uiso   1.00
C23    C     0.14400   0.01452   0.24975   0.00000  Uiso   1.00
C24    C     0.16692   0.16762   0.33617   0.00000  Uiso   1.00
C25    C     0.16642   0.16571   0.16383   0.00000  Uiso   1.00
C26    C     0.14482   0.11980   0.09250   0.00000  Uiso   1.00
F27    F     0.20510   0.25098   0.12040   0.00000  Uiso   1.00
F28    F     0.12823   0.08235   0.37960   0.00000  Uiso   1.00
F29    F     0.21779   0.30091   0.05156   0.00000  Uiso   1.00
F30    F     0.11554   0.03242   0.44844   0.00000  Uiso   1.00
F31    F     0.21355   0.30572   0.46387   0.00000  Uiso   1.00
F32    F     0.11978   0.02761   0.03613   0.00000  Uiso   1.00
F33    F     0.24352   0.00550   0.25349   0.00000  Uiso   1.00
F34    F     0.08982   0.32784   0.24651   0.00000  Uiso   1.00
H35    H     0.14290   0.06109   0.14488   0.00000  Uiso   1.00
H36    H     0.19044   0.27224   0.35512   0.00000  Uiso   1.00
H37    H     0.04924   0.10714   0.20007   0.00000  Uiso   1.00
H38    H     0.28409   0.22619   0.29993   0.00000  Uiso   1.00
N39    N     0.31678   0.15265   0.23783   0.00000  Uiso   1.00
N40    N     0.01656   0.18068   0.26217   0.00000  Uiso   1.00
O41    O     0.12975   0.24619   0.25298   0.00000  Uiso   1.00
O42    O     0.26082   0.27659   0.38715   0.00000  Uiso   1.00
O43    O     0.30594   0.08788   0.18351   0.00000  Uiso   1.00
O44    O     0.02740   0.24545   0.31649   0.00000  Uiso   1.00
O45    O     0.20358   0.08714   0.24701   0.00000  Uiso   1.00
O46    O     0.22613   0.23721   0.24518   0.00000  Uiso   1.00
O47    O     0.10720   0.09613   0.25481   0.00000  Uiso   1.00
O48    O     0.11847   0.17117   0.31997   0.00000  Uiso   1.00
O49    O     0.21486   0.16216   0.18002   0.00000  Uiso   1.00
O50    O     0.21485   0.16219   0.31217   0.00000  Uiso   1.00
O51    O     0.11848   0.17115   0.18782   0.00000  Uiso   1.00
O52    O     0.07251   0.05674   0.11285   0.00000  Uiso   1.00
Zn53   Zn    0.10231   0.17266   0.25521   0.00000  Uiso   1.00
Zn54   Zn    0.23102   0.16067   0.24479   0.00000  Uiso   1.00
C55    C     0.51483   0.26457   0.24899   0.00000  Uiso   1.00
C56    C     0.52185   0.21354   0.40750   0.00000  Uiso   1.00
C57    C     0.49943   0.16429   0.11610   0.00000  Uiso   1.00
C58    C     0.50057   0.16905   0.38390   0.00000  Uiso   1.00
C59    C     0.51938   0.20898   0.09504   0.00000  Uiso   1.00
C60    C     0.48062   0.12435   0.40496   0.00000  Uiso   1.00
C61    C     0.51830   0.21081   0.04882   0.00000  Uiso   1.00
C62    C     0.48170   0.12253   0.45118   0.00000  Uiso   1.00
C63    C     0.49954   0.16593   0.02351   0.00000  Uiso   1.00
C64    C     0.50046   0.16740   0.47649   0.00000  Uiso   1.00
C65    C     0.48025   0.11961   0.04514   0.00000  Uiso   1.00
C66    C     0.48517   0.06876   0.25101   0.00000  Uiso   1.00
C67    C     0.51975   0.21373   0.45486   0.00000  Uiso   1.00
C68    C     0.53511   0.25682   0.02763   0.00000  Uiso   1.00
C69    C     0.46489   0.07651   0.47237   0.00000  Uiso   1.00
C70    C     0.45340   0.07532   0.11855   0.00000  Uiso   1.00
C71    C     0.54660   0.25801   0.38145   0.00000  Uiso   1.00
C72    C     0.33861   0.11432   0.20587   0.00000  Uiso   1.00
C73    C     0.66139   0.21902   0.29413   0.00000  Uiso   1.00
C74    C     0.53473   0.25871   0.48146   0.00000  Uiso   1.00
C75    C     0.46527   0.07462   0.01854   0.00000  Uiso   1.00
C76    C     0.52267   0.31881   0.25025   0.00000  Uiso   1.00
C77    C     0.47733   0.01452   0.24975   0.00000  Uiso   1.00
C78    C     0.50025   0.16762   0.33617   0.00000  Uiso   1.00
C79    C     0.49975   0.16571   0.16383   0.00000  Uiso   1.00
C80    C     0.47815   0.11980   0.09250   0.00000  Uiso   1.00
F81    F     0.53843   0.25098   0.12040   0.00000  Uiso   1.00
F82    F     0.46157   0.08235   0.37960   0.00000  Uiso   1.00
F83    F     0.55112   0.30091   0.05156   0.00000  Uiso   1.00
F84    F     0.44888   0.03242   0.44844   0.00000  Uiso   1.00
F85    F     0.54688   0.30572   0.46387   0.00000  Uiso   1.00
F86    F     0.45312   0.02761   0.03613   0.00000  Uiso   1.00
F87    F     0.57685   0.00550   0.25349   0.00000  Uiso   1.00
F88    F     0.42315   0.32784   0.24651   0.00000  Uiso   1.00
H89    H     0.47623   0.06109   0.14488   0.00000  Uiso   1.00
H90    H     0.52377   0.27224   0.35512   0.00000  Uiso   1.00
H91    H     0.38257   0.10714   0.20007   0.00000  Uiso   1.00
H92    H     0.61743   0.22619   0.29993   0.00000  Uiso   1.00
N93    N     0.65011   0.15265   0.23783   0.00000  Uiso   1.00
N94    N     0.34989   0.18068   0.26217   0.00000  Uiso   1.00
O95    O     0.46308   0.24619   0.25298   0.00000  Uiso   1.00
O96    O     0.59416   0.27659   0.38715   0.00000  Uiso   1.00
O97    O     0.63927   0.08788   0.18351   0.00000  Uiso   1.00
O98    O     0.36073   0.24545   0.31649   0.00000  Uiso   1.00
O99    O     0.53692   0.08714   0.24701   0.00000  Uiso   1.00
O100   O     0.55946   0.23721   0.24518   0.00000  Uiso   1.00
O101   O     0.44054   0.09613   0.25481   0.00000  Uiso   1.00
O102   O     0.45181   0.17117   0.31997   0.00000  Uiso   1.00
O103   O     0.54819   0.16216   0.18002   0.00000  Uiso   1.00
O104   O     0.54819   0.16219   0.31217   0.00000  Uiso   1.00
O105   O     0.45181   0.17115   0.18782   0.00000  Uiso   1.00
O106   O     0.40584   0.05674   0.11285   0.00000  Uiso   1.00
Zn107  Zn    0.43565   0.17266   0.25521   0.00000  Uiso   1.00
Zn108  Zn    0.56435   0.16067   0.24479   0.00000  Uiso   1.00
C109   C     0.84816   0.26457   0.24899   0.00000  Uiso   1.00
C110   C     0.85518   0.21354   0.40750   0.00000  Uiso   1.00
C111   C     0.83277   0.16429   0.11610   0.00000  Uiso   1.00
C112   C     0.83390   0.16905   0.38390   0.00000  Uiso   1.00
C113   C     0.85271   0.20898   0.09504   0.00000  Uiso   1.00
C114   C     0.81396   0.12435   0.40496   0.00000  Uiso   1.00
C115   C     0.85163   0.21081   0.04882   0.00000  Uiso   1.00
C116   C     0.81503   0.12253   0.45118   0.00000  Uiso   1.00
C117   C     0.83288   0.16593   0.02351   0.00000  Uiso   1.00
C118   C     0.83379   0.16740   0.47649   0.00000  Uiso   1.00
C119   C     0.81358   0.11961   0.04514   0.00000  Uiso   1.00
C120   C     0.81851   0.06876   0.25101   0.00000  Uiso   1.00
C121   C     0.85308   0.21373   0.45486   0.00000  Uiso   1.00
C122   C     0.86844   0.25682   0.02763   0.00000  Uiso   1.00
C123   C     0.79822   0.07651   0.47237   0.00000  Uiso   1.00
C124   C     0.78674   0.07532   0.11855   0.00000  Uiso   1.00
C125   C     0.87993   0.25801   0.38145   0.00000  Uiso   1.00
C126   C     0.67194   0.11432   0.20587   0.00000  Uiso   1.00
C127   C     0.99473   0.21902   0.29413   0.00000  Uiso   1.00
C128   C     0.86806   0.25871   0.48146   0.00000  Uiso   1.00
C129   C     0.79861   0.07462   0.01854   0.00000  Uiso   1.00
C130   C     0.85600   0.31881   0.25025   0.00000  Uiso   1.00
C131   C     0.81067   0.01452   0.24975   0.00000  Uiso   1.00
C132   C     0.83358   0.16762   0.33617   0.00000  Uiso   1.00
C133   C     0.83308   0.16571   0.16383   0.00000  Uiso   1.00
C134   C     0.81149   0.11980   0.09250   0.00000  Uiso   1.00
F135   F     0.87177   0.25098   0.12040   0.00000  Uiso   1.00
F136   F     0.79490   0.08235   0.37960   0.00000  Uiso   1.00
F137   F     0.88446   0.30091   0.05156   0.00000  Uiso   1.00
F138   F     0.78221   0.03242   0.44844   0.00000  Uiso   1.00
F139   F     0.88022   0.30572   0.46387   0.00000  Uiso   1.00
F140   F     0.78645   0.02761   0.03613   0.00000  Uiso   1.00
F141   F     0.91018   0.00550   0.25349   0.00000  Uiso   1.00
F142   F     0.75648   0.32784   0.24651   0.00000  Uiso   1.00
H143   H     0.80956   0.06109   0.14488   0.00000  Uiso   1.00
H144   H     0.85710   0.27224   0.35512   0.00000  Uiso   1.00
H145   H     0.71591   0.10714   0.20007   0.00000  Uiso   1.00
H146   H     0.95076   0.22619   0.29993   0.00000  Uiso   1.00
N147   N     0.98344   0.15265   0.23783   0.00000  Uiso   1.00
N148   N     0.68322   0.18068   0.26217   0.00000  Uiso   1.00
O149   O     0.79642   0.24619   0.25298   0.00000  Uiso   1.00
O150   O     0.92749   0.27659   0.38715   0.00000  Uiso   1.00
O151   O     0.97260   0.08788   0.18351   0.00000  Uiso   1.00
O152   O     0.69406   0.24545   0.31649   0.00000  Uiso   1.00
O153   O     0.87025   0.08714   0.24701   0.00000  Uiso   1.00
O154   O     0.89280   0.23721   0.24518   0.00000  Uiso   1.00
O155   O     0.77387   0.09613   0.25481   0.00000  Uiso   1.00
O156   O     0.78514   0.17117   0.31997   0.00000  Uiso   1.00
O157   O     0.88153   0.16216   0.18002   0.00000  Uiso   1.00
O158   O     0.88152   0.16219   0.31217   0.00000  Uiso   1.00
O159   O     0.78515   0.17115   0.18782   0.00000  Uiso   1.00
O160   O     0.73918   0.05674   0.11285   0.00000  Uiso   1.00
Zn161  Zn    0.76898   0.17266   0.25521   0.00000  Uiso   1.00
Zn162  Zn    0.89769   0.16067   0.24479   0.00000  Uiso   1.00
C163   C     0.18149   0.59790   0.24899   0.00000  Uiso   1.00
C164   C     0.18851   0.54687   0.40750   0.00000  Uiso   1.00
C165   C     0.16610   0.49762   0.11610   0.00000  Uiso   1.00
C166   C     0.16723   0.50238   0.38390   0.00000  Uiso   1.00
C167   C     0.18604   0.54231   0.09504   0.00000  Uiso   1.00
C168   C     0.14729   0.45769   0.40496   0.00000  Uiso   1.00
C169   C     0.18497   0.54414   0.04882   0.00000  Uiso   1.00
C170   C     0.14837   0.45586   0.45118   0.00000  Uiso   1.00
C171   C     0.16621   0.49927   0.02351   0.00000  Uiso   1.00
C172   C     0.16712   0.50073   0.47649   0.00000  Uiso   1.00
C173   C     0.14692   0.45294   0.04514   0.00000  Uiso   1.00
C174   C     0.15184   0.40209   0.25101   0.00000  Uiso   1.00
C175   C     0.18642   0.54706   0.45486   0.00000  Uiso   1.00
C176   C     0.20178   0.59016   0.02763   0.00000  Uiso   1.00
C177   C     0.13156   0.40984   0.47237   0.00000  Uiso   1.00
C178   C     0.12007   0.40866   0.11855   0.00000  Uiso   1.00
C179   C     0.21326   0.59134   0.38145   0.00000  Uiso   1.00
C180   C     0.00527   0.44765   0.20587   0.00000  Uiso   1.00
C181   C     0.32806   0.55235   0.29413   0.00000  Uiso   1.00
C182   C     0.20139   0.59205   0.48146   0.00000  Uiso   1.00
C183   C     0.13194   0.40795   0.01854   0.00000  Uiso   1.00
C184   C     0.18933   0.65215   0.25025   0.00000  Uiso   1.00
C185   C     0.14400   0.34785   0.24975   0.00000  Uiso   1.00
C186   C     0.16692   0.50095   0.33617   0.00000  Uiso   1.00
C187   C     0.16642   0.49905   0.16383   0.00000  Uiso   1.00
C188   C     0.14482   0.45313   0.09250   0.00000  Uiso   1.00
F189   F     0.20510   0.58431   0.12040   0.00000  Uiso   1.00
F190   F     0.12823   0.41569   0.37960   0.00000  Uiso   1.00
F191   F     0.21779   0.63425   0.05156   0.00000  Uiso   1.00
F192   F     0.11554   0.36575   0.44844   0.00000  Uiso   1.00
F193   F     0.21355   0.63905   0.46387   0.00000  Uiso   1.00
F194   F     0.11978   0.36095   0.03613   0.00000  Uiso   1.00
F195   F     0.24352   0.33883   0.25349   0.00000  Uiso   1.00
F196   F     0.08982   0.66117   0.24651   0.00000  Uiso   1.00
H197   H     0.14290   0.39442   0.14488   0.00000  Uiso   1.00
H198   H     0.19044   0.60558   0.35512   0.00000  Uiso   1.00
H199   H     0.04924   0.44048   0.20007   0.00000  Uiso   1.00
H200   H     0.28409   0.55952   0.29993   0.00000  Uiso   1.00
N201   N     0.31678   0.48598   0.23783   0.00000  Uiso   1.00
N202   N     0.01656   0.51402   0.26217   0.00000  Uiso   1.00
O203   O     0.12975   0.57952   0.25298   0.00000  Uiso   1.00
O204   O     0.26082   0.60992   0.38715   0.00000  Uiso   1.00
O205   O     0.30594   0.42122   0.18351   0.00000  Uiso   1.00
O206   O     0.02740   0.57878   0.31649   0.00000  Uiso   1.00
O207   O     0.20358   0.42048   0.24701   0.00000  Uiso   1.00
O208   O     0.22613   0.57054   0.24518   0.00000  Uiso   1.00
O209   O     0.10720   0.42946   0.25481   0.00000  Uiso   1.00
O210   O     0.11847   0.50450   0.31997   0.00000  Uiso   1.00
O211   O     0.21486   0.49550   0.18002   0.00000  Uiso   1.00
O212   O     0.21485   0.49552   0.31217   0.00000  Uiso   1.00
O213   O     0.11848   0.50448   0.18782   0.00000  Uiso   1.00
O214   O     0.07251   0.39008   0.11285   0.00000  Uiso   1.00
Zn215  Zn    0.10231   0.50600   0.25521   0.00000  Uiso   1.00
Zn216  Zn    0.23102   0.49400   0.24479   0.00000  Uiso   1.00
C217   C     0.51483   0.59790   0.24899   0.00000  Uiso   1.00
C218   C     0.52185   0.54687   0.40750   0.00000  Uiso   1.00
C219   C     0.49943   0.49762   0.11610   0.00000  Uiso   1.00
C220   C     0.50057   0.50238   0.38390   0.00000  Uiso   1.00
C221   C     0.51938   0.54231   0.09504   0.00000  Uiso   1.00
C222   C     0.48062   0.45769   0.40496   0.00000  Uiso   1.00
C223   C     0.51830   0.54414   0.04882   0.00000  Uiso   1.00
C224   C     0.48170   0.45586   0.45118   0.00000  Uiso   1.00
C225   C     0.49954   0.49927   0.02351   0.00000  Uiso   1.00
C226   C     0.50046   0.50073   0.47649   0.00000  Uiso   1.00
C227   C     0.48025   0.45294   0.04514   0.00000  Uiso   1.00
C228   C     0.48517   0.40209   0.25101   0.00000  Uiso   1.00
C229   C     0.51975   0.54706   0.45486   0.00000  Uiso   1.00
C230   C     0.53511   0.59016   0.02763   0.00000  Uiso   1.00
C231   C     0.46489   0.40984   0.47237   0.00000  Uiso   1.00
C232   C     0.45340   0.40866   0.11855   0.00000  Uiso   1.00
C233   C     0.54660   0.59134   0.38145   0.00000  Uiso   1.00
C234   C     0.33861   0.44765   0.20587   0.00000  Uiso   1.00
C235   C     0.66139   0.55235   0.29413   0.00000  Uiso   1.00
C236   C     0.53473   0.59205   0.48146   0.00000  Uiso   1.00
C237   C     0.46527   0.40795   0.01854   0.00000  Uiso   1.00
C238   C     0.52267   0.65215   0.25025   0.00000  Uiso   1.00
C239   C     0.47733   0.34785   0.24975   0.00000  Uiso   1.00
C240   C     0.50025   0.50095   0.33617   0.00000  Uiso   1.00
C241   C     0.49975   0.49905   0.16383   0.00000  Uiso   1.00
C242   C     0.47815   0.45313   0.09250   0.00000  Uiso   1.00
F243   F     0.53843   0.58431   0.12040   0.00000  Uiso   1.00
F244   F     0.46157   0.41569   0.37960   0.00000  Uiso   1.00
F245   F     0.55112   0.63425   0.05156   0.00000  Uiso   1.00
F246   F     0.44888   0.36575   0.44844   0.00000  Uiso   1.00
F247   F     0.54688   0.63905   0.46387   0.00000  Uiso   1.00
F248   F     0.45312   0.36095   0.03613   0.00000  Uiso   1.00
F249   F     0.57685   0.33883   0.25349   0.00000  Uiso   1.00
F250   F     0.42315   0.66117   0.24651   0.00000  Uiso   1.00
H251   H     0.47623   0.39442   0.14488   0.00000  Uiso   1.00
H252   H     0.52377   0.60558   0.35512   0.00000  Uiso   1.00
H253   H     0.38257   0.44048   0.20007   0.00000  Uiso   1.00
H254   H     0.61743   0.55952   0.29993   0.00000  Uiso   1.00
N255   N     0.65011   0.48598   0.23783   0.00000  Uiso   1.00
N256   N     0.34989   0.51402   0.26217   0.00000  Uiso   1.00
O257   O     0.46308   0.57952   0.25298   0.00000  Uiso   1.00
O258   O     0.59416   0.60992   0.38715   0.00000  Uiso   1.00
O259   O     0.63927   0.42122   0.18351   0.00000  Uiso   1.00
O260   O     0.36073   0.57878   0.31649   0.00000  Uiso   1.00
O261   O     0.53692   0.42048   0.24701   0.00000  Uiso   1.00
O262   O     0.55946   0.57054   0.24518   0.00000  Uiso   1.00
O263   O     0.44054   0.42946   0.25481   0.00000  Uiso   1.00
O264   O     0.45181   0.50450   0.31997   0.00000  Uiso   1.00
O265   O     0.54819   0.49550   0.18002   0.00000  Uiso   1.00
O266   O     0.54819   0.49552   0.31217   0.00000  Uiso   1.00
O267   O     0.45181   0.50448   0.18782   0.00000  Uiso   1.00
O268   O     0.40584   0.39008   0.11285   0.00000  Uiso   1.00
Zn269  Zn    0.43565   0.50600   0.25521   0.00000  Uiso   1.00
Zn270  Zn    0.56435   0.49400   0.24479   0.00000  Uiso   1.00
C271   C     0.84816   0.59790   0.24899   0.00000  Uiso   1.00
C272   C     0.85518   0.54687   0.40750   0.00000  Uiso   1.00
C273   C     0.83277   0.49762   0.11610   0.00000  Uiso   1.00
C274   C     0.83390   0.50238   0.38390   0.00000  Uiso   1.00
C275   C     0.85271   0.54231   0.09504   0.00000  Uiso   1.00
C276   C     0.81396   0.45769   0.40496   0.00000  Uiso   1.00
C277   C     0.85163   0.54414   0.04882   0.00000  Uiso   1.00
C278   C     0.81503   0.45586   0.45118   0.00000  Uiso   1.00
C279   C     0.83288   0.49927   0.02351   0.00000  Uiso   1.00
C280   C     0.83379   0.50073   0.47649   0.00000  Uiso   1.00
C281   C     0.81358   0.45294   0.04514   0.00000  Uiso   1.00
C282   C     0.81851   0.40209   0.25101   0.00000  Uiso   1.00
C283   C     0.85308   0.54706   0.45486   0.00000  Uiso   1.00
C284   C     0.86844   0.59016   0.02763   0.00000  Uiso   1.00
C285   C     0.79822   0.40984   0.47237   0.00000  Uiso   1.00
C286   C     0.78674   0.40866   0.11855   0.00000  Uiso   1.00
C287   C     0.87993   0.59134   0.38145   0.00000  Uiso   1.00
C288   C     0.67194   0.44765   0.20587   0.00000  Uiso   1.00
C289   C     0.99473   0.55235   0.29413   0.00000  Uiso   1.00
C290   C     0.86806   0.59205   0.48146   0.00000  Uiso   1.00
C291   C     0.79861   0.40795   0.01854   0.00000  Uiso   1.00
C292   C     0.85600   0.65215   0.25025   0.00000  Uiso   1.00
C293   C     0.81067   0.34785   0.24975   0.00000  Uiso   1.00
C294   C     0.83358   0.50095   0.33617   0.00000  Uiso   1.00
C295   C     0.83308   0.49905   0.16383   0.00000  Uiso   1.00
C296   C     0.81149   0.45313   0.09250   0.00000  Uiso   1.00
F297   F     0.87177   0.58431   0.12040   0.00000  Uiso   1.00
F298   F     0.79490   0.41569   0.37960   0.00000  Uiso   1.00
F299   F     0.88446   0.63425   0.05156   0.00000  Uiso   1.00
F300   F     0.78221   0.36575   0.44844   0.00000  Uiso   1.00
F301   F     0.88022   0.63905   0.46387   0.00000  Uiso   1.00
F302   F     0.78645   0.36095   0.03613   0.00000  Uiso   1.00
F303   F     0.91018   0.33883   0.25349   0.00000  Uiso   1.00
F304   F     0.75648   0.66117   0.24651   0.00000  Uiso   1.00
H305   H     0.80956   0.39442   0.14488   0.00000  Uiso   1.00
H306   H     0.85710   0.60558   0.35512   0.00000  Uiso   1.00
H307   H     0.71591   0.44048   0.20007   0.00000  Uiso   1.00
H308   H     0.95076   0.55952   0.29993   0.00000  Uiso   1.00
N309   N     0.98344   0.48598   0.23783   0.00000  Uiso   1.00
N310   N     0.68322   0.51402   0.26217   0.00000  Uiso   1.00
O311   O     0.79642   0.57952   0.25298   0.00000  Uiso   1.00
O312   O     0.92749   0.60992   0.38715   0.00000  Uiso   1.00
O313   O     0.97260   0.42122   0.18351   0.00000  Uiso   1.00
O314   O     0.69406   0.57878   0.31649   0.00000  Uiso   1.00
O315   O     0.87025   0.42048   0.24701   0.00000  Uiso   1.00
O316   O     0.89280   0.57054   0.24518   0.00000  Uiso   1.00
O317   O     0.77387   0.42946   0.25481   0.00000  Uiso   1.00
O318   O     0.78514   0.50450   0.31997   0.00000  Uiso   1.00
O319   O     0.88153   0.49550   0.18002   0.00000  Uiso   1.00
O320   O     0.88152   0.49552   0.31217   0.00000  Uiso   1.00
O321   O     0.78515   0.50448   0.18782   0.00000  Uiso   1.00
O322   O     0.73918   0.39008   0.11285   0.00000  Uiso   1.00
Zn323  Zn    0.76898   0.50600   0.25521   0.00000  Uiso   1.00
Zn324  Zn    0.89769   0.49400   0.24479   0.00000  Uiso   1.00
C325   C     0.18149   0.93124   0.24899   0.00000  Uiso   1.00
C326   C     0.18851   0.88020   0.40750   0.00000  Uiso   1.00
C327   C     0.16610   0.83095   0.11610   0.00000  Uiso   1.00
C328   C     0.16723   0.83571   0.38390   0.00000  Uiso   1.00
C329   C     0.18604   0.87564   0.09504   0.00000  Uiso   1.00
C330   C     0.14729   0.79102   0.40496   0.00000  Uiso   1.00
C331   C     0.18497   0.87747   0.04882   0.00000  Uiso   1.00
C332   C     0.14837   0.78919   0.45118   0.00000  Uiso   1.00
C333   C     0.16621   0.83260   0.02351   0.00000  Uiso   1.00
C334   C     0.16712   0.83406   0.47649   0.00000  Uiso   1.00
C335   C     0.14692   0.78627   0.04514   0.00000  Uiso   1.00
C336   C     0.15184   0.73543   0.25101   0.00000  Uiso   1.00
C337   C     0.18642   0.88039   0.45486   0.00000  Uiso   1.00
C338   C     0.20178   0.92349   0.02763   0.00000  Uiso   1.00
C339   C     0.13156   0.74318   0.47237   0.00000  Uiso   1.00
C340   C     0.12007   0.74199   0.11855   0.00000  Uiso   1.00
C341   C     0.21326   0.92467   0.38145   0.00000  Uiso   1.00
C342   C     0.00527   0.78098   0.20587   0.00000  Uiso   1.00
C343   C     0.32806   0.88568   0.29413   0.00000  Uiso   1.00
C344   C     0.20139   0.92538   0.48146   0.00000  Uiso   1.00
C345   C     0.13194   0.74129   0.01854   0.00000  Uiso   1.00
C346   C     0.18933   0.98548   0.25025   0.00000  Uiso   1.00
C347   C     0.14400   0.68119   0.24975   0.00000  Uiso   1.00
C348   C     0.16692   0.83429   0.33617   0.00000  Uiso   1.00
C349   C     0.16642   0.83238   0.16383   0.00000  Uiso   1.00
C350   C     0.14482   0.78646   0.09250   0.00000  Uiso   1.00
F351   F     0.20510   0.91765   0.12040   0.00000  Uiso   1.00
F352   F     0.12823   0.74902   0.37960   0.00000  Uiso   1.00
F353   F     0.21779   0.96758   0.05156   0.00000  Uiso   1.00
F354   F     0.11554   0.69909   0.44844   0.00000  Uiso   1.00
F355   F     0.21355   0.97239   0.46387   0.00000  Uiso   1.00
F356   F     0.11978   0.69428   0.03613   0.00000  Uiso   1.00
F357   F     0.24352   0.67216   0.25349   0.00000  Uiso   1.00
F358   F     0.08982   0.99450   0.24651   0.00000  Uiso   1.00
H359   H     0.14290   0.72776   0.14488   0.00000  Uiso   1.00
H360   H     0.19044   0.93891   0.35512   0.00000  Uiso   1.00
H361   H     0.04924   0.77381   0.20007   0.00000  Uiso   1.00
H362   H     0.28409   0.89286   0.29993   0.00000  Uiso   1.00
N363   N     0.31678   0.81932   0.23783   0.00000  Uiso   1.00
N364   N     0.01656   0.84735   0.26217   0.00000  Uiso   1.00
O365   O     0.12975   0.91286   0.25298   0.00000  Uiso   1.00
O366   O     0.26082   0.94326   0.38715   0.00000  Uiso   1.00
O367   O     0.30594   0.75455   0.18351   0.00000  Uiso   1.00
O368   O     0.02740   0.91212   0.31649   0.00000  Uiso   1.00
O369   O     0.20358   0.75381   0.24701   0.00000  Uiso   1.00
O370   O     0.22613   0.90387   0.24518   0.00000  Uiso   1.00
O371   O     0.10720   0.76279   0.25481   0.00000  Uiso   1.00
O372   O     0.11847   0.83784   0.31997   0.00000  Uiso   1.00
O373   O     0.21486   0.82883   0.18002   0.00000  Uiso   1.00
O374   O     0.21485   0.82885   0.31217   0.00000  Uiso   1.00
O375   O     0.11848   0.83781   0.18782   0.00000  Uiso   1.00
O376   O     0.07251   0.72341   0.11285   0.00000  Uiso   1.00
Zn377  Zn    0.10231   0.83933   0.25521   0.00000  Uiso   1.00
Zn378  Zn    0.23102   0.82734   0.24479   0.00000  Uiso   1.00
C379   C     0.51483   0.93124   0.24899   0.00000  Uiso   1.00
C380   C     0.52185   0.88020   0.40750   0.00000  Uiso   1.00
C381   C     0.49943   0.83095   0.11610   0.00000  Uiso   1.00
C382   C     0.50057   0.83571   0.38390   0.00000  Uiso   1.00
C383   C     0.51938   0.87564   0.09504   0.00000  Uiso   1.00
C384   C     0.48062   0.79102   0.40496   0.00000  Uiso   1.00
C385   C     0.51830   0.87747   0.04882   0.00000  Uiso   1.00
C386   C     0.48170   0.78919   0.45118   0.00000  Uiso   1.00
C387   C     0.49954   0.83260   0.02351   0.00000  Uiso   1.00
C388   C     0.50046   0.83406   0.47649   0.00000  Uiso   1.00
C389   C     0.48025   0.78627   0.04514   0.00000  Uiso   1.00
C390   C     0.48517   0.73543   0.25101   0.00000  Uiso   1.00
C391   C     0.51975   0.88039   0.45486   0.00000  Uiso   1.00
C392   C     0.53511   0.92349   0.02763   0.00000  Uiso   1.00
C393   C     0.46489   0.74318   0.47237   0.00000  Uiso   1.00
C394   C     0.45340   0.74199   0.11855   0.00000  Uiso   1.00
C395   C     0.54660   0.92467   0.38145   0.00000  Uiso   1.00
C396   C     0.33861   0.78098   0.20587   0.00000  Uiso   1.00
C397   C     0.66139   0.88568   0.29413   0.00000  Uiso   1.00
C398   C     0.53473   0.92538   0.48146   0.00000  Uiso   1.00
C399   C     0.46527   0.74129   0.01854   0.00000  Uiso   1.00
C400   C     0.52267   0.98548   0.25025   0.00000  Uiso   1.00
C401   C     0.47733   0.68119   0.24975   0.00000  Uiso   1.00
C402   C     0.50025   0.83429   0.33617   0.00000  Uiso   1.00
C403   C     0.49975   0.83238   0.16383   0.00000  Uiso   1.00
C404   C     0.47815   0.78646   0.09250   0.00000  Uiso   1.00
F405   F     0.53843   0.91765   0.12040   0.00000  Uiso   1.00
F406   F     0.46157   0.74902   0.37960   0.00000  Uiso   1.00
F407   F     0.55112   0.96758   0.05156   0.00000  Uiso   1.00
F408   F     0.44888   0.69909   0.44844   0.00000  Uiso   1.00
F409   F     0.54688   0.97239   0.46387   0.00000  Uiso   1.00
F410   F     0.45312   0.69428   0.03613   0.00000  Uiso   1.00
F411   F     0.57685   0.67216   0.25349   0.00000  Uiso   1.00
F412   F     0.42315   0.99450   0.24651   0.00000  Uiso   1.00
H413   H     0.47623   0.72776   0.14488   0.00000  Uiso   1.00
H414   H     0.52377   0.93891   0.35512   0.00000  Uiso   1.00
H415   H     0.38257   0.77381   0.20007   0.00000  Uiso   1.00
H416   H     0.61743   0.89286   0.29993   0.00000  Uiso   1.00
N417   N     0.65011   0.81932   0.23783   0.00000  Uiso   1.00
N418   N     0.34989   0.84735   0.26217   0.00000  Uiso   1.00
O419   O     0.46308   0.91286   0.25298   0.00000  Uiso   1.00
O420   O     0.59416   0.94326   0.38715   0.00000  Uiso   1.00
O421   O     0.63927   0.75455   0.18351   0.00000  Uiso   1.00
O422   O     0.36073   0.91212   0.31649   0.00000  Uiso   1.00
O423   O     0.53692   0.75381   0.24701   0.00000  Uiso   1.00
O424   O     0.55946   0.90387   0.24518   0.00000  Uiso   1.00
O425   O     0.44054   0.76279   0.25481   0.00000  Uiso   1.00
O426   O     0.45181   0.83784   0.31997   0.00000  Uiso   1.00
O427   O     0.54819   0.82883   0.18002   0.00000  Uiso   1.00
O428   O     0.54819   0.82885   0.31217   0.00000  Uiso   1.00
O429   O     0.45181   0.83781   0.18782   0.00000  Uiso   1.00
O430   O     0.40584   0.72341   0.11285   0.00000  Uiso   1.00
Zn431  Zn    0.43565   0.83933   0.25521   0.00000  Uiso   1.00
Zn432  Zn    0.56435   0.82734   0.24479   0.00000  Uiso   1.00
C433   C     0.84816   0.93124   0.24899   0.00000  Uiso   1.00
C434   C     0.85518   0.88020   0.40750   0.00000  Uiso   1.00
C435   C     0.83277   0.83095   0.11610   0.00000  Uiso   1.00
C436   C     0.83390   0.83571   0.38390   0.00000  Uiso   1.00
C437   C     0.85271   0.87564   0.09504   0.00000  Uiso   1.00
C438   C     0.81396   0.79102   0.40496   0.00000  Uiso   1.00
C439   C     0.85163   0.87747   0.04882   0.00000  Uiso   1.00
C440   C     0.81503   0.78919   0.45118   0.00000  Uiso   1.00
C441   C     0.83288   0.83260   0.02351   0.00000  Uiso   1.00
C442   C     0.83379   0.83406   0.47649   0.00000  Uiso   1.00
C443   C     0.81358   0.78627   0.04514   0.00000  Uiso   1.00
C444   C     0.81851   0.73543   0.25101   0.00000  Uiso   1.00
C445   C     0.85308   0.88039   0.45486   0.00000  Uiso   1.00
C446   C     0.86844   0.92349   0.02763   0.00000  Uiso   1.00
C447   C     0.79822   0.74318   0.47237   0.00000  Uiso   1.00
C448   C     0.78674   0.74199   0.11855   0.00000  Uiso   1.00
C449   C     0.87993   0.92467   0.38145   0.00000  Uiso   1.00
C450   C     0.67194   0.78098   0.20587   0.00000  Uiso   1.00
C451   C     0.99473   0.88568   0.29413   0.00000  Uiso   1.00
C452   C     0.86806   0.92538   0.48146   0.00000  Uiso   1.00
C453   C     0.79861   0.74129   0.01854   0.00000  Uiso   1.00
C454   C     0.85600   0.98548   0.25025   0.00000  Uiso   1.00
C455   C     0.81067   0.68119   0.24975   0.00000  Uiso   1.00
C456   C     0.83358   0.83429   0.33617   0.00000  Uiso   1.00
C457   C     0.83308   0.83238   0.16383   0.00000  Uiso   1.00
C458   C     0.81149   0.78646   0.09250   0.00000  Uiso   1.00
F459   F     0.87177   0.91765   0.12040   0.00000  Uiso   1.00
F460   F     0.79490   0.74902   0.37960   0.00000  Uiso   1.00
F461   F     0.88446   0.96758   0.05156   0.00000  Uiso   1.00
F462   F     0.78221   0.69909   0.44844   0.00000  Uiso   1.00
F463   F     0.88022   0.97239   0.46387   0.00000  Uiso   1.00
F464   F     0.78645   0.69428   0.03613   0.00000  Uiso   1.00
F465   F     0.91018   0.67216   0.25349   0.00000  Uiso   1.00
F466   F     0.75648   0.99450   0.24651   0.00000  Uiso   1.00
H467   H     0.80956   0.72776   0.14488   0.00000  Uiso   1.00
H468   H     0.85710   0.93891   0.35512   0.00000  Uiso   1.00
H469   H     0.71591   0.77381   0.20007   0.00000  Uiso   1.00
H470   H     0.95076   0.89286   0.29993   0.00000  Uiso   1.00
N471   N     0.98344   0.81932   0.23783   0.00000  Uiso   1.00
N472   N     0.68322   0.84735   0.26217   0.00000  Uiso   1.00
O473   O     0.79642   0.91286   0.25298   0.00000  Uiso   1.00
O474   O     0.92749   0.94326   0.38715   0.00000  Uiso   1.00
O475   O     0.97260   0.75455   0.18351   0.00000  Uiso   1.00
O476   O     0.69406   0.91212   0.31649   0.00000  Uiso   1.00
O477   O     0.87025   0.75381   0.24701   0.00000  Uiso   1.00
O478   O     0.89280   0.90387   0.24518   0.00000  Uiso   1.00
O479   O     0.77387   0.76279   0.25481   0.00000  Uiso   1.00
O480   O     0.78514   0.83784   0.31997   0.00000  Uiso   1.00
O481   O     0.88153   0.82883   0.18002   0.00000  Uiso   1.00
O482   O     0.88152   0.82885   0.31217   0.00000  Uiso   1.00
O483   O     0.78515   0.83781   0.18782   0.00000  Uiso   1.00
O484   O     0.73918   0.72341   0.11285   0.00000  Uiso   1.00
Zn485  Zn    0.76898   0.83933   0.25521   0.00000  Uiso   1.00
Zn486  Zn    0.89769   0.82734   0.24479   0.00000  Uiso   1.00
C487   C     0.18149   0.26457   0.74899   0.00000  Uiso   1.00
C488   C     0.18851   0.21354   0.90750   0.00000  Uiso   1.00
C489   C     0.16610   0.16429   0.61610   0.00000  Uiso   1.00
C490   C     0.16723   0.16905   0.88390   0.00000  Uiso   1.00
C491   C     0.18604   0.20898   0.59504   0.00000  Uiso   1.00
C492   C     0.14729   0.12435   0.90496   0.00000  Uiso   1.00
C493   C     0.18497   0.21081   0.54882   0.00000  Uiso   1.00
C494   C     0.14837   0.12253   0.95118   0.00000  Uiso   1.00
C495   C     0.16621   0.16593   0.52351   0.00000  Uiso   1.00
C496   C     0.16712   0.16740   0.97649   0.00000  Uiso   1.00
C497   C     0.14692   0.11961   0.54514   0.00000  Uiso   1.00
C498   C     0.15184   0.06876   0.75101   0.00000  Uiso   1.00
C499   C     0.18642   0.21373   0.95486   0.00000  Uiso   1.00
C500   C     0.20178   0.25682   0.52763   0.00000  Uiso   1.00
C501   C     0.13156   0.07651   0.97237   0.00000  Uiso   1.00
C502   C     0.12007   0.07532   0.61855   0.00000  Uiso   1.00
C503   C     0.21326   0.25801   0.88145   0.00000  Uiso   1.00
C504   C     0.00527   0.11432   0.70587   0.00000  Uiso   1.00
C505   C     0.32806   0.21902   0.79413   0.00000  Uiso   1.00
C506   C     0.20139   0.25871   0.98146   0.00000  Uiso   1.00
C507   C     0.13194   0.07462   0.51854   0.00000  Uiso   1.00
C508   C     0.18933   0.31881   0.75025   0.00000  Uiso   1.00
C509   C     0.14400   0.01452   0.74975   0.00000  Uiso   1.00
C510   C     0.16692   0.16762   0.83617   0.00000  Uiso   1.00
C511   C     0.16642   0.16571   0.66383   0.00000  Uiso   1.00
C512   C     0.14482   0.11980   0.59250   0.00000  Uiso   1.00
F513   F     0.20510   0.25098   0.62040   0.00000  Uiso   1.00
F514   F     0.12823   0.08235   0.87960   0.00000  Uiso   1.00
F515   F     0.21779   0.30091   0.55156   0.00000  Uiso   1.00
F516   F     0.11554   0.03242   0.94844   0.00000  Uiso   1.00
F517   F     0.21355   0.30572   0.96387   0.00000  Uiso   1.00
F518   F     0.11978   0.02761   0.53613   0.00000  Uiso   1.00
F519   F     0.24352   0.00550   0.75349   0.00000  Uiso   1.00
F520   F     0.08982   0.32784   0.74651   0.00000  Uiso   1.00
H521   H     0.14290   0.06109   0.64488   0.00000  Uiso   1.00
H522   H     0.19044   0.27224   0.85512   0.00000  Uiso   1.00
H523   H     0.04924   0.10714   0.70007   0.00000  Uiso   1.00
H524   H     0.28409   0.22619   0.79993   0.00000  Uiso   1.00
N525   N     0.31678   0.15265   0.73783   0.00000  Uiso   1.00
N526   N     0.01656   0.18068   0.76217   0.00000  Uiso   1.00
O527   O     0.12975   0.24619   0.75298   0.00000  Uiso   1.00
O528   O     0.26082   0.27659   0.88715   0.00000  Uiso   1.00
O529   O     0.30594   0.08788   0.68351   0.00000  Uiso   1.00
O530   O     0.02740   0.24545   0.81649   0.00000  Uiso   1.00
O531   O     0.20358   0.08714   0.74701   0.00000  Uiso   1.00
O532   O     0.22613   0.23721   0.74518   0.00000  Uiso   1.00
O533   O     0.10720   0.09613   0.75481   0.00000  Uiso   1.00
O534   O     0.11847   0.17117   0.81997   0.00000  Uiso   1.00
O535   O     0.21486   0.16216   0.68002   0.00000  Uiso   1.00
O536   O     0.21485   0.16219   0.81217   0.00000  Uiso   1.00
O537   O     0.11848   0.17115   0.68782   0.00000  Uiso   1.00
O538   O     0.07251   0.05674   0.61285   0.00000  Uiso   1.00
Zn539  Zn    0.10231   0.17266   0.75521   0.00000  Uiso   1.00
Zn540  Zn    0.23102   0.16067   0.74479   0.00000  Uiso   1.00
C541   C     0.51483   0.26457   0.74899   0.00000  Uiso   1.00
C542   C     0.52185   0.21354   0.90750   0.00000  Uiso   1.00
C543   C     0.49943   0.16429   0.61610   0.00000  Uiso   1.00
C544   C     0.50057   0.16905   0.88390   0.00000  Uiso   1.00
C545   C     0.51938   0.20898   0.59504   0.00000  Uiso   1.00
C546   C     0.48062   0.12435   0.90496   0.00000  Uiso   1.00
C547   C     0.51830   0.21081   0.54882   0.00000  Uiso   1.00
C548   C     0.48170   0.12253   0.95118   0.00000  Uiso   1.00
C549   C     0.49954   0.16593   0.52351   0.00000  Uiso   1.00
C550   C     0.50046   0.16740   0.97649   0.00000  Uiso   1.00
C551   C     0.48025   0.11961   0.54514   0.00000  Uiso   1.00
C552   C     0.48517   0.06876   0.75101   0.00000  Uiso   1.00
C553   C     0.51975   0.21373   0.95486   0.00000  Uiso   1.00
C554   C     0.53511   0.25682   0.52763   0.00000  Uiso   1.00
C555   C     0.46489   0.07651   0.97237   0.00000  Uiso   1.00
C556   C     0.45340   0.07532   0.61855   0.00000  Uiso   1.00
C557   C     0.54660   0.25801   0.88145   0.00000  Uiso   1.00
C558   C     0.33861   0.11432   0.70587   0.00000  Uiso   1.00
C559   C     0.66139   0.21902   0.79413   0.00000  Uiso   1.00
C560   C     0.53473   0.25871   0.98146   0.00000  Uiso   1.00
C561   C     0.46527   0.07462   0.51854   0.00000  Uiso   1.00
C562   C     0.52267   0.31881   0.75025   0.00000  Uiso   1.00
C563   C     0.47733   0.01452   0.74975   0.00000  Uiso   1.00
C564   C     0.50025   0.16762   0.83617   0.00000  Uiso   1.00
C565   C     0.49975   0.16571   0.66383   0.00000  Uiso   1.00
C566   C     0.47815   0.11980   0.59250   0.00000  Uiso   1.00
F567   F     0.53843   0.25098   0.62040   0.00000  Uiso   1.00
F568   F     0.46157   0.08235   0.87960   0.00000  Uiso   1.00
F569   F     0.55112   0.30091   0.55156   0.00000  Uiso   1.00
F570   F     0.44888   0.03242   0.94844   0.00000  Uiso   1.00
F571   F     0.54688   0.30572   0.96387   0.00000  Uiso   1.00
F572   F     0.45312   0.02761   0.53613   0.00000  Uiso   1.00
F573   F     0.57685   0.00550   0.75349   0.00000  Uiso   1.00
F574   F     0.42315   0.32784   0.74651   0.00000  Uiso   1.00
H575   H     0.47623   0.06109   0.64488   0.00000  Uiso   1.00
H576   H     0.52377   0.27224   0.85512   0.00000  Uiso   1.00
H577   H     0.38257   0.10714   0.70007   0.00000  Uiso   1.00
H578   H     0.61743   0.22619   0.79993   0.00000  Uiso   1.00
N579   N     0.65011   0.15265   0.73783   0.00000  Uiso   1.00
N580   N     0.34989   0.18068   0.76217   0.00000  Uiso   1.00
O581   O     0.46308   0.24619   0.75298   0.00000  Uiso   1.00
O582   O     0.59416   0.27659   0.88715   0.00000  Uiso   1.00
O583   O     0.63927   0.08788   0.68351   0.00000  Uiso   1.00
O584   O     0.36073   0.24545   0.81649   0.00000  Uiso   1.00
O585   O     0.53692   0.08714   0.74701   0.00000  Uiso   1.00
O586   O     0.55946   0.23721   0.74518   0.00000  Uiso   1.00
O587   O     0.44054   0.09613   0.75481   0.00000  Uiso   1.00
O588   O     0.45181   0.17117   0.81997   0.00000  Uiso   1.00
O589   O     0.54819   0.16216   0.68002   0.00000  Uiso   1.00
O590   O     0.54819   0.16219   0.81217   0.00000  Uiso   1.00
O591   O     0.45181   0.17115   0.68782   0.00000  Uiso   1.00
O592   O     0.40584   0.05674   0.61285   0.00000  Uiso   1.00
Zn593  Zn    0.43565   0.17266   0.75521   0.00000  Uiso   1.00
Zn594  Zn    0.56435   0.16067   0.74479   0.00000  Uiso   1.00
C595   C     0.84816   0.26457   0.74899   0.00000  Uiso   1.00
C596   C     0.85518   0.21354   0.90750   0.00000  Uiso   1.00
C597   C     0.83277   0.16429   0.61610   0.00000  Uiso   1.00
C598   C     0.83390   0.16905   0.88390   0.00000  Uiso   1.00
C599   C     0.85271   0.20898   0.59504   0.00000  Uiso   1.00
C600   C     0.81396   0.12435   0.90496   0.00000  Uiso   1.00
C601   C     0.85163   0.21081   0.54882   0.00000  Uiso   1.00
C602   C     0.81503   0.12253   0.95118   0.00000  Uiso   1.00
C603   C     0.83288   0.16593   0.52351   0.00000  Uiso   1.00
C604   C     0.83379   0.16740   0.97649   0.00000  Uiso   1.00
C605   C     0.81358   0.11961   0.54514   0.00000  Uiso   1.00
C606   C     0.81851   0.06876   0.75101   0.00000  Uiso   1.00
C607   C     0.85308   0.21373   0.95486   0.00000  Uiso   1.00
C608   C     0.86844   0.25682   0.52763   0.00000  Uiso   1.00
C609   C     0.79822   0.07651   0.97237   0.00000  Uiso   1.00
C610   C     0.78674   0.07532   0.61855   0.00000  Uiso   1.00
C611   C     0.87993   0.25801   0.88145   0.00000  Uiso   1.00
C612   C     0.67194   0.11432   0.70587   0.00000  Uiso   1.00
C613   C     0.99473   0.21902   0.79413   0.00000  Uiso   1.00
C614   C     0.86806   0.25871   0.98146   0.00000  Uiso   1.00
C615   C     0.79861   0.07462   0.51854   0.00000  Uiso   1.00
C616   C     0.85600   0.31881   0.75025   0.00000  Uiso   1.00
C617   C     0.81067   0.01452   0.74975   0.00000  Uiso   1.00
C618   C     0.83358   0.16762   0.83617   0.00000  Uiso   1.00
C619   C     0.83308   0.16571   0.66383   0.00000  Uiso   1.00
C620   C     0.81149   0.11980   0.59250   0.00000  Uiso   1.00
F621   F     0.87177   0.25098   0.62040   0.00000  Uiso   1.00
F622   F     0.79490   0.08235   0.87960   0.00000  Uiso   1.00
F623   F     0.88446   0.30091   0.55156   0.00000  Uiso   1.00
F624   F     0.78221   0.03242   0.94844   0.00000  Uiso   1.00
F625   F     0.88022   0.30572   0.96387   0.00000  Uiso   1.00
F626   F     0.78645   0.02761   0.53613   0.00000  Uiso   1.00
F627   F     0.91018   0.00550   0.75349   0.00000  Uiso   1.00
F628   F     0.75648   0.32784   0.74651   0.00000  Uiso   1.00
H629   H     0.80956   0.06109   0.64488   0.00000  Uiso   1.00
H630   H     0.85710   0.27224   0.85512   0.00000  Uiso   1.00
H631   H     0.71591   0.10714   0.70007   0.00000  Uiso   1.00
H632   H     0.95076   0.22619   0.79993   0.00000  Uiso   1.00
N633   N     0.98344   0.15265   0.73783   0.00000  Uiso   1.00
N634   N     0.68322   0.18068   0.76217   0.00000  Uiso   1.00
O635   O     0.79642   0.24619   0.75298   0.00000  Uiso   1.00
O636   O     0.92749   0.27659   0.88715   0.00000  Uiso   1.00
O637   O     0.97260   0.08788   0.68351   0.00000  Uiso   1.00
O638   O     0.69406   0.24545   0.81649   0.00000  Uiso   1.00
O639   O     0.87025   0.08714   0.74701   0.00000  Uiso   1.00
O640   O     0.89280   0.23721   0.74518   0.00000  Uiso   1.00
O641   O     0.77387   0.09613   0.75481   0.00000  Uiso   1.00
O642   O     0.78514   0.17117   0.81997   0.00000  Uiso   1.00
O643   O     0.88153   0.16216   0.68002   0.00000  Uiso   1.00
O644   O     0.88152   0.16219   0.81217   0.00000  Uiso   1.00
O645   O     0.78515   0.17115   0.68782   0.00000  Uiso   1.00
O646   O     0.73918   0.05674   0.61285   0.00000  Uiso   1.00
Zn647  Zn    0.76898   0.17266   0.75521   0.00000  Uiso   1.00
Zn648  Zn    0.89769   0.16067   0.74479   0.00000  Uiso   1.00
C649   C     0.18149   0.59790   0.74899   0.00000  Uiso   1.00
C650   C     0.18851   0.54687   0.90750   0.00000  Uiso   1.00
C651   C     0.16610   0.49762   0.61610   0.00000  Uiso   1.00
C652   C     0.16723   0.50238   0.88390   0.00000  Uiso   1.00
C653   C     0.18604   0.54231   0.59504   0.00000  Uiso   1.00
C654   C     0.14729   0.45769   0.90496   0.00000  Uiso   1.00
C655   C     0.18497   0.54414   0.54882   0.00000  Uiso   1.00
C656   C     0.14837   0.45586   0.95118   0.00000  Uiso   1.00
C657   C     0.16621   0.49927   0.52351   0.00000  Uiso   1.00
C658   C     0.16712   0.50073   0.97649   0.00000  Uiso   1.00
C659   C     0.14692   0.45294   0.54514   0.00000  Uiso   1.00
C660   C     0.15184   0.40209   0.75101   0.00000  Uiso   1.00
C661   C     0.18642   0.54706   0.95486   0.00000  Uiso   1.00
C662   C     0.20178   0.59016   0.52763   0.00000  Uiso   1.00
C663   C     0.13156   0.40984   0.97237   0.00000  Uiso   1.00
C664   C     0.12007   0.40866   0.61855   0.00000  Uiso   1.00
C665   C     0.21326   0.59134   0.88145   0.00000  Uiso   1.00
C666   C     0.00527   0.44765   0.70587   0.00000  Uiso   1.00
C667   C     0.32806   0.55235   0.79413   0.00000  Uiso   1.00
C668   C     0.20139   0.59205   0.98146   0.00000  Uiso   1.00
C669   C     0.13194   0.40795   0.51854   0.00000  Uiso   1.00
C670   C     0.18933   0.65215   0.75025   0.00000  Uiso   1.00
C671   C     0.14400   0.34785   0.74975   0.00000  Uiso   1.00
C672   C     0.16692   0.50095   0.83617   0.00000  Uiso   1.00
C673   C     0.16642   0.49905   0.66383   0.00000  Uiso   1.00
C674   C     0.14482   0.45313   0.59250   0.00000  Uiso   1.00
F675   F     0.20510   0.58431   0.62040   0.00000  Uiso   1.00
F676   F     0.12823   0.41569   0.87960   0.00000  Uiso   1.00
F677   F     0.21779   0.63425   0.55156   0.00000  Uiso   1.00
F678   F     0.11554   0.36575   0.94844   0.00000  Uiso   1.00
F679   F     0.21355   0.63905   0.96387   0.00000  Uiso   1.00
F680   F     0.11978   0.36095   0.53613   0.00000  Uiso   1.00
F681   F     0.24352   0.33883   0.75349   0.00000  Uiso   1.00
F682   F     0.08982   0.66117   0.74651   0.00000  Uiso   1.00
H683   H     0.14290   0.39442   0.64488   0.00000  Uiso   1.00
H684   H     0.19044   0.60558   0.85512   0.00000  Uiso   1.00
H685   H     0.04924   0.44048   0.70007   0.00000  Uiso   1.00
H686   H     0.28409   0.55952   0.79993   0.00000  Uiso   1.00
N687   N     0.31678   0.48598   0.73783   0.00000  Uiso   1.00
N688   N     0.01656   0.51402   0.76217   0.00000  Uiso   1.00
O689   O     0.12975   0.57952   0.75298   0.00000  Uiso   1.00
O690   O     0.26082   0.60992   0.88715   0.00000  Uiso   1.00
O691   O     0.30594   0.42122   0.68351   0.00000  Uiso   1.00
O692   O     0.02740   0.57878   0.81649   0.00000  Uiso   1.00
O693   O     0.20358   0.42048   0.74701   0.00000  Uiso   1.00
O694   O     0.22613   0.57054   0.74518   0.00000  Uiso   1.00
O695   O     0.10720   0.42946   0.75481   0.00000  Uiso   1.00
O696   O     0.11847   0.50450   0.81997   0.00000  Uiso   1.00
O697   O     0.21486   0.49550   0.68002   0.00000  Uiso   1.00
O698   O     0.21485   0.49552   0.81217   0.00000  Uiso   1.00
O699   O     0.11848   0.50448   0.68782   0.00000  Uiso   1.00
O700   O     0.07251   0.39008   0.61285   0.00000  Uiso   1.00
Zn701  Zn    0.10231   0.50600   0.75521   0.00000  Uiso   1.00
Zn702  Zn    0.23102   0.49400   0.74479   0.00000  Uiso   1.00
C703   C     0.51483   0.59790   0.74899   0.00000  Uiso   1.00
C704   C     0.52185   0.54687   0.90750   0.00000  Uiso   1.00
C705   C     0.49943   0.49762   0.61610   0.00000  Uiso   1.00
C706   C     0.50057   0.50238   0.88390   0.00000  Uiso   1.00
C707   C     0.51938   0.54231   0.59504   0.00000  Uiso   1.00
C708   C     0.48062   0.45769   0.90496   0.00000  Uiso   1.00
C709   C     0.51830   0.54414   0.54882   0.00000  Uiso   1.00
C710   C     0.48170   0.45586   0.95118   0.00000  Uiso   1.00
C711   C     0.49954   0.49927   0.52351   0.00000  Uiso   1.00
C712   C     0.50046   0.50073   0.97649   0.00000  Uiso   1.00
C713   C     0.48025   0.45294   0.54514   0.00000  Uiso   1.00
C714   C     0.48517   0.40209   0.75101   0.00000  Uiso   1.00
C715   C     0.51975   0.54706   0.95486   0.00000  Uiso   1.00
C716   C     0.53511   0.59016   0.52763   0.00000  Uiso   1.00
C717   C     0.46489   0.40984   0.97237   0.00000  Uiso   1.00
C718   C     0.45340   0.40866   0.61855   0.00000  Uiso   1.00
C719   C     0.54660   0.59134   0.88145   0.00000  Uiso   1.00
C720   C     0.33861   0.44765   0.70587   0.00000  Uiso   1.00
C721   C     0.66139   0.55235   0.79413   0.00000  Uiso   1.00
C722   C     0.53473   0.59205   0.98146   0.00000  Uiso   1.00
C723   C     0.46527   0.40795   0.51854   0.00000  Uiso   1.00
C724   C     0.52267   0.65215   0.75025   0.00000  Uiso   1.00
C725   C     0.47733   0.34785   0.74975   0.00000  Uiso   1.00
C726   C     0.50025   0.50095   0.83617   0.00000  Uiso   1.00
C727   C     0.49975   0.49905   0.66383   0.00000  Uiso   1.00
C728   C     0.47815   0.45313   0.59250   0.00000  Uiso   1.00
F729   F     0.53843   0.58431   0.62040   0.00000  Uiso   1.00
F730   F     0.46157   0.41569   0.87960   0.00000  Uiso   1.00
F731   F     0.55112   0.63425   0.55156   0.00000  Uiso   1.00
F732   F     0.44888   0.36575   0.94844   0.00000  Uiso   1.00
F733   F     0.54688   0.63905   0.96387   0.00000  Uiso   1.00
F734   F     0.45312   0.36095   0.53613   0.00000  Uiso   1.00
F735   F     0.57685   0.33883   0.75349   0.00000  Uiso   1.00
F736   F     0.42315   0.66117   0.74651   0.00000  Uiso   1.00
H737   H     0.47623   0.39442   0.64488   0.00000  Uiso   1.00
H738   H     0.52377   0.60558   0.85512   0.00000  Uiso   1.00
H739   H     0.38257   0.44048   0.70007   0.00000  Uiso   1.00
H740   H     0.61743   0.55952   0.79993   0.00000  Uiso   1.00
N741   N     0.65011   0.48598   0.73783   0.00000  Uiso   1.00
N742   N     0.34989   0.51402   0.76217   0.00000  Uiso   1.00
O743   O     0.46308   0.57952   0.75298   0.00000  Uiso   1.00
O744   O     0.59416   0.60992   0.88715   0.00000  Uiso   1.00
O745   O     0.63927   0.42122   0.68351   0.00000  Uiso   1.00
O746   O     0.36073   0.57878   0.81649   0.00000  Uiso   1.00
O747   O     0.53692   0.42048   0.74701   0.00000  Uiso   1.00
O748   O     0.55946   0.57054   0.74518   0.00000  Uiso   1.00
O749   O     0.44054   0.42946   0.75481   0.00000  Uiso   1.00
O750   O     0.45181   0.50450   0.81997   0.00000  Uiso   1.00
O751   O     0.54819   0.49550   0.68002   0.00000  Uiso   1.00
O752   O     0.54819   0.49552   0.81217   0.00000  Uiso   1.00
O753   O     0.45181   0.50448   0.68782   0.00000  Uiso   1.00
O754   O     0.40584   0.39008   0.61285   0.00000  Uiso   1.00
Zn755  Zn    0.43565   0.50600   0.75521   0.00000  Uiso   1.00
Zn756  Zn    0.56435   0.49400   0.74479   0.00000  Uiso   1.00
C757   C     0.84816   0.59790   0.74899   0.00000  Uiso   1.00
C758   C     0.85518   0.54687   0.90750   0.00000  Uiso   1.00
C759   C     0.83277   0.49762   0.61610   0.00000  Uiso   1.00
C760   C     0.83390   0.50238   0.88390   0.00000  Uiso   1.00
C761   C     0.85271   0.54231   0.59504   0.00000  Uiso   1.00
C762   C     0.81396   0.45769   0.90496   0.00000  Uiso   1.00
C763   C     0.85163   0.54414   0.54882   0.00000  Uiso   1.00
C764   C     0.81503   0.45586   0.95118   0.00000  Uiso   1.00
C765   C     0.83288   0.49927   0.52351   0.00000  Uiso   1.00
C766   C     0.83379   0.50073   0.97649   0.00000  Uiso   1.00
C767   C     0.81358   0.45294   0.54514   0.00000  Uiso   1.00
C768   C     0.81851   0.40209   0.75101   0.00000  Uiso   1.00
C769   C     0.85308   0.54706   0.95486   0.00000  Uiso   1.00
C770   C     0.86844   0.59016   0.52763   0.00000  Uiso   1.00
C771   C     0.79822   0.40984   0.97237   0.00000  Uiso   1.00
C772   C     0.78674   0.40866   0.61855   0.00000  Uiso   1.00
C773   C     0.87993   0.59134   0.88145   0.00000  Uiso   1.00
C774   C     0.67194   0.44765   0.70587   0.00000  Uiso   1.00
C775   C     0.99473   0.55235   0.79413   0.00000  Uiso   1.00
C776   C     0.86806   0.59205   0.98146   0.00000  Uiso   1.00
C777   C     0.79861   0.40795   0.51854   0.00000  Uiso   1.00
C778   C     0.85600   0.65215   0.75025   0.00000  Uiso   1.00
C779   C     0.81067   0.34785   0.74975   0.00000  Uiso   1.00
C780   C     0.83358   0.50095   0.83617   0.00000  Uiso   1.00
C781   C     0.83308   0.49905   0.66383   0.00000  Uiso   1.00
C782   C     0.81149   0.45313   0.59250   0.00000  Uiso   1.00
F783   F     0.87177   0.58431   0.62040   0.00000  Uiso   1.00
F784   F     0.79490   0.41569   0.87960   0.00000  Uiso   1.00
F785   F     0.88446   0.63425   0.55156   0.00000  Uiso   1.00
F786   F     0.78221   0.36575   0.94844   0.00000  Uiso   1.00
F787   F     0.88022   0.63905   0.96387   0.00000  Uiso   1.00
F788   F     0.78645   0.36095   0.53613   0.00000  Uiso   1.00
F789   F     0.91018   0.33883   0.75349   0.00000  Uiso   1.00
F790   F     0.75648   0.66117   0.74651   0.00000  Uiso   1.00
H791   H     0.80956   0.39442   0.64488   0.00000  Uiso   1.00
H792   H     0.85710   0.60558   0.85512   0.00000  Uiso   1.00
H793   H     0.71591   0.44048   0.70007   0.00000  Uiso   1.00
H794   H     0.95076   0.55952   0.79993   0.00000  Uiso   1.00
N795   N     0.98344   0.48598   0.73783   0.00000  Uiso   1.00
N796   N     0.68322   0.51402   0.76217   0.00000  Uiso   1.00
O797   O     0.79642   0.57952   0.75298   0.00000  Uiso   1.00
O798   O     0.92749   0.60992   0.88715   0.00000  Uiso   1.00
O799   O     0.97260   0.42122   0.68351   0.00000  Uiso   1.00
O800   O     0.69406   0.57878   0.81649   0.00000  Uiso   1.00
O801   O     0.87025   0.42048   0.74701   0.00000  Uiso   1.00
O802   O     0.89280   0.57054   0.74518   0.00000  Uiso   1.00
O803   O     0.77387   0.42946   0.75481   0.00000  Uiso   1.00
O804   O     0.78514   0.50450   0.81997   0.00000  Uiso   1.00
O805   O     0.88153   0.49550   0.68002   0.00000  Uiso   1.00
O806   O     0.88152   0.49552   0.81217   0.00000  Uiso   1.00
O807   O     0.78515   0.50448   0.68782   0.00000  Uiso   1.00
O808   O     0.73918   0.39008   0.61285   0.00000  Uiso   1.00
Zn809  Zn    0.76898   0.50600   0.75521   0.00000  Uiso   1.00
Zn810  Zn    0.89769   0.49400   0.74479   0.00000  Uiso   1.00
C811   C     0.18149   0.93124   0.74899   0.00000  Uiso   1.00
C812   C     0.18851   0.88020   0.90750   0.00000  Uiso   1.00
C813   C     0.16610   0.83095   0.61610   0.00000  Uiso   1.00
C814   C     0.16723   0.83571   0.88390   0.00000  Uiso   1.00
C815   C     0.18604   0.87564   0.59504   0.00000  Uiso   1.00
C816   C     0.14729   0.79102   0.90496   0.00000  Uiso   1.00
C817   C     0.18497   0.87747   0.54882   0.00000  Uiso   1.00
C818   C     0.14837   0.78919   0.95118   0.00000  Uiso   1.00
C819   C     0.16621   0.83260   0.52351   0.00000  Uiso   1.00
C820   C     0.16712   0.83406   0.97649   0.00000  Uiso   1.00
C821   C     0.14692   0.78627   0.54514   0.00000  Uiso   1.00
C822   C     0.15184   0.73543   0.75101   0.00000  Uiso   1.00
C823   C     0.18642   0.88039   0.95486   0.00000  Uiso   1.00
C824   C     0.20178   0.92349   0.52763   0.00000  Uiso   1.00
C825   C     0.13156   0.74318   0.97237   0.00000  Uiso   1.00
C826   C     0.12007   0.74199   0.61855   0.00000  Uiso   1.00
C827   C     0.21326   0.92467   0.88145   0.00000  Uiso   1.00
C828   C     0.00527   0.78098   0.70587   0.00000  Uiso   1.00
C829   C     0.32806   0.88568   0.79413   0.00000  Uiso   1.00
C830   C     0.20139   0.92538   0.98146   0.00000  Uiso   1.00
C831   C     0.13194   0.74129   0.51854   0.00000  Uiso   1.00
C832   C     0.18933   0.98548   0.75025   0.00000  Uiso   1.00
C833   C     0.14400   0.68119   0.74975   0.00000  Uiso   1.00
C834   C     0.16692   0.83429   0.83617   0.00000  Uiso   1.00
C835   C     0.16642   0.83238   0.66383   0.00000  Uiso   1.00
C836   C     0.14482   0.78646   0.59250   0.00000  Uiso   1.00
F837   F     0.20510   0.91765   0.62040   0.00000  Uiso   1.00
F838   F     0.12823   0.74902   0.87960   0.00000  Uiso   1.00
F839   F     0.21779   0.96758   0.55156   0.00000  Uiso   1.00
F840   F     0.11554   0.69909   0.94844   0.00000  Uiso   1.00
F841   F     0.21355   0.97239   0.96387   0.00000  Uiso   1.00
F842   F     0.11978   0.69428   0.53613   0.00000  Uiso   1.00
F843   F     0.24352   0.67216   0.75349   0.00000  Uiso   1.00
F844   F     0.08982   0.99450   0.74651   0.00000  Uiso   1.00
H845   H     0.14290   0.72776   0.64488   0.00000  Uiso   1.00
H846   H     0.19044   0.93891   0.85512   0.00000  Uiso   1.00
H847   H     0.04924   0.77381   0.70007   0.00000  Uiso   1.00
H848   H     0.28409   0.89286   0.79993   0.00000  Uiso   1.00
N849   N     0.31678   0.81932   0.73783   0.00000  Uiso   1.00
N850   N     0.01656   0.84735   0.76217   0.00000  Uiso   1.00
O851   O     0.12975   0.91286   0.75298   0.00000  Uiso   1.00
O852   O     0.26082   0.94326   0.88715   0.00000  Uiso   1.00
O853   O     0.30594   0.75455   0.68351   0.00000  Uiso   1.00
O854   O     0.02740   0.91212   0.81649   0.00000  Uiso   1.00
O855   O     0.20358   0.75381   0.74701   0.00000  Uiso   1.00
O856   O     0.22613   0.90387   0.74518   0.00000  Uiso   1.00
O857   O     0.10720   0.76279   0.75481   0.00000  Uiso   1.00
O858   O     0.11847   0.83784   0.81997   0.00000  Uiso   1.00
O859   O     0.21486   0.82883   0.68002   0.00000  Uiso   1.00
O860   O     0.21485   0.82885   0.81217   0.00000  Uiso   1.00
O861   O     0.11848   0.83781   0.68782   0.00000  Uiso   1.00
O862   O     0.07251   0.72341   0.61285   0.00000  Uiso   1.00
Zn863  Zn    0.10231   0.83933   0.75521   0.00000  Uiso   1.00
Zn864  Zn    0.23102   0.82734   0.74479   0.00000  Uiso   1.00
C865   C     0.51483   0.93124   0.74899   0.00000  Uiso   1.00
C866   C     0.52185   0.88020   0.90750   0.00000  Uiso   1.00
C867   C     0.49943   0.83095   0.61610   0.00000  Uiso   1.00
C868   C     0.50057   0.83571   0.88390   0.00000  Uiso   1.00
C869   C     0.51938   0.87564   0.59504   0.00000  Uiso   1.00
C870   C     0.48062   0.79102   0.90496   0.00000  Uiso   1.00
C871   C     0.51830   0.87747   0.54882   0.00000  Uiso   1.00
C872   C     0.48170   0.78919   0.95118   0.00000  Uiso   1.00
C873   C     0.49954   0.83260   0.52351   0.00000  Uiso   1.00
C874   C     0.50046   0.83406   0.97649   0.00000  Uiso   1.00
C875   C     0.48025   0.78627   0.54514   0.00000  Uiso   1.00
C876   C     0.48517   0.73543   0.75101   0.00000  Uiso   1.00
C877   C     0.51975   0.88039   0.95486   0.00000  Uiso   1.00
C878   C     0.53511   0.92349   0.52763   0.00000  Uiso   1.00
C879   C     0.46489   0.74318   0.97237   0.00000  Uiso   1.00
C880   C     0.45340   0.74199   0.61855   0.00000  Uiso   1.00
C881   C     0.54660   0.92467   0.88145   0.00000  Uiso   1.00
C882   C     0.33861   0.78098   0.70587   0.00000  Uiso   1.00
C883   C     0.66139   0.88568   0.79413   0.00000  Uiso   1.00
C884   C     0.53473   0.92538   0.98146   0.00000  Uiso   1.00
C885   C     0.46527   0.74129   0.51854   0.00000  Uiso   1.00
C886   C     0.52267   0.98548   0.75025   0.00000  Uiso   1.00
C887   C     0.47733   0.68119   0.74975   0.00000  Uiso   1.00
C888   C     0.50025   0.83429   0.83617   0.00000  Uiso   1.00
C889   C     0.49975   0.83238   0.66383   0.00000  Uiso   1.00
C890   C     0.47815   0.78646   0.59250   0.00000  Uiso   1.00
F891   F     0.53843   0.91765   0.62040   0.00000  Uiso   1.00
F892   F     0.46157   0.74902   0.87960   0.00000  Uiso   1.00
F893   F     0.55112   0.96758   0.55156   0.00000  Uiso   1.00
F894   F     0.44888   0.69909   0.94844   0.00000  Uiso   1.00
F895   F     0.54688   0.97239   0.96387   0.00000  Uiso   1.00
F896   F     0.45312   0.69428   0.53613   0.00000  Uiso   1.00
F897   F     0.57685   0.67216   0.75349   0.00000  Uiso   1.00
F898   F     0.42315   0.99450   0.74651   0.00000  Uiso   1.00
H899   H     0.47623   0.72776   0.64488   0.00000  Uiso   1.00
H900   H     0.52377   0.93891   0.85512   0.00000  Uiso   1.00
H901   H     0.38257   0.77381   0.70007   0.00000  Uiso   1.00
H902   H     0.61743   0.89286   0.79993   0.00000  Uiso   1.00
N903   N     0.65011   0.81932   0.73783   0.00000  Uiso   1.00
N904   N     0.34989   0.84735   0.76217   0.00000  Uiso   1.00
O905   O     0.46308   0.91286   0.75298   0.00000  Uiso   1.00
O906   O     0.59416   0.94326   0.88715   0.00000  Uiso   1.00
O907   O     0.63927   0.75455   0.68351   0.00000  Uiso   1.00
O908   O     0.36073   0.91212   0.81649   0.00000  Uiso   1.00
O909   O     0.53692   0.75381   0.74701   0.00000  Uiso   1.00
O910   O     0.55946   0.90387   0.74518   0.00000  Uiso   1.00
O911   O     0.44054   0.76279   0.75481   0.00000  Uiso   1.00
O912   O     0.45181   0.83784   0.81997   0.00000  Uiso   1.00
O913   O     0.54819   0.82883   0.68002   0.00000  Uiso   1.00
O914   O     0.54819   0.82885   0.81217   0.00000  Uiso   1.00
O915   O     0.45181   0.83781   0.68782   0.00000  Uiso   1.00
O916   O     0.40584   0.72341   0.61285   0.00000  Uiso   1.00
Zn917  Zn    0.43565   0.83933   0.75521   0.00000  Uiso   1.00
Zn918  Zn    0.56435   0.82734   0.74479   0.00000  Uiso   1.00
C919   C     0.84816   0.93124   0.74899   0.00000  Uiso   1.00
C920   C     0.85518   0.88020   0.90750   0.00000  Uiso   1.00
C921   C     0.83277   0.83095   0.61610   0.00000  Uiso   1.00
C922   C     0.83390   0.83571   0.88390   0.00000  Uiso   1.00
C923   C     0.85271   0.87564   0.59504   0.00000  Uiso   1.00
C924   C     0.81396   0.79102   0.90496   0.00000  Uiso   1.00
C925   C     0.85163   0.87747   0.54882   0.00000  Uiso   1.00
C926   C     0.81503   0.78919   0.95118   0.00000  Uiso   1.00
C927   C     0.83288   0.83260   0.52351   0.00000  Uiso   1.00
C928   C     0.83379   0.83406   0.97649   0.00000  Uiso   1.00
C929   C     0.81358   0.78627   0.54514   0.00000  Uiso   1.00
C930   C     0.81851   0.73543   0.75101   0.00000  Uiso   1.00
C931   C     0.85308   0.88039   0.95486   0.00000  Uiso   1.00
C932   C     0.86844   0.92349   0.52763   0.00000  Uiso   1.00
C933   C     0.79822   0.74318   0.97237   0.00000  Uiso   1.00
C934   C     0.78674   0.74199   0.61855   0.00000  Uiso   1.00
C935   C     0.87993   0.92467   0.88145   0.00000  Uiso   1.00
C936   C     0.67194   0.78098   0.70587   0.00000  Uiso   1.00
C937   C     0.99473   0.88568   0.79413   0.00000  Uiso   1.00
C938   C     0.86806   0.92538   0.98146   0.00000  Uiso   1.00
C939   C     0.79861   0.74129   0.51854   0.00000  Uiso   1.00
C940   C     0.85600   0.98548   0.75025   0.00000  Uiso   1.00
C941   C     0.81067   0.68119   0.74975   0.00000  Uiso   1.00
C942   C     0.83358   0.83429   0.83617   0.00000  Uiso   1.00
C943   C     0.83308   0.83238   0.66383   0.00000  Uiso   1.00
C944   C     0.81149   0.78646   0.59250   0.00000  Uiso   1.00
F945   F     0.87177   0.91765   0.62040   0.00000  Uiso   1.00
F946   F     0.79490   0.74902   0.87960   0.00000  Uiso   1.00
F947   F     0.88446   0.96758   0.55156   0.00000  Uiso   1.00
F948   F     0.78221   0.69909   0.94844   0.00000  Uiso   1.00
F949   F     0.88022   0.97239   0.96387   0.00000  Uiso   1.00
F950   F     0.78645   0.69428   0.53613   0.00000  Uiso   1.00
F951   F     0.91018   0.67216   0.75349   0.00000  Uiso   1.00
F952   F     0.75648   0.99450   0.74651   0.00000  Uiso   1.00
H953   H     0.80956   0.72776   0.64488   0.00000  Uiso   1.00
H954   H     0.85710   0.93891   0.85512   0.00000  Uiso   1.00
H955   H     0.71591   0.77381   0.70007   0.00000  Uiso   1.00
H956   H     0.95076   0.89286   0.79993   0.00000  Uiso   1.00
N957   N     0.98344   0.81932   0.73783   0.00000  Uiso   1.00
N958   N     0.68322   0.84735   0.76217   0.00000  Uiso   1.00
O959   O     0.79642   0.91286   0.75298   0.00000  Uiso   1.00
O960   O     0.92749   0.94326   0.88715   0.00000  Uiso   1.00
O961   O     0.97260   0.75455   0.68351   0.00000  Uiso   1.00
O962   O     0.69406   0.91212   0.81649   0.00000  Uiso   1.00
O963   O     0.87025   0.75381   0.74701   0.00000  Uiso   1.00
O964   O     0.89280   0.90387   0.74518   0.00000  Uiso   1.00
O965   O     0.77387   0.76279   0.75481   0.00000  Uiso   1.00
O966   O     0.78514   0.83784   0.81997   0.00000  Uiso   1.00
O967   O     0.88153   0.82883   0.68002   0.00000  Uiso   1.00
O968   O     0.88152   0.82885   0.81217   0.00000  Uiso   1.00
O969   O     0.78515   0.83781   0.68782   0.00000  Uiso   1.00
O970   O     0.73918   0.72341   0.61285   0.00000  Uiso   1.00
Zn971  Zn    0.76898   0.83933   0.75521   0.00000  Uiso   1.00
Zn972  Zn    0.89769   0.82734   0.74479   0.00000  Uiso   1.00
loop_
_geom_bond_atom_site_label_1
_geom_bond_atom_site_label_2
_geom_bond_distance
_geom_bond_site_symmetry_2
_ccdc_geom_bond_type
C1     C22     1.399   .     S
C1     O46     1.296   .     A
C1     O41     1.287   .     A
C2     C4      1.402   .     A
C2     C17     1.488   .     S
C2     C13     1.409   .     A
C3     C26     1.402   .     A
C3     C25     1.423   .     S
C3     C5      1.386   .     A
C4     C6      1.386   .     A
C4     C24     1.423   .     S
C5     C7      1.385   .     A
C5     F27     1.362   .     S
C6     C8      1.385   .     A
C6     F28     1.362   .     S
C7     C9      1.415   .     A
C7     C14     1.400   .     A
C8     C15     1.400   .     A
C8     C10     1.415   .     A
C9     C11     1.426   .     A
C9     C496    1.404   1_554 S
C10    C13     1.426   .     A
C10    C495    1.404   .     S
C11    C26     1.409   .     A
C11    C21     1.412   .     A
C12    C23     1.399   .     S
C12    O47     1.296   .     A
C12    O45     1.287   .     A
C13    C20     1.412   .     A
C14    F29     1.359   .     S
C14    C506    1.382   1_554 S
C15    F30     1.359   .     S
C15    C507    1.382   .     S
C16    C26     1.488   .     S
C16    H35     1.086   .     S
C16    O52     1.221   .     D
C17    H36     1.086   .     S
C17    O42     1.221   .     D
C18    H37     1.064   .     S
C18    N147    1.416   1_455 S
C18    O151    1.219   1_455 S
C19    H38     1.064   .     S
C19    N94     1.416   .     S
C19    O98     1.219   .     S
C20    F31     1.356   .     S
C20    C500    1.382   .     S
C21    F32     1.356   .     S
C21    C501    1.382   1_554 S
C22    C185    1.344   .     S
C22    F195    1.365   .     S
C23    C346    1.344   1_545 S
C23    F358    1.365   1_545 S
C24    O50     1.295   .     A
C24    O48     1.294   .     A
C25    O51     1.295   .     A
C25    O49     1.294   .     A
F33    C346    1.365   1_545 S
F34    C185    1.365   .     S
N39    Zn54    2.043   .     S
N39    C72     1.416   .     S
N39    N94     1.281   .     S
N40    Zn53    2.043   .     S
N40    N147    1.281   1_455 S
N40    C127    1.416   1_455 S
O41    Zn53    1.973   .     S
O43    C72     1.219   .     S
O44    C127    1.219   1_455 S
O45    Zn54    1.973   .     S
O46    Zn54    1.983   .     S
O47    Zn53    1.983   .     S
O48    Zn53    2.006   .     S
O49    Zn54    2.006   .     S
O50    Zn54    2.010   .     S
O51    Zn53    2.010   .     S
C55    C76     1.399   .     S
C55    O100    1.296   .     A
C55    O95     1.287   .     A
C56    C58     1.402   .     A
C56    C71     1.488   .     S
C56    C67     1.409   .     A
C57    C80     1.402   .     A
C57    C79     1.423   .     S
C57    C59     1.386   .     A
C58    C60     1.386   .     A
C58    C78     1.423   .     S
C59    C61     1.385   .     A
C59    F81     1.362   .     S
C60    C62     1.385   .     A
C60    F82     1.362   .     S
C61    C63     1.415   .     A
C61    C68     1.400   .     A
C62    C69     1.400   .     A
C62    C64     1.415   .     A
C63    C65     1.426   .     A
C63    C550    1.404   1_554 S
C64    C67     1.426   .     A
C64    C549    1.404   .     S
C65    C80     1.409   .     A
C65    C75     1.412   .     A
C66    C77     1.399   .     S
C66    O101    1.296   .     A
C66    O99     1.287   .     A
C67    C74     1.412   .     A
C68    F83     1.359   .     S
C68    C560    1.382   1_554 S
C69    F84     1.359   .     S
C69    C561    1.382   .     S
C70    C80     1.488   .     S
C70    H89     1.086   .     S
C70    O106    1.221   .     D
C71    H90     1.086   .     S
C71    O96     1.221   .     D
C72    H91     1.064   .     S
C73    H92     1.064   .     S
C73    N148    1.416   .     S
C73    O152    1.219   .     S
C74    F85     1.356   .     S
C74    C554    1.382   .     S
C75    F86     1.356   .     S
C75    C555    1.382   1_554 S
C76    C239    1.344   .     S
C76    F249    1.365   .     S
C77    C400    1.344   1_545 S
C77    F412    1.365   1_545 S
C78    O104    1.295   .     A
C78    O102    1.294   .     A
C79    O105    1.295   .     A
C79    O103    1.294   .     A
F87    C400    1.365   1_545 S
F88    C239    1.365   .     S
N93    Zn108   2.043   .     S
N93    C126    1.416   .     S
N93    N148    1.281   .     S
N94    Zn107   2.043   .     S
O95    Zn107   1.973   .     S
O97    C126    1.219   .     S
O99    Zn108   1.973   .     S
O100   Zn108   1.983   .     S
O101   Zn107   1.983   .     S
O102   Zn107   2.006   .     S
O103   Zn108   2.006   .     S
O104   Zn108   2.010   .     S
O105   Zn107   2.010   .     S
C109   C130    1.399   .     S
C109   O154    1.296   .     A
C109   O149    1.287   .     A
C110   C112    1.402   .     A
C110   C125    1.488   .     S
C110   C121    1.409   .     A
C111   C134    1.402   .     A
C111   C133    1.423   .     S
C111   C113    1.386   .     A
C112   C114    1.386   .     A
C112   C132    1.423   .     S
C113   C115    1.385   .     A
C113   F135    1.362   .     S
C114   C116    1.385   .     A
C114   F136    1.362   .     S
C115   C117    1.415   .     A
C115   C122    1.400   .     A
C116   C123    1.400   .     A
C116   C118    1.415   .     A
C117   C119    1.426   .     A
C117   C604    1.404   1_554 S
C118   C121    1.426   .     A
C118   C603    1.404   .     S
C119   C134    1.409   .     A
C119   C129    1.412   .     A
C120   C131    1.399   .     S
C120   O155    1.296   .     A
C120   O153    1.287   .     A
C121   C128    1.412   .     A
C122   F137    1.359   .     S
C122   C614    1.382   1_554 S
C123   F138    1.359   .     S
C123   C615    1.382   .     S
C124   C134    1.488   .     S
C124   H143    1.086   .     S
C124   O160    1.221   .     D
C125   H144    1.086   .     S
C125   O150    1.221   .     D
C126   H145    1.064   .     S
C127   H146    1.064   .     S
C127   N40     1.416   1_655 S
C127   O44     1.219   1_655 S
C128   F139    1.356   .     S
C128   C608    1.382   .     S
C129   F140    1.356   .     S
C129   C609    1.382   1_554 S
C130   C293    1.344   .     S
C130   F303    1.365   .     S
C131   C454    1.344   1_545 S
C131   F466    1.365   1_545 S
C132   O158    1.295   .     A
C132   O156    1.294   .     A
C133   O159    1.295   .     A
C133   O157    1.294   .     A
F141   C454    1.365   1_545 S
F142   C293    1.365   .     S
N147   Zn162   2.043   .     S
N147   C18     1.416   1_655 S
N147   N40     1.281   1_655 S
N148   Zn161   2.043   .     S
O149   Zn161   1.973   .     S
O151   C18     1.219   1_655 S
O153   Zn162   1.973   .     S
O154   Zn162   1.983   .     S
O155   Zn161   1.983   .     S
O156   Zn161   2.006   .     S
O157   Zn162   2.006   .     S
O158   Zn162   2.010   .     S
O159   Zn161   2.010   .     S
C163   C184    1.399   .     S
C163   O208    1.296   .     A
C163   O203    1.287   .     A
C164   C166    1.402   .     A
C164   C179    1.488   .     S
C164   C175    1.409   .     A
C165   C188    1.402   .     A
C165   C187    1.423   .     S
C165   C167    1.386   .     A
C166   C168    1.386   .     A
C166   C186    1.423   .     S
C167   C169    1.385   .     A
C167   F189    1.362   .     S
C168   C170    1.385   .     A
C168   F190    1.362   .     S
C169   C171    1.415   .     A
C169   C176    1.400   .     A
C170   C177    1.400   .     A
C170   C172    1.415   .     A
C171   C173    1.426   .     A
C171   C658    1.404   1_554 S
C172   C175    1.426   .     A
C172   C657    1.404   .     S
C173   C188    1.409   .     A
C173   C183    1.412   .     A
C174   C185    1.399   .     S
C174   O209    1.296   .     A
C174   O207    1.287   .     A
C175   C182    1.412   .     A
C176   F191    1.359   .     S
C176   C668    1.382   1_554 S
C177   F192    1.359   .     S
C177   C669    1.382   .     S
C178   C188    1.488   .     S
C178   H197    1.086   .     S
C178   O214    1.221   .     D
C179   H198    1.086   .     S
C179   O204    1.221   .     D
C180   H199    1.064   .     S
C180   N309    1.416   1_455 S
C180   O313    1.219   1_455 S
C181   H200    1.064   .     S
C181   N256    1.416   .     S
C181   O260    1.219   .     S
C182   F193    1.356   .     S
C182   C662    1.382   .     S
C183   F194    1.356   .     S
C183   C663    1.382   1_554 S
C184   C347    1.344   .     S
C184   F357    1.365   .     S
C186   O212    1.295   .     A
C186   O210    1.294   .     A
C187   O213    1.295   .     A
C187   O211    1.294   .     A
F196   C347    1.365   .     S
N201   Zn216   2.043   .     S
N201   C234    1.416   .     S
N201   N256    1.281   .     S
N202   Zn215   2.043   .     S
N202   N309    1.281   1_455 S
N202   C289    1.416   1_455 S
O203   Zn215   1.973   .     S
O205   C234    1.219   .     S
O206   C289    1.219   1_455 S
O207   Zn216   1.973   .     S
O208   Zn216   1.983   .     S
O209   Zn215   1.983   .     S
O210   Zn215   2.006   .     S
O211   Zn216   2.006   .     S
O212   Zn216   2.010   .     S
O213   Zn215   2.010   .     S
C217   C238    1.399   .     S
C217   O262    1.296   .     A
C217   O257    1.287   .     A
C218   C220    1.402   .     A
C218   C233    1.488   .     S
C218   C229    1.409   .     A
C219   C242    1.402   .     A
C219   C241    1.423   .     S
C219   C221    1.386   .     A
C220   C222    1.386   .     A
C220   C240    1.423   .     S
C221   C223    1.385   .     A
C221   F243    1.362   .     S
C222   C224    1.385   .     A
C222   F244    1.362   .     S
C223   C225    1.415   .     A
C223   C230    1.400   .     A
C224   C231    1.400   .     A
C224   C226    1.415   .     A
C225   C227    1.426   .     A
C225   C712    1.404   1_554 S
C226   C229    1.426   .     A
C226   C711    1.404   .     S
C227   C242    1.409   .     A
C227   C237    1.412   .     A
C228   C239    1.399   .     S
C228   O263    1.296   .     A
C228   O261    1.287   .     A
C229   C236    1.412   .     A
C230   F245    1.359   .     S
C230   C722    1.382   1_554 S
C231   F246    1.359   .     S
C231   C723    1.382   .     S
C232   C242    1.488   .     S
C232   H251    1.086   .     S
C232   O268    1.221   .     D
C233   H252    1.086   .     S
C233   O258    1.221   .     D
C234   H253    1.064   .     S
C235   H254    1.064   .     S
C235   N310    1.416   .     S
C235   O314    1.219   .     S
C236   F247    1.356   .     S
C236   C716    1.382   .     S
C237   F248    1.356   .     S
C237   C717    1.382   1_554 S
C238   C401    1.344   .     S
C238   F411    1.365   .     S
C240   O266    1.295   .     A
C240   O264    1.294   .     A
C241   O267    1.295   .     A
C241   O265    1.294   .     A
F250   C401    1.365   .     S
N255   Zn270   2.043   .     S
N255   C288    1.416   .     S
N255   N310    1.281   .     S
N256   Zn269   2.043   .     S
O257   Zn269   1.973   .     S
O259   C288    1.219   .     S
O261   Zn270   1.973   .     S
O262   Zn270   1.983   .     S
O263   Zn269   1.983   .     S
O264   Zn269   2.006   .     S
O265   Zn270   2.006   .     S
O266   Zn270   2.010   .     S
O267   Zn269   2.010   .     S
C271   C292    1.399   .     S
C271   O316    1.296   .     A
C271   O311    1.287   .     A
C272   C274    1.402   .     A
C272   C287    1.488   .     S
C272   C283    1.409   .     A
C273   C296    1.402   .     A
C273   C295    1.423   .     S
C273   C275    1.386   .     A
C274   C276    1.386   .     A
C274   C294    1.423   .     S
C275   C277    1.385   .     A
C275   F297    1.362   .     S
C276   C278    1.385   .     A
C276   F298    1.362   .     S
C277   C279    1.415   .     A
C277   C284    1.400   .     A
C278   C285    1.400   .     A
C278   C280    1.415   .     A
C279   C281    1.426   .     A
C279   C766    1.404   1_554 S
C280   C283    1.426   .     A
C280   C765    1.404   .     S
C281   C296    1.409   .     A
C281   C291    1.412   .     A
C282   C293    1.399   .     S
C282   O317    1.296   .     A
C282   O315    1.287   .     A
C283   C290    1.412   .     A
C284   F299    1.359   .     S
C284   C776    1.382   1_554 S
C285   F300    1.359   .     S
C285   C777    1.382   .     S
C286   C296    1.488   .     S
C286   H305    1.086   .     S
C286   O322    1.221   .     D
C287   H306    1.086   .     S
C287   O312    1.221   .     D
C288   H307    1.064   .     S
C289   H308    1.064   .     S
C289   N202    1.416   1_655 S
C289   O206    1.219   1_655 S
C290   F301    1.356   .     S
C290   C770    1.382   .     S
C291   F302    1.356   .     S
C291   C771    1.382   1_554 S
C292   C455    1.344   .     S
C292   F465    1.365   .     S
C294   O320    1.295   .     A
C294   O318    1.294   .     A
C295   O321    1.295   .     A
C295   O319    1.294   .     A
F304   C455    1.365   .     S
N309   Zn324   2.043   .     S
N309   C180    1.416   1_655 S
N309   N202    1.281   1_655 S
N310   Zn323   2.043   .     S
O311   Zn323   1.973   .     S
O313   C180    1.219   1_655 S
O315   Zn324   1.973   .     S
O316   Zn324   1.983   .     S
O317   Zn323   1.983   .     S
O318   Zn323   2.006   .     S
O319   Zn324   2.006   .     S
O320   Zn324   2.010   .     S
O321   Zn323   2.010   .     S
C325   C346    1.399   .     S
C325   O370    1.296   .     A
C325   O365    1.287   .     A
C326   C328    1.402   .     A
C326   C341    1.488   .     S
C326   C337    1.409   .     A
C327   C350    1.402   .     A
C327   C349    1.423   .     S
C327   C329    1.386   .     A
C328   C330    1.386   .     A
C328   C348    1.423   .     S
C329   C331    1.385   .     A
C329   F351    1.362   .     S
C330   C332    1.385   .     A
C330   F352    1.362   .     S
C331   C333    1.415   .     A
C331   C338    1.400   .     A
C332   C339    1.400   .     A
C332   C334    1.415   .     A
C333   C335    1.426   .     A
C333   C820    1.404   1_554 S
C334   C337    1.426   .     A
C334   C819    1.404   .     S
C335   C350    1.409   .     A
C335   C345    1.412   .     A
C336   C347    1.399   .     S
C336   O371    1.296   .     A
C336   O369    1.287   .     A
C337   C344    1.412   .     A
C338   F353    1.359   .     S
C338   C830    1.382   1_554 S
C339   F354    1.359   .     S
C339   C831    1.382   .     S
C340   C350    1.488   .     S
C340   H359    1.086   .     S
C340   O376    1.221   .     D
C341   H360    1.086   .     S
C341   O366    1.221   .     D
C342   H361    1.064   .     S
C342   N471    1.416   1_455 S
C342   O475    1.219   1_455 S
C343   H362    1.064   .     S
C343   N418    1.416   .     S
C343   O422    1.219   .     S
C344   F355    1.356   .     S
C344   C824    1.382   .     S
C345   F356    1.356   .     S
C345   C825    1.382   1_554 S
C346   C23     1.344   1_565 S
C346   F33     1.365   1_565 S
C348   O374    1.295   .     A
C348   O372    1.294   .     A
C349   O375    1.295   .     A
C349   O373    1.294   .     A
F358   C23     1.365   1_565 S
N363   Zn378   2.043   .     S
N363   C396    1.416   .     S
N363   N418    1.281   .     S
N364   Zn377   2.043   .     S
N364   N471    1.281   1_455 S
N364   C451    1.416   1_455 S
O365   Zn377   1.973   .     S
O367   C396    1.219   .     S
O368   C451    1.219   1_455 S
O369   Zn378   1.973   .     S
O370   Zn378   1.983   .     S
O371   Zn377   1.983   .     S
O372   Zn377   2.006   .     S
O373   Zn378   2.006   .     S
O374   Zn378   2.010   .     S
O375   Zn377   2.010   .     S
C379   C400    1.399   .     S
C379   O424    1.296   .     A
C379   O419    1.287   .     A
C380   C382    1.402   .     A
C380   C395    1.488   .     S
C380   C391    1.409   .     A
C381   C404    1.402   .     A
C381   C403    1.423   .     S
C381   C383    1.386   .     A
C382   C384    1.386   .     A
C382   C402    1.423   .     S
C383   C385    1.385   .     A
C383   F405    1.362   .     S
C384   C386    1.385   .     A
C384   F406    1.362   .     S
C385   C387    1.415   .     A
C385   C392    1.400   .     A
C386   C393    1.400   .     A
C386   C388    1.415   .     A
C387   C389    1.426   .     A
C387   C874    1.404   1_554 S
C388   C391    1.426   .     A
C388   C873    1.404   .     S
C389   C404    1.409   .     A
C389   C399    1.412   .     A
C390   C401    1.399   .     S
C390   O425    1.296   .     A
C390   O423    1.287   .     A
C391   C398    1.412   .     A
C392   F407    1.359   .     S
C392   C884    1.382   1_554 S
C393   F408    1.359   .     S
C393   C885    1.382   .     S
C394   C404    1.488   .     S
C394   H413    1.086   .     S
C394   O430    1.221   .     D
C395   H414    1.086   .     S
C395   O420    1.221   .     D
C396   H415    1.064   .     S
C397   H416    1.064   .     S
C397   N472    1.416   .     S
C397   O476    1.219   .     S
C398   F409    1.356   .     S
C398   C878    1.382   .     S
C399   F410    1.356   .     S
C399   C879    1.382   1_554 S
C400   C77     1.344   1_565 S
C400   F87     1.365   1_565 S
C402   O428    1.295   .     A
C402   O426    1.294   .     A
C403   O429    1.295   .     A
C403   O427    1.294   .     A
F412   C77     1.365   1_565 S
N417   Zn432   2.043   .     S
N417   C450    1.416   .     S
N417   N472    1.281   .     S
N418   Zn431   2.043   .     S
O419   Zn431   1.973   .     S
O421   C450    1.219   .     S
O423   Zn432   1.973   .     S
O424   Zn432   1.983   .     S
O425   Zn431   1.983   .     S
O426   Zn431   2.006   .     S
O427   Zn432   2.006   .     S
O428   Zn432   2.010   .     S
O429   Zn431   2.010   .     S
C433   C454    1.399   .     S
C433   O478    1.296   .     A
C433   O473    1.287   .     A
C434   C436    1.402   .     A
C434   C449    1.488   .     S
C434   C445    1.409   .     A
C435   C458    1.402   .     A
C435   C457    1.423   .     S
C435   C437    1.386   .     A
C436   C438    1.386   .     A
C436   C456    1.423   .     S
C437   C439    1.385   .     A
C437   F459    1.362   .     S
C438   C440    1.385   .     A
C438   F460    1.362   .     S
C439   C441    1.415   .     A
C439   C446    1.400   .     A
C440   C447    1.400   .     A
C440   C442    1.415   .     A
C441   C443    1.426   .     A
C441   C928    1.404   1_554 S
C442   C445    1.426   .     A
C442   C927    1.404   .     S
C443   C458    1.409   .     A
C443   C453    1.412   .     A
C444   C455    1.399   .     S
C444   O479    1.296   .     A
C444   O477    1.287   .     A
C445   C452    1.412   .     A
C446   F461    1.359   .     S
C446   C938    1.382   1_554 S
C447   F462    1.359   .     S
C447   C939    1.382   .     S
C448   C458    1.488   .     S
C448   H467    1.086   .     S
C448   O484    1.221   .     D
C449   H468    1.086   .     S
C449   O474    1.221   .     D
C450   H469    1.064   .     S
C451   H470    1.064   .     S
C451   N364    1.416   1_655 S
C451   O368    1.219   1_655 S
C452   F463    1.356   .     S
C452   C932    1.382   .     S
C453   F464    1.356   .     S
C453   C933    1.382   1_554 S
C454   C131    1.344   1_565 S
C454   F141    1.365   1_565 S
C456   O482    1.295   .     A
C456   O480    1.294   .     A
C457   O483    1.295   .     A
C457   O481    1.294   .     A
F466   C131    1.365   1_565 S
N471   Zn486   2.043   .     S
N471   C342    1.416   1_655 S
N471   N364    1.281   1_655 S
N472   Zn485   2.043   .     S
O473   Zn485   1.973   .     S
O475   C342    1.219   1_655 S
O477   Zn486   1.973   .     S
O478   Zn486   1.983   .     S
O479   Zn485   1.983   .     S
O480   Zn485   2.006   .     S
O481   Zn486   2.006   .     S
O482   Zn486   2.010   .     S
O483   Zn485   2.010   .     S
C487   C508    1.399   .     S
C487   O532    1.296   .     A
C487   O527    1.287   .     A
C488   C490    1.402   .     A
C488   C503    1.488   .     S
C488   C499    1.409   .     A
C489   C512    1.402   .     A
C489   C511    1.423   .     S
C489   C491    1.386   .     A
C490   C492    1.386   .     A
C490   C510    1.423   .     S
C491   C493    1.385   .     A
C491   F513    1.362   .     S
C492   C494    1.385   .     A
C492   F514    1.362   .     S
C493   C495    1.415   .     A
C493   C500    1.400   .     A
C494   C501    1.400   .     A
C494   C496    1.415   .     A
C495   C497    1.426   .     A
C496   C499    1.426   .     A
C496   C9      1.404   1_556 S
C497   C512    1.409   .     A
C497   C507    1.412   .     A
C498   C509    1.399   .     S
C498   O533    1.296   .     A
C498   O531    1.287   .     A
C499   C506    1.412   .     A
C500   F515    1.359   .     S
C501   F516    1.359   .     S
C501   C21     1.382   1_556 S
C502   C512    1.488   .     S
C502   H521    1.086   .     S
C502   O538    1.221   .     D
C503   H522    1.086   .     S
C503   O528    1.221   .     D
C504   H523    1.064   .     S
C504   N633    1.416   1_455 S
C504   O637    1.219   1_455 S
C505   H524    1.064   .     S
C505   N580    1.416   .     S
C505   O584    1.219   .     S
C506   F517    1.356   .     S
C506   C14     1.382   1_556 S
C507   F518    1.356   .     S
C508   C671    1.344   .     S
C508   F681    1.365   .     S
C509   C832    1.344   1_545 S
C509   F844    1.365   1_545 S
C510   O536    1.295   .     A
C510   O534    1.294   .     A
C511   O537    1.295   .     A
C511   O535    1.294   .     A
F519   C832    1.365   1_545 S
F520   C671    1.365   .     S
N525   Zn540   2.043   .     S
N525   C558    1.416   .     S
N525   N580    1.281   .     S
N526   Zn539   2.043   .     S
N526   N633    1.281   1_455 S
N526   C613    1.416   1_455 S
O527   Zn539   1.973   .     S
O529   C558    1.219   .     S
O530   C613    1.219   1_455 S
O531   Zn540   1.973   .     S
O532   Zn540   1.983   .     S
O533   Zn539   1.983   .     S
O534   Zn539   2.006   .     S
O535   Zn540   2.006   .     S
O536   Zn540   2.010   .     S
O537   Zn539   2.010   .     S
C541   C562    1.399   .     S
C541   O586    1.296   .     A
C541   O581    1.287   .     A
C542   C544    1.402   .     A
C542   C557    1.488   .     S
C542   C553    1.409   .     A
C543   C566    1.402   .     A
C543   C565    1.423   .     S
C543   C545    1.386   .     A
C544   C546    1.386   .     A
C544   C564    1.423   .     S
C545   C547    1.385   .     A
C545   F567    1.362   .     S
C546   C548    1.385   .     A
C546   F568    1.362   .     S
C547   C549    1.415   .     A
C547   C554    1.400   .     A
C548   C555    1.400   .     A
C548   C550    1.415   .     A
C549   C551    1.426   .     A
C550   C553    1.426   .     A
C550   C63     1.404   1_556 S
C551   C566    1.409   .     A
C551   C561    1.412   .     A
C552   C563    1.399   .     S
C552   O587    1.296   .     A
C552   O585    1.287   .     A
C553   C560    1.412   .     A
C554   F569    1.359   .     S
C555   F570    1.359   .     S
C555   C75     1.382   1_556 S
C556   C566    1.488   .     S
C556   H575    1.086   .     S
C556   O592    1.221   .     D
C557   H576    1.086   .     S
C557   O582    1.221   .     D
C558   H577    1.064   .     S
C559   H578    1.064   .     S
C559   N634    1.416   .     S
C559   O638    1.219   .     S
C560   F571    1.356   .     S
C560   C68     1.382   1_556 S
C561   F572    1.356   .     S
C562   C725    1.344   .     S
C562   F735    1.365   .     S
C563   C886    1.344   1_545 S
C563   F898    1.365   1_545 S
C564   O590    1.295   .     A
C564   O588    1.294   .     A
C565   O591    1.295   .     A
C565   O589    1.294   .     A
F573   C886    1.365   1_545 S
F574   C725    1.365   .     S
N579   Zn594   2.043   .     S
N579   C612    1.416   .     S
N579   N634    1.281   .     S
N580   Zn593   2.043   .     S
O581   Zn593   1.973   .     S
O583   C612    1.219   .     S
O585   Zn594   1.973   .     S
O586   Zn594   1.983   .     S
O587   Zn593   1.983   .     S
O588   Zn593   2.006   .     S
O589   Zn594   2.006   .     S
O590   Zn594   2.010   .     S
O591   Zn593   2.010   .     S
C595   C616    1.399   .     S
C595   O640    1.296   .     A
C595   O635    1.287   .     A
C596   C598    1.402   .     A
C596   C611    1.488   .     S
C596   C607    1.409   .     A
C597   C620    1.402   .     A
C597   C619    1.423   .     S
C597   C599    1.386   .     A
C598   C600    1.386   .     A
C598   C618    1.423   .     S
C599   C601    1.385   .     A
C599   F621    1.362   .     S
C600   C602    1.385   .     A
C600   F622    1.362   .     S
C601   C603    1.415   .     A
C601   C608    1.400   .     A
C602   C609    1.400   .     A
C602   C604    1.415   .     A
C603   C605    1.426   .     A
C604   C607    1.426   .     A
C604   C117    1.404   1_556 S
C605   C620    1.409   .     A
C605   C615    1.412   .     A
C606   C617    1.399   .     S
C606   O641    1.296   .     A
C606   O639    1.287   .     A
C607   C614    1.412   .     A
C608   F623    1.359   .     S
C609   F624    1.359   .     S
C609   C129    1.382   1_556 S
C610   C620    1.488   .     S
C610   H629    1.086   .     S
C610   O646    1.221   .     D
C611   H630    1.086   .     S
C611   O636    1.221   .     D
C612   H631    1.064   .     S
C613   H632    1.064   .     S
C613   N526    1.416   1_655 S
C613   O530    1.219   1_655 S
C614   F625    1.356   .     S
C614   C122    1.382   1_556 S
C615   F626    1.356   .     S
C616   C779    1.344   .     S
C616   F789    1.365   .     S
C617   C940    1.344   1_545 S
C617   F952    1.365   1_545 S
C618   O644    1.295   .     A
C618   O642    1.294   .     A
C619   O645    1.295   .     A
C619   O643    1.294   .     A
F627   C940    1.365   1_545 S
F628   C779    1.365   .     S
N633   Zn648   2.043   .     S
N633   C504    1.416   1_655 S
N633   N526    1.281   1_655 S
N634   Zn647   2.043   .     S
O635   Zn647   1.973   .     S
O637   C504    1.219   1_655 S
O639   Zn648   1.973   .     S
O640   Zn648   1.983   .     S
O641   Zn647   1.983   .     S
O642   Zn647   2.006   .     S
O643   Zn648   2.006   .     S
O644   Zn648   2.010   .     S
O645   Zn647   2.010   .     S
C649   C670    1.399   .     S
C649   O694    1.296   .     A
C649   O689    1.287   .     A
C650   C652    1.402   .     A
C650   C665    1.488   .     S
C650   C661    1.409   .     A
C651   C674    1.402   .     A
C651   C673    1.423   .     S
C651   C653    1.386   .     A
C652   C654    1.386   .     A
C652   C672    1.423   .     S
C653   C655    1.385   .     A
C653   F675    1.362   .     S
C654   C656    1.385   .     A
C654   F676    1.362   .     S
C655   C657    1.415   .     A
C655   C662    1.400   .     A
C656   C663    1.400   .     A
C656   C658    1.415   .     A
C657   C659    1.426   .     A
C658   C661    1.426   .     A
C658   C171    1.404   1_556 S
C659   C674    1.409   .     A
C659   C669    1.412   .     A
C660   C671    1.399   .     S
C660   O695    1.296   .     A
C660   O693    1.287   .     A
C661   C668    1.412   .     A
C662   F677    1.359   .     S
C663   F678    1.359   .     S
C663   C183    1.382   1_556 S
C664   C674    1.488   .     S
C664   H683    1.086   .     S
C664   O700    1.221   .     D
C665   H684    1.086   .     S
C665   O690    1.221   .     D
C666   H685    1.064   .     S
C666   N795    1.416   1_455 S
C666   O799    1.219   1_455 S
C667   H686    1.064   .     S
C667   N742    1.416   .     S
C667   O746    1.219   .     S
C668   F679    1.356   .     S
C668   C176    1.382   1_556 S
C669   F680    1.356   .     S
C670   C833    1.344   .     S
C670   F843    1.365   .     S
C672   O698    1.295   .     A
C672   O696    1.294   .     A
C673   O699    1.295   .     A
C673   O697    1.294   .     A
F682   C833    1.365   .     S
N687   Zn702   2.043   .     S
N687   C720    1.416   .     S
N687   N742    1.281   .     S
N688   Zn701   2.043   .     S
N688   N795    1.281   1_455 S
N688   C775    1.416   1_455 S
O689   Zn701   1.973   .     S
O691   C720    1.219   .     S
O692   C775    1.219   1_455 S
O693   Zn702   1.973   .     S
O694   Zn702   1.983   .     S
O695   Zn701   1.983   .     S
O696   Zn701   2.006   .     S
O697   Zn702   2.006   .     S
O698   Zn702   2.010   .     S
O699   Zn701   2.010   .     S
C703   C724    1.399   .     S
C703   O748    1.296   .     A
C703   O743    1.287   .     A
C704   C706    1.402   .     A
C704   C719    1.488   .     S
C704   C715    1.409   .     A
C705   C728    1.402   .     A
C705   C727    1.423   .     S
C705   C707    1.386   .     A
C706   C708    1.386   .     A
C706   C726    1.423   .     S
C707   C709    1.385   .     A
C707   F729    1.362   .     S
C708   C710    1.385   .     A
C708   F730    1.362   .     S
C709   C711    1.415   .     A
C709   C716    1.400   .     A
C710   C717    1.400   .     A
C710   C712    1.415   .     A
C711   C713    1.426   .     A
C712   C715    1.426   .     A
C712   C225    1.404   1_556 S
C713   C728    1.409   .     A
C713   C723    1.412   .     A
C714   C725    1.399   .     S
C714   O749    1.296   .     A
C714   O747    1.287   .     A
C715   C722    1.412   .     A
C716   F731    1.359   .     S
C717   F732    1.359   .     S
C717   C237    1.382   1_556 S
C718   C728    1.488   .     S
C718   H737    1.086   .     S
C718   O754    1.221   .     D
C719   H738    1.086   .     S
C719   O744    1.221   .     D
C720   H739    1.064   .     S
C721   H740    1.064   .     S
C721   N796    1.416   .     S
C721   O800    1.219   .     S
C722   F733    1.356   .     S
C722   C230    1.382   1_556 S
C723   F734    1.356   .     S
C724   C887    1.344   .     S
C724   F897    1.365   .     S
C726   O752    1.295   .     A
C726   O750    1.294   .     A
C727   O753    1.295   .     A
C727   O751    1.294   .     A
F736   C887    1.365   .     S
N741   Zn756   2.043   .     S
N741   C774    1.416   .     S
N741   N796    1.281   .     S
N742   Zn755   2.043   .     S
O743   Zn755   1.973   .     S
O745   C774    1.219   .     S
O747   Zn756   1.973   .     S
O748   Zn756   1.983   .     S
O749   Zn755   1.983   .     S
O750   Zn755   2.006   .     S
O751   Zn756   2.006   .     S
O752   Zn756   2.010   .     S
O753   Zn755   2.010   .     S
C757   C778    1.399   .     S
C757   O802    1.296   .     A
C757   O797    1.287   .     A
C758   C760    1.402   .     A
C758   C773    1.488   .     S
C758   C769    1.409   .     A
C759   C782    1.402   .     A
C759   C781    1.423   .     S
C759   C761    1.386   .     A
C760   C762    1.386   .     A
C760   C780    1.423   .     S
C761   C763    1.385   .     A
C761   F783    1.362   .     S
C762   C764    1.385   .     A
C762   F784    1.362   .     S
C763   C765    1.415   .     A
C763   C770    1.400   .     A
C764   C771    1.400   .     A
C764   C766    1.415   .     A
C765   C767    1.426   .     A
C766   C769    1.426   .     A
C766   C279    1.404   1_556 S
C767   C782    1.409   .     A
C767   C777    1.412   .     A
C768   C779    1.399   .     S
C768   O803    1.296   .     A
C768   O801    1.287   .     A
C769   C776    1.412   .     A
C770   F785    1.359   .     S
C771   F786    1.359   .     S
C771   C291    1.382   1_556 S
C772   C782    1.488   .     S
C772   H791    1.086   .     S
C772   O808    1.221   .     D
C773   H792    1.086   .     S
C773   O798    1.221   .     D
C774   H793    1.064   .     S
C775   H794    1.064   .     S
C775   N688    1.416   1_655 S
C775   O692    1.219   1_655 S
C776   F787    1.356   .     S
C776   C284    1.382   1_556 S
C777   F788    1.356   .     S
C778   C941    1.344   .     S
C778   F951    1.365   .     S
C780   O806    1.295   .     A
C780   O804    1.294   .     A
C781   O807    1.295   .     A
C781   O805    1.294   .     A
F790   C941    1.365   .     S
N795   Zn810   2.043   .     S
N795   C666    1.416   1_655 S
N795   N688    1.281   1_655 S
N796   Zn809   2.043   .     S
O797   Zn809   1.973   .     S
O799   C666    1.219   1_655 S
O801   Zn810   1.973   .     S
O802   Zn810   1.983   .     S
O803   Zn809   1.983   .     S
O804   Zn809   2.006   .     S
O805   Zn810   2.006   .     S
O806   Zn810   2.010   .     S
O807   Zn809   2.010   .     S
C811   C832    1.399   .     S
C811   O856    1.296   .     A
C811   O851    1.287   .     A
C812   C814    1.402   .     A
C812   C827    1.488   .     S
C812   C823    1.409   .     A
C813   C836    1.402   .     A
C813   C835    1.423   .     S
C813   C815    1.386   .     A
C814   C816    1.386   .     A
C814   C834    1.423   .     S
C815   C817    1.385   .     A
C815   F837    1.362   .     S
C816   C818    1.385   .     A
C816   F838    1.362   .     S
C817   C819    1.415   .     A
C817   C824    1.400   .     A
C818   C825    1.400   .     A
C818   C820    1.415   .     A
C819   C821    1.426   .     A
C820   C823    1.426   .     A
C820   C333    1.404   1_556 S
C821   C836    1.409   .     A
C821   C831    1.412   .     A
C822   C833    1.399   .     S
C822   O857    1.296   .     A
C822   O855    1.287   .     A
C823   C830    1.412   .     A
C824   F839    1.359   .     S
C825   F840    1.359   .     S
C825   C345    1.382   1_556 S
C826   C836    1.488   .     S
C826   H845    1.086   .     S
C826   O862    1.221   .     D
C827   H846    1.086   .     S
C827   O852    1.221   .     D
C828   H847    1.064   .     S
C828   N957    1.416   1_455 S
C828   O961    1.219   1_455 S
C829   H848    1.064   .     S
C829   N904    1.416   .     S
C829   O908    1.219   .     S
C830   F841    1.356   .     S
C830   C338    1.382   1_556 S
C831   F842    1.356   .     S
C832   C509    1.344   1_565 S
C832   F519    1.365   1_565 S
C834   O860    1.295   .     A
C834   O858    1.294   .     A
C835   O861    1.295   .     A
C835   O859    1.294   .     A
F844   C509    1.365   1_565 S
N849   Zn864   2.043   .     S
N849   C882    1.416   .     S
N849   N904    1.281   .     S
N850   Zn863   2.043   .     S
N850   N957    1.281   1_455 S
N850   C937    1.416   1_455 S
O851   Zn863   1.973   .     S
O853   C882    1.219   .     S
O854   C937    1.219   1_455 S
O855   Zn864   1.973   .     S
O856   Zn864   1.983   .     S
O857   Zn863   1.983   .     S
O858   Zn863   2.006   .     S
O859   Zn864   2.006   .     S
O860   Zn864   2.010   .     S
O861   Zn863   2.010   .     S
C865   C886    1.399   .     S
C865   O910    1.296   .     A
C865   O905    1.287   .     A
C866   C868    1.402   .     A
C866   C881    1.488   .     S
C866   C877    1.409   .     A
C867   C890    1.402   .     A
C867   C889    1.423   .     S
C867   C869    1.386   .     A
C868   C870    1.386   .     A
C868   C888    1.423   .     S
C869   C871    1.385   .     A
C869   F891    1.362   .     S
C870   C872    1.385   .     A
C870   F892    1.362   .     S
C871   C873    1.415   .     A
C871   C878    1.400   .     A
C872   C879    1.400   .     A
C872   C874    1.415   .     A
C873   C875    1.426   .     A
C874   C877    1.426   .     A
C874   C387    1.404   1_556 S
C875   C890    1.409   .     A
C875   C885    1.412   .     A
C876   C887    1.399   .     S
C876   O911    1.296   .     A
C876   O909    1.287   .     A
C877   C884    1.412   .     A
C878   F893    1.359   .     S
C879   F894    1.359   .     S
C879   C399    1.382   1_556 S
C880   C890    1.488   .     S
C880   H899    1.086   .     S
C880   O916    1.221   .     D
C881   H900    1.086   .     S
C881   O906    1.221   .     D
C882   H901    1.064   .     S
C883   H902    1.064   .     S
C883   N958    1.416   .     S
C883   O962    1.219   .     S
C884   F895    1.356   .     S
C884   C392    1.382   1_556 S
C885   F896    1.356   .     S
C886   C563    1.344   1_565 S
C886   F573    1.365   1_565 S
C888   O914    1.295   .     A
C888   O912    1.294   .     A
C889   O915    1.295   .     A
C889   O913    1.294   .     A
F898   C563    1.365   1_565 S
N903   Zn918   2.043   .     S
N903   C936    1.416   .     S
N903   N958    1.281   .     S
N904   Zn917   2.043   .     S
O905   Zn917   1.973   .     S
O907   C936    1.219   .     S
O909   Zn918   1.973   .     S
O910   Zn918   1.983   .     S
O911   Zn917   1.983   .     S
O912   Zn917   2.006   .     S
O913   Zn918   2.006   .     S
O914   Zn918   2.010   .     S
O915   Zn917   2.010   .     S
C919   C940    1.399   .     S
C919   O964    1.296   .     A
C919   O959    1.287   .     A
C920   C922    1.402   .     A
C920   C935    1.488   .     S
C920   C931    1.409   .     A
C921   C944    1.402   .     A
C921   C943    1.423   .     S
C921   C923    1.386   .     A
C922   C924    1.386   .     A
C922   C942    1.423   .     S
C923   C925    1.385   .     A
C923   F945    1.362   .     S
C924   C926    1.385   .     A
C924   F946    1.362   .     S
C925   C927    1.415   .     A
C925   C932    1.400   .     A
C926   C933    1.400   .     A
C926   C928    1.415   .     A
C927   C929    1.426   .     A
C928   C931    1.426   .     A
C928   C441    1.404   1_556 S
C929   C944    1.409   .     A
C929   C939    1.412   .     A
C930   C941    1.399   .     S
C930   O965    1.296   .     A
C930   O963    1.287   .     A
C931   C938    1.412   .     A
C932   F947    1.359   .     S
C933   F948    1.359   .     S
C933   C453    1.382   1_556 S
C934   C944    1.488   .     S
C934   H953    1.086   .     S
C934   O970    1.221   .     D
C935   H954    1.086   .     S
C935   O960    1.221   .     D
C936   H955    1.064   .     S
C937   H956    1.064   .     S
C937   N850    1.416   1_655 S
C937   O854    1.219   1_655 S
C938   F949    1.356   .     S
C938   C446    1.382   1_556 S
C939   F950    1.356   .     S
C940   C617    1.344   1_565 S
C940   F627    1.365   1_565 S
C942   O968    1.295   .     A
C942   O966    1.294   .     A
C943   O969    1.295   .     A
C943   O967    1.294   .     A
F952   C617    1.365   1_565 S
N957   Zn972   2.043   .     S
N957   C828    1.416   1_655 S
N957   N850    1.281   1_655 S
N958   Zn971   2.043   .     S
O959   Zn971   1.973   .     S
O961   C828    1.219   1_655 S
O963   Zn972   1.973   .     S
O964   Zn972   1.983   .     S
O965   Zn971   1.983   .     S
O966   Zn971   2.006   .     S
O967   Zn972   2.006   .     S
O968   Zn972   2.010   .     S
O969   Zn971   2.010   .     S
