data_str_m2_o1_o16_pcu_sym.103
_audit_creation_date              2020-01-03
_audit_creation_method            'Materials Studio'
_symmetry_space_group_name_H-M    'P1'
_symmetry_Int_Tables_number       1
_symmetry_cell_setting            triclinic
loop_
_symmetry_equiv_pos_as_xyz
  x,y,z
_cell_length_a                    28.6863
_cell_length_b                    32.3766
_cell_length_c                    26.8326
_cell_angle_alpha                 90.8543
_cell_angle_beta                  71.8983
_cell_angle_gamma                 89.1779
loop_
_atom_site_label
_atom_site_type_symbol
_atom_site_fract_x
_atom_site_fract_y
_atom_site_fract_z
_atom_site_U_iso_or_equiv
_atom_site_adp_type
_atom_site_occupancy
C1     C     0.16653   0.24587   0.24997   0.00000  Uiso   1.00
C2     C     0.12443   0.16165   0.40792   0.00000  Uiso   1.00
C3     C     0.20859   0.31004   0.21704   0.00000  Uiso   1.00
C4     C     0.14037   0.16425   0.35013   0.00000  Uiso   1.00
C5     C     0.20947   0.01967   0.21444   0.00000  Uiso   1.00
C6     C     0.16835   0.04271   0.24625   0.00000  Uiso   1.00
C7     C     0.12717   0.02263   0.27814   0.00000  Uiso   1.00
C8     C     0.12662   0.31331   0.27933   0.00000  Uiso   1.00
C9     C     0.16706   0.29040   0.24871   0.00000  Uiso   1.00
C10    C     0.29959   0.19638   0.27656   0.00000  Uiso   1.00
C11    C     0.01544   0.19695   0.27674   0.00000  Uiso   1.00
C12    C     0.14548   0.15910   0.48964   0.00000  Uiso   1.00
C13    C     0.03314   0.13688   0.22301   0.00000  Uiso   1.00
C14    C     0.31700   0.13696   0.22294   0.00000  Uiso   1.00
C15    C     0.16742   0.08744   0.24831   0.00000  Uiso   1.00
C16    C     0.19312   0.16599   0.14981   0.00000  Uiso   1.00
C17    C     0.26450   0.13102   0.01271   0.00000  Uiso   1.00
C18    C     0.20858   0.16034   0.09264   0.00000  Uiso   1.00
C19    C     0.07683   0.17526   0.43631   0.00000  Uiso   1.00
C20    C     0.06277   0.17931   0.49048   0.00000  Uiso   1.00
C21    C     0.09670   0.17226   0.01696   0.00000  Uiso   1.00
C22    C     0.25236   0.03876   0.17621   0.00000  Uiso   1.00
C23    C     0.15746   0.14963   0.43543   0.00000  Uiso   1.00
C24    C     0.02697   0.23225   0.30604   0.00000  Uiso   1.00
C25    C     0.28512   0.10274   0.40230   0.00000  Uiso   1.00
C26    C     0.18238   0.15441   0.01455   0.00000  Uiso   1.00
C27    C     0.22903   0.13635   0.48659   0.00000  Uiso   1.00
C28    C     0.23800   0.12239   0.43425   0.00000  Uiso   1.00
C29    C     0.20167   0.12795   0.41029   0.00000  Uiso   1.00
C30    C     0.17413   0.16767   0.06669   0.00000  Uiso   1.00
C31    C     0.25428   0.14286   0.06518   0.00000  Uiso   1.00
Cu32   Cu    0.11978   0.16666   0.25000   0.00000  Uiso   1.00
Cu33   Cu    0.21355   0.16667   0.25000   0.00000  Uiso   1.00
H34    H     0.28138   0.13672   0.08479   0.00000  Uiso   1.00
H35    H     0.02569   0.18932   0.01201   0.00000  Uiso   1.00
H36    H     0.20847   0.11460   0.37146   0.00000  Uiso   1.00
H37    H     0.23948   0.29166   0.19284   0.00000  Uiso   1.00
H38    H     0.32514   0.03591   0.13843   0.00000  Uiso   1.00
H39    H     0.27340   0.21976   0.29814   0.00000  Uiso   1.00
H40    H     0.01240   0.29251   0.32703   0.00000  Uiso   1.00
H41    H     0.02562   0.10539   0.37528   0.00000  Uiso   1.00
H42    H     0.09576   0.04003   0.30302   0.00000  Uiso   1.00
H43    H     0.09545   0.29822   0.30537   0.00000  Uiso   1.00
H44    H     0.05836   0.11303   0.20120   0.00000  Uiso   1.00
H45    H     0.30526   0.11317   0.20108   0.00000  Uiso   1.00
H46    H     0.29966   0.11619   0.49382   0.00000  Uiso   1.00
H47    H     0.14073   0.18368   0.08855   0.00000  Uiso   1.00
H48    H     0.05049   0.18360   0.41667   0.00000  Uiso   1.00
H49    H     0.08304   0.17632   0.05895   0.00000  Uiso   1.00
N50    N     0.04931   0.16666   0.24998   0.00000  Uiso   1.00
N51    N     0.28402   0.16669   0.24999   0.00000  Uiso   1.00
O52    O     0.12708   0.22678   0.25000   0.00000  Uiso   1.00
O53    O     0.29891   0.02029   0.16538   0.00000  Uiso   1.00
O54    O     0.04828   0.22715   0.33833   0.00000  Uiso   1.00
O55    O     0.00815   0.27145   0.30054   0.00000  Uiso   1.00
O56    O     0.28485   0.07126   0.37662   0.00000  Uiso   1.00
O57    O     0.32959   0.12128   0.39922   0.00000  Uiso   1.00
O58    O     0.20627   0.22679   0.25000   0.00000  Uiso   1.00
O59    O     0.10775   0.16665   0.32549   0.00000  Uiso   1.00
O60    O     0.18694   0.16666   0.32549   0.00000  Uiso   1.00
O61    O     0.12706   0.10654   0.24999   0.00000  Uiso   1.00
O62    O     0.20625   0.10655   0.24999   0.00000  Uiso   1.00
O63    O     0.14640   0.16667   0.17451   0.00000  Uiso   1.00
O64    O     0.22559   0.16668   0.17451   0.00000  Uiso   1.00
O65    O     0.24695   0.06969   0.15285   0.00000  Uiso   1.00
C66    C     0.49986   0.24587   0.24997   0.00000  Uiso   1.00
C67    C     0.45776   0.16165   0.40792   0.00000  Uiso   1.00
C68    C     0.54193   0.31004   0.21704   0.00000  Uiso   1.00
C69    C     0.47370   0.16425   0.35013   0.00000  Uiso   1.00
C70    C     0.54280   0.01967   0.21444   0.00000  Uiso   1.00
C71    C     0.50168   0.04271   0.24625   0.00000  Uiso   1.00
C72    C     0.46050   0.02263   0.27814   0.00000  Uiso   1.00
C73    C     0.45995   0.31331   0.27933   0.00000  Uiso   1.00
C74    C     0.50039   0.29040   0.24871   0.00000  Uiso   1.00
C75    C     0.63293   0.19638   0.27656   0.00000  Uiso   1.00
C76    C     0.34878   0.19695   0.27674   0.00000  Uiso   1.00
C77    C     0.47882   0.15910   0.48964   0.00000  Uiso   1.00
C78    C     0.36647   0.13688   0.22301   0.00000  Uiso   1.00
C79    C     0.65033   0.13696   0.22294   0.00000  Uiso   1.00
C80    C     0.50075   0.08744   0.24831   0.00000  Uiso   1.00
C81    C     0.52645   0.16599   0.14981   0.00000  Uiso   1.00
C82    C     0.59783   0.13102   0.01271   0.00000  Uiso   1.00
C83    C     0.54191   0.16034   0.09264   0.00000  Uiso   1.00
C84    C     0.41016   0.17526   0.43631   0.00000  Uiso   1.00
C85    C     0.39610   0.17931   0.49048   0.00000  Uiso   1.00
C86    C     0.43003   0.17226   0.01696   0.00000  Uiso   1.00
C87    C     0.58569   0.03876   0.17621   0.00000  Uiso   1.00
C88    C     0.49079   0.14963   0.43543   0.00000  Uiso   1.00
C89    C     0.36030   0.23225   0.30604   0.00000  Uiso   1.00
C90    C     0.61845   0.10274   0.40230   0.00000  Uiso   1.00
C91    C     0.51571   0.15441   0.01455   0.00000  Uiso   1.00
C92    C     0.56237   0.13635   0.48659   0.00000  Uiso   1.00
C93    C     0.57133   0.12239   0.43425   0.00000  Uiso   1.00
C94    C     0.53500   0.12795   0.41029   0.00000  Uiso   1.00
C95    C     0.50747   0.16767   0.06669   0.00000  Uiso   1.00
C96    C     0.58761   0.14286   0.06518   0.00000  Uiso   1.00
Cu97   Cu    0.45311   0.16666   0.25000   0.00000  Uiso   1.00
Cu98   Cu    0.54689   0.16667   0.25000   0.00000  Uiso   1.00
H99    H     0.61471   0.13672   0.08479   0.00000  Uiso   1.00
H100   H     0.35903   0.18932   0.01201   0.00000  Uiso   1.00
H101   H     0.54180   0.11460   0.37146   0.00000  Uiso   1.00
H102   H     0.57281   0.29166   0.19284   0.00000  Uiso   1.00
H103   H     0.65847   0.03591   0.13843   0.00000  Uiso   1.00
H104   H     0.60674   0.21976   0.29814   0.00000  Uiso   1.00
H105   H     0.34574   0.29251   0.32703   0.00000  Uiso   1.00
H106   H     0.35895   0.10539   0.37528   0.00000  Uiso   1.00
H107   H     0.42910   0.04003   0.30302   0.00000  Uiso   1.00
H108   H     0.42878   0.29822   0.30537   0.00000  Uiso   1.00
H109   H     0.39170   0.11303   0.20120   0.00000  Uiso   1.00
H110   H     0.63860   0.11317   0.20108   0.00000  Uiso   1.00
H111   H     0.63299   0.11619   0.49382   0.00000  Uiso   1.00
H112   H     0.47406   0.18368   0.08855   0.00000  Uiso   1.00
H113   H     0.38383   0.18360   0.41667   0.00000  Uiso   1.00
H114   H     0.41637   0.17632   0.05895   0.00000  Uiso   1.00
N115   N     0.38265   0.16666   0.24998   0.00000  Uiso   1.00
N116   N     0.61735   0.16669   0.24999   0.00000  Uiso   1.00
O117   O     0.46042   0.22678   0.25000   0.00000  Uiso   1.00
O118   O     0.63224   0.02029   0.16538   0.00000  Uiso   1.00
O119   O     0.38161   0.22715   0.33833   0.00000  Uiso   1.00
O120   O     0.34148   0.27145   0.30054   0.00000  Uiso   1.00
O121   O     0.61818   0.07126   0.37662   0.00000  Uiso   1.00
O122   O     0.66292   0.12128   0.39922   0.00000  Uiso   1.00
O123   O     0.53961   0.22679   0.25000   0.00000  Uiso   1.00
O124   O     0.44108   0.16665   0.32549   0.00000  Uiso   1.00
O125   O     0.52027   0.16666   0.32549   0.00000  Uiso   1.00
O126   O     0.46039   0.10654   0.24999   0.00000  Uiso   1.00
O127   O     0.53958   0.10655   0.24999   0.00000  Uiso   1.00
O128   O     0.47973   0.16667   0.17451   0.00000  Uiso   1.00
O129   O     0.55892   0.16668   0.17451   0.00000  Uiso   1.00
O130   O     0.58029   0.06969   0.15285   0.00000  Uiso   1.00
C131   C     0.83320   0.24587   0.24997   0.00000  Uiso   1.00
C132   C     0.79110   0.16165   0.40792   0.00000  Uiso   1.00
C133   C     0.87526   0.31004   0.21704   0.00000  Uiso   1.00
C134   C     0.80704   0.16425   0.35013   0.00000  Uiso   1.00
C135   C     0.87613   0.01967   0.21444   0.00000  Uiso   1.00
C136   C     0.83502   0.04271   0.24625   0.00000  Uiso   1.00
C137   C     0.79383   0.02263   0.27814   0.00000  Uiso   1.00
C138   C     0.79328   0.31331   0.27933   0.00000  Uiso   1.00
C139   C     0.83373   0.29040   0.24871   0.00000  Uiso   1.00
C140   C     0.96626   0.19638   0.27656   0.00000  Uiso   1.00
C141   C     0.68211   0.19695   0.27674   0.00000  Uiso   1.00
C142   C     0.81215   0.15910   0.48964   0.00000  Uiso   1.00
C143   C     0.69981   0.13688   0.22301   0.00000  Uiso   1.00
C144   C     0.98367   0.13696   0.22294   0.00000  Uiso   1.00
C145   C     0.83409   0.08744   0.24831   0.00000  Uiso   1.00
C146   C     0.85979   0.16599   0.14981   0.00000  Uiso   1.00
C147   C     0.93116   0.13102   0.01271   0.00000  Uiso   1.00
C148   C     0.87524   0.16034   0.09264   0.00000  Uiso   1.00
C149   C     0.74349   0.17526   0.43631   0.00000  Uiso   1.00
C150   C     0.72944   0.17931   0.49048   0.00000  Uiso   1.00
C151   C     0.76336   0.17226   0.01696   0.00000  Uiso   1.00
C152   C     0.91902   0.03876   0.17621   0.00000  Uiso   1.00
C153   C     0.82413   0.14963   0.43543   0.00000  Uiso   1.00
C154   C     0.69363   0.23225   0.30604   0.00000  Uiso   1.00
C155   C     0.95179   0.10274   0.40230   0.00000  Uiso   1.00
C156   C     0.84904   0.15441   0.01455   0.00000  Uiso   1.00
C157   C     0.89570   0.13635   0.48659   0.00000  Uiso   1.00
C158   C     0.90467   0.12239   0.43425   0.00000  Uiso   1.00
C159   C     0.86833   0.12795   0.41029   0.00000  Uiso   1.00
C160   C     0.84080   0.16767   0.06669   0.00000  Uiso   1.00
C161   C     0.92094   0.14286   0.06518   0.00000  Uiso   1.00
Cu162  Cu    0.78645   0.16666   0.25000   0.00000  Uiso   1.00
Cu163  Cu    0.88022   0.16667   0.25000   0.00000  Uiso   1.00
H164   H     0.94804   0.13672   0.08479   0.00000  Uiso   1.00
H165   H     0.69236   0.18932   0.01201   0.00000  Uiso   1.00
H166   H     0.87513   0.11460   0.37146   0.00000  Uiso   1.00
H167   H     0.90615   0.29166   0.19284   0.00000  Uiso   1.00
H168   H     0.99180   0.03591   0.13843   0.00000  Uiso   1.00
H169   H     0.94007   0.21976   0.29814   0.00000  Uiso   1.00
H170   H     0.67907   0.29251   0.32703   0.00000  Uiso   1.00
H171   H     0.69229   0.10539   0.37528   0.00000  Uiso   1.00
H172   H     0.76243   0.04003   0.30302   0.00000  Uiso   1.00
H173   H     0.76212   0.29822   0.30537   0.00000  Uiso   1.00
H174   H     0.72503   0.11303   0.20120   0.00000  Uiso   1.00
H175   H     0.97193   0.11317   0.20108   0.00000  Uiso   1.00
H176   H     0.96632   0.11619   0.49382   0.00000  Uiso   1.00
H177   H     0.80739   0.18368   0.08855   0.00000  Uiso   1.00
H178   H     0.71716   0.18360   0.41667   0.00000  Uiso   1.00
H179   H     0.74971   0.17632   0.05895   0.00000  Uiso   1.00
N180   N     0.71598   0.16666   0.24998   0.00000  Uiso   1.00
N181   N     0.95069   0.16669   0.24999   0.00000  Uiso   1.00
O182   O     0.79375   0.22678   0.25000   0.00000  Uiso   1.00
O183   O     0.96558   0.02029   0.16538   0.00000  Uiso   1.00
O184   O     0.71494   0.22715   0.33833   0.00000  Uiso   1.00
O185   O     0.67481   0.27145   0.30054   0.00000  Uiso   1.00
O186   O     0.95152   0.07126   0.37662   0.00000  Uiso   1.00
O187   O     0.99626   0.12128   0.39922   0.00000  Uiso   1.00
O188   O     0.87294   0.22679   0.25000   0.00000  Uiso   1.00
O189   O     0.77441   0.16665   0.32549   0.00000  Uiso   1.00
O190   O     0.85360   0.16666   0.32549   0.00000  Uiso   1.00
O191   O     0.79373   0.10654   0.24999   0.00000  Uiso   1.00
O192   O     0.87292   0.10655   0.24999   0.00000  Uiso   1.00
O193   O     0.81306   0.16667   0.17451   0.00000  Uiso   1.00
O194   O     0.89225   0.16668   0.17451   0.00000  Uiso   1.00
O195   O     0.91362   0.06969   0.15285   0.00000  Uiso   1.00
C196   C     0.16653   0.57921   0.24997   0.00000  Uiso   1.00
C197   C     0.12443   0.49498   0.40792   0.00000  Uiso   1.00
C198   C     0.20859   0.64337   0.21704   0.00000  Uiso   1.00
C199   C     0.14037   0.49759   0.35013   0.00000  Uiso   1.00
C200   C     0.20947   0.35300   0.21444   0.00000  Uiso   1.00
C201   C     0.16835   0.37604   0.24625   0.00000  Uiso   1.00
C202   C     0.12717   0.35596   0.27814   0.00000  Uiso   1.00
C203   C     0.12662   0.64664   0.27933   0.00000  Uiso   1.00
C204   C     0.16706   0.62374   0.24871   0.00000  Uiso   1.00
C205   C     0.29959   0.52972   0.27656   0.00000  Uiso   1.00
C206   C     0.01544   0.53028   0.27674   0.00000  Uiso   1.00
C207   C     0.14548   0.49243   0.48964   0.00000  Uiso   1.00
C208   C     0.03314   0.47021   0.22301   0.00000  Uiso   1.00
C209   C     0.31700   0.47029   0.22294   0.00000  Uiso   1.00
C210   C     0.16742   0.42077   0.24831   0.00000  Uiso   1.00
C211   C     0.19312   0.49933   0.14981   0.00000  Uiso   1.00
C212   C     0.26450   0.46435   0.01271   0.00000  Uiso   1.00
C213   C     0.20858   0.49367   0.09264   0.00000  Uiso   1.00
C214   C     0.07683   0.50859   0.43631   0.00000  Uiso   1.00
C215   C     0.06277   0.51265   0.49048   0.00000  Uiso   1.00
C216   C     0.09670   0.50559   0.01696   0.00000  Uiso   1.00
C217   C     0.25236   0.37209   0.17621   0.00000  Uiso   1.00
C218   C     0.15746   0.48297   0.43543   0.00000  Uiso   1.00
C219   C     0.02697   0.56558   0.30604   0.00000  Uiso   1.00
C220   C     0.28512   0.43607   0.40230   0.00000  Uiso   1.00
C221   C     0.18238   0.48774   0.01455   0.00000  Uiso   1.00
C222   C     0.22903   0.46968   0.48659   0.00000  Uiso   1.00
C223   C     0.23800   0.45572   0.43425   0.00000  Uiso   1.00
C224   C     0.20167   0.46128   0.41029   0.00000  Uiso   1.00
C225   C     0.17413   0.50100   0.06669   0.00000  Uiso   1.00
C226   C     0.25428   0.47619   0.06518   0.00000  Uiso   1.00
Cu227  Cu    0.11978   0.49999   0.25000   0.00000  Uiso   1.00
Cu228  Cu    0.21355   0.50001   0.25000   0.00000  Uiso   1.00
H229   H     0.28138   0.47005   0.08479   0.00000  Uiso   1.00
H230   H     0.02569   0.52266   0.01201   0.00000  Uiso   1.00
H231   H     0.20847   0.44793   0.37146   0.00000  Uiso   1.00
H232   H     0.23948   0.62500   0.19284   0.00000  Uiso   1.00
H233   H     0.32514   0.36924   0.13843   0.00000  Uiso   1.00
H234   H     0.27340   0.55310   0.29814   0.00000  Uiso   1.00
H235   H     0.01240   0.62584   0.32703   0.00000  Uiso   1.00
H236   H     0.02562   0.43873   0.37528   0.00000  Uiso   1.00
H237   H     0.09576   0.37337   0.30302   0.00000  Uiso   1.00
H238   H     0.09545   0.63155   0.30537   0.00000  Uiso   1.00
H239   H     0.05836   0.44636   0.20120   0.00000  Uiso   1.00
H240   H     0.30526   0.44650   0.20108   0.00000  Uiso   1.00
H241   H     0.29966   0.44952   0.49382   0.00000  Uiso   1.00
H242   H     0.14073   0.51702   0.08855   0.00000  Uiso   1.00
H243   H     0.05049   0.51694   0.41667   0.00000  Uiso   1.00
H244   H     0.08304   0.50965   0.05895   0.00000  Uiso   1.00
N245   N     0.04931   0.49999   0.24998   0.00000  Uiso   1.00
N246   N     0.28402   0.50002   0.24999   0.00000  Uiso   1.00
O247   O     0.12708   0.56011   0.25000   0.00000  Uiso   1.00
O248   O     0.29891   0.35363   0.16538   0.00000  Uiso   1.00
O249   O     0.04828   0.56048   0.33833   0.00000  Uiso   1.00
O250   O     0.00815   0.60479   0.30054   0.00000  Uiso   1.00
O251   O     0.28485   0.40459   0.37662   0.00000  Uiso   1.00
O252   O     0.32959   0.45461   0.39922   0.00000  Uiso   1.00
O253   O     0.20627   0.56012   0.25000   0.00000  Uiso   1.00
O254   O     0.10775   0.49998   0.32549   0.00000  Uiso   1.00
O255   O     0.18694   0.49999   0.32549   0.00000  Uiso   1.00
O256   O     0.12706   0.43988   0.24999   0.00000  Uiso   1.00
O257   O     0.20625   0.43989   0.24999   0.00000  Uiso   1.00
O258   O     0.14640   0.50001   0.17451   0.00000  Uiso   1.00
O259   O     0.22559   0.50002   0.17451   0.00000  Uiso   1.00
O260   O     0.24695   0.40302   0.15285   0.00000  Uiso   1.00
C261   C     0.49986   0.57921   0.24997   0.00000  Uiso   1.00
C262   C     0.45776   0.49498   0.40792   0.00000  Uiso   1.00
C263   C     0.54193   0.64337   0.21704   0.00000  Uiso   1.00
C264   C     0.47370   0.49759   0.35013   0.00000  Uiso   1.00
C265   C     0.54280   0.35300   0.21444   0.00000  Uiso   1.00
C266   C     0.50168   0.37604   0.24625   0.00000  Uiso   1.00
C267   C     0.46050   0.35596   0.27814   0.00000  Uiso   1.00
C268   C     0.45995   0.64664   0.27933   0.00000  Uiso   1.00
C269   C     0.50039   0.62374   0.24871   0.00000  Uiso   1.00
C270   C     0.63293   0.52972   0.27656   0.00000  Uiso   1.00
C271   C     0.34878   0.53028   0.27674   0.00000  Uiso   1.00
C272   C     0.47882   0.49243   0.48964   0.00000  Uiso   1.00
C273   C     0.36647   0.47021   0.22301   0.00000  Uiso   1.00
C274   C     0.65033   0.47029   0.22294   0.00000  Uiso   1.00
C275   C     0.50075   0.42077   0.24831   0.00000  Uiso   1.00
C276   C     0.52645   0.49933   0.14981   0.00000  Uiso   1.00
C277   C     0.59783   0.46435   0.01271   0.00000  Uiso   1.00
C278   C     0.54191   0.49367   0.09264   0.00000  Uiso   1.00
C279   C     0.41016   0.50859   0.43631   0.00000  Uiso   1.00
C280   C     0.39610   0.51265   0.49048   0.00000  Uiso   1.00
C281   C     0.43003   0.50559   0.01696   0.00000  Uiso   1.00
C282   C     0.58569   0.37209   0.17621   0.00000  Uiso   1.00
C283   C     0.49079   0.48297   0.43543   0.00000  Uiso   1.00
C284   C     0.36030   0.56558   0.30604   0.00000  Uiso   1.00
C285   C     0.61845   0.43607   0.40230   0.00000  Uiso   1.00
C286   C     0.51571   0.48774   0.01455   0.00000  Uiso   1.00
C287   C     0.56237   0.46968   0.48659   0.00000  Uiso   1.00
C288   C     0.57133   0.45572   0.43425   0.00000  Uiso   1.00
C289   C     0.53500   0.46128   0.41029   0.00000  Uiso   1.00
C290   C     0.50747   0.50100   0.06669   0.00000  Uiso   1.00
C291   C     0.58761   0.47619   0.06518   0.00000  Uiso   1.00
Cu292  Cu    0.45311   0.49999   0.25000   0.00000  Uiso   1.00
Cu293  Cu    0.54689   0.50001   0.25000   0.00000  Uiso   1.00
H294   H     0.61471   0.47005   0.08479   0.00000  Uiso   1.00
H295   H     0.35903   0.52266   0.01201   0.00000  Uiso   1.00
H296   H     0.54180   0.44793   0.37146   0.00000  Uiso   1.00
H297   H     0.57281   0.62500   0.19284   0.00000  Uiso   1.00
H298   H     0.65847   0.36924   0.13843   0.00000  Uiso   1.00
H299   H     0.60674   0.55310   0.29814   0.00000  Uiso   1.00
H300   H     0.34574   0.62584   0.32703   0.00000  Uiso   1.00
H301   H     0.35895   0.43873   0.37528   0.00000  Uiso   1.00
H302   H     0.42910   0.37337   0.30302   0.00000  Uiso   1.00
H303   H     0.42878   0.63155   0.30537   0.00000  Uiso   1.00
H304   H     0.39170   0.44636   0.20120   0.00000  Uiso   1.00
H305   H     0.63860   0.44650   0.20108   0.00000  Uiso   1.00
H306   H     0.63299   0.44952   0.49382   0.00000  Uiso   1.00
H307   H     0.47406   0.51702   0.08855   0.00000  Uiso   1.00
H308   H     0.38383   0.51694   0.41667   0.00000  Uiso   1.00
H309   H     0.41637   0.50965   0.05895   0.00000  Uiso   1.00
N310   N     0.38265   0.49999   0.24998   0.00000  Uiso   1.00
N311   N     0.61735   0.50002   0.24999   0.00000  Uiso   1.00
O312   O     0.46042   0.56011   0.25000   0.00000  Uiso   1.00
O313   O     0.63224   0.35363   0.16538   0.00000  Uiso   1.00
O314   O     0.38161   0.56048   0.33833   0.00000  Uiso   1.00
O315   O     0.34148   0.60479   0.30054   0.00000  Uiso   1.00
O316   O     0.61818   0.40459   0.37662   0.00000  Uiso   1.00
O317   O     0.66292   0.45461   0.39922   0.00000  Uiso   1.00
O318   O     0.53961   0.56012   0.25000   0.00000  Uiso   1.00
O319   O     0.44108   0.49998   0.32549   0.00000  Uiso   1.00
O320   O     0.52027   0.49999   0.32549   0.00000  Uiso   1.00
O321   O     0.46039   0.43988   0.24999   0.00000  Uiso   1.00
O322   O     0.53958   0.43989   0.24999   0.00000  Uiso   1.00
O323   O     0.47973   0.50001   0.17451   0.00000  Uiso   1.00
O324   O     0.55892   0.50002   0.17451   0.00000  Uiso   1.00
O325   O     0.58029   0.40302   0.15285   0.00000  Uiso   1.00
C326   C     0.83320   0.57921   0.24997   0.00000  Uiso   1.00
C327   C     0.79110   0.49498   0.40792   0.00000  Uiso   1.00
C328   C     0.87526   0.64337   0.21704   0.00000  Uiso   1.00
C329   C     0.80704   0.49759   0.35013   0.00000  Uiso   1.00
C330   C     0.87613   0.35300   0.21444   0.00000  Uiso   1.00
C331   C     0.83502   0.37604   0.24625   0.00000  Uiso   1.00
C332   C     0.79383   0.35596   0.27814   0.00000  Uiso   1.00
C333   C     0.79328   0.64664   0.27933   0.00000  Uiso   1.00
C334   C     0.83373   0.62374   0.24871   0.00000  Uiso   1.00
C335   C     0.96626   0.52972   0.27656   0.00000  Uiso   1.00
C336   C     0.68211   0.53028   0.27674   0.00000  Uiso   1.00
C337   C     0.81215   0.49243   0.48964   0.00000  Uiso   1.00
C338   C     0.69981   0.47021   0.22301   0.00000  Uiso   1.00
C339   C     0.98367   0.47029   0.22294   0.00000  Uiso   1.00
C340   C     0.83409   0.42077   0.24831   0.00000  Uiso   1.00
C341   C     0.85979   0.49933   0.14981   0.00000  Uiso   1.00
C342   C     0.93116   0.46435   0.01271   0.00000  Uiso   1.00
C343   C     0.87524   0.49367   0.09264   0.00000  Uiso   1.00
C344   C     0.74349   0.50859   0.43631   0.00000  Uiso   1.00
C345   C     0.72944   0.51265   0.49048   0.00000  Uiso   1.00
C346   C     0.76336   0.50559   0.01696   0.00000  Uiso   1.00
C347   C     0.91902   0.37209   0.17621   0.00000  Uiso   1.00
C348   C     0.82413   0.48297   0.43543   0.00000  Uiso   1.00
C349   C     0.69363   0.56558   0.30604   0.00000  Uiso   1.00
C350   C     0.95179   0.43607   0.40230   0.00000  Uiso   1.00
C351   C     0.84904   0.48774   0.01455   0.00000  Uiso   1.00
C352   C     0.89570   0.46968   0.48659   0.00000  Uiso   1.00
C353   C     0.90467   0.45572   0.43425   0.00000  Uiso   1.00
C354   C     0.86833   0.46128   0.41029   0.00000  Uiso   1.00
C355   C     0.84080   0.50100   0.06669   0.00000  Uiso   1.00
C356   C     0.92094   0.47619   0.06518   0.00000  Uiso   1.00
Cu357  Cu    0.78645   0.49999   0.25000   0.00000  Uiso   1.00
Cu358  Cu    0.88022   0.50001   0.25000   0.00000  Uiso   1.00
H359   H     0.94804   0.47005   0.08479   0.00000  Uiso   1.00
H360   H     0.69236   0.52266   0.01201   0.00000  Uiso   1.00
H361   H     0.87513   0.44793   0.37146   0.00000  Uiso   1.00
H362   H     0.90615   0.62500   0.19284   0.00000  Uiso   1.00
H363   H     0.99180   0.36924   0.13843   0.00000  Uiso   1.00
H364   H     0.94007   0.55310   0.29814   0.00000  Uiso   1.00
H365   H     0.67907   0.62584   0.32703   0.00000  Uiso   1.00
H366   H     0.69229   0.43873   0.37528   0.00000  Uiso   1.00
H367   H     0.76243   0.37337   0.30302   0.00000  Uiso   1.00
H368   H     0.76212   0.63155   0.30537   0.00000  Uiso   1.00
H369   H     0.72503   0.44636   0.20120   0.00000  Uiso   1.00
H370   H     0.97193   0.44650   0.20108   0.00000  Uiso   1.00
H371   H     0.96632   0.44952   0.49382   0.00000  Uiso   1.00
H372   H     0.80739   0.51702   0.08855   0.00000  Uiso   1.00
H373   H     0.71716   0.51694   0.41667   0.00000  Uiso   1.00
H374   H     0.74971   0.50965   0.05895   0.00000  Uiso   1.00
N375   N     0.71598   0.49999   0.24998   0.00000  Uiso   1.00
N376   N     0.95069   0.50002   0.24999   0.00000  Uiso   1.00
O377   O     0.79375   0.56011   0.25000   0.00000  Uiso   1.00
O378   O     0.96558   0.35363   0.16538   0.00000  Uiso   1.00
O379   O     0.71494   0.56048   0.33833   0.00000  Uiso   1.00
O380   O     0.67481   0.60479   0.30054   0.00000  Uiso   1.00
O381   O     0.95152   0.40459   0.37662   0.00000  Uiso   1.00
O382   O     0.99626   0.45461   0.39922   0.00000  Uiso   1.00
O383   O     0.87294   0.56012   0.25000   0.00000  Uiso   1.00
O384   O     0.77441   0.49998   0.32549   0.00000  Uiso   1.00
O385   O     0.85360   0.49999   0.32549   0.00000  Uiso   1.00
O386   O     0.79373   0.43988   0.24999   0.00000  Uiso   1.00
O387   O     0.87292   0.43989   0.24999   0.00000  Uiso   1.00
O388   O     0.81306   0.50001   0.17451   0.00000  Uiso   1.00
O389   O     0.89225   0.50002   0.17451   0.00000  Uiso   1.00
O390   O     0.91362   0.40302   0.15285   0.00000  Uiso   1.00
C391   C     0.16653   0.91254   0.24997   0.00000  Uiso   1.00
C392   C     0.12443   0.82832   0.40792   0.00000  Uiso   1.00
C393   C     0.20859   0.97670   0.21704   0.00000  Uiso   1.00
C394   C     0.14037   0.83092   0.35013   0.00000  Uiso   1.00
C395   C     0.20947   0.68633   0.21444   0.00000  Uiso   1.00
C396   C     0.16835   0.70938   0.24625   0.00000  Uiso   1.00
C397   C     0.12717   0.68929   0.27814   0.00000  Uiso   1.00
C398   C     0.12662   0.97998   0.27933   0.00000  Uiso   1.00
C399   C     0.16706   0.95707   0.24871   0.00000  Uiso   1.00
C400   C     0.29959   0.86305   0.27656   0.00000  Uiso   1.00
C401   C     0.01544   0.86362   0.27674   0.00000  Uiso   1.00
C402   C     0.14548   0.82576   0.48964   0.00000  Uiso   1.00
C403   C     0.03314   0.80354   0.22301   0.00000  Uiso   1.00
C404   C     0.31700   0.80363   0.22294   0.00000  Uiso   1.00
C405   C     0.16742   0.75411   0.24831   0.00000  Uiso   1.00
C406   C     0.19312   0.83266   0.14981   0.00000  Uiso   1.00
C407   C     0.26450   0.79768   0.01271   0.00000  Uiso   1.00
C408   C     0.20858   0.82700   0.09264   0.00000  Uiso   1.00
C409   C     0.07683   0.84193   0.43631   0.00000  Uiso   1.00
C410   C     0.06277   0.84598   0.49048   0.00000  Uiso   1.00
C411   C     0.09670   0.83893   0.01696   0.00000  Uiso   1.00
C412   C     0.25236   0.70543   0.17621   0.00000  Uiso   1.00
C413   C     0.15746   0.81630   0.43543   0.00000  Uiso   1.00
C414   C     0.02697   0.89892   0.30604   0.00000  Uiso   1.00
C415   C     0.28512   0.76940   0.40230   0.00000  Uiso   1.00
C416   C     0.18238   0.82107   0.01455   0.00000  Uiso   1.00
C417   C     0.22903   0.80302   0.48659   0.00000  Uiso   1.00
C418   C     0.23800   0.78906   0.43425   0.00000  Uiso   1.00
C419   C     0.20167   0.79462   0.41029   0.00000  Uiso   1.00
C420   C     0.17413   0.83434   0.06669   0.00000  Uiso   1.00
C421   C     0.25428   0.80952   0.06518   0.00000  Uiso   1.00
Cu422  Cu    0.11978   0.83333   0.25000   0.00000  Uiso   1.00
Cu423  Cu    0.21355   0.83334   0.25000   0.00000  Uiso   1.00
H424   H     0.28138   0.80339   0.08479   0.00000  Uiso   1.00
H425   H     0.02569   0.85599   0.01201   0.00000  Uiso   1.00
H426   H     0.20847   0.78126   0.37146   0.00000  Uiso   1.00
H427   H     0.23948   0.95833   0.19284   0.00000  Uiso   1.00
H428   H     0.32514   0.70258   0.13843   0.00000  Uiso   1.00
H429   H     0.27340   0.88643   0.29814   0.00000  Uiso   1.00
H430   H     0.01240   0.95917   0.32703   0.00000  Uiso   1.00
H431   H     0.02562   0.77206   0.37528   0.00000  Uiso   1.00
H432   H     0.09576   0.70670   0.30302   0.00000  Uiso   1.00
H433   H     0.09545   0.96488   0.30537   0.00000  Uiso   1.00
H434   H     0.05836   0.77969   0.20120   0.00000  Uiso   1.00
H435   H     0.30526   0.77983   0.20108   0.00000  Uiso   1.00
H436   H     0.29966   0.78286   0.49382   0.00000  Uiso   1.00
H437   H     0.14073   0.85035   0.08855   0.00000  Uiso   1.00
H438   H     0.05049   0.85027   0.41667   0.00000  Uiso   1.00
H439   H     0.08304   0.84298   0.05895   0.00000  Uiso   1.00
N440   N     0.04931   0.83332   0.24998   0.00000  Uiso   1.00
N441   N     0.28402   0.83335   0.24999   0.00000  Uiso   1.00
O442   O     0.12708   0.89345   0.25000   0.00000  Uiso   1.00
O443   O     0.29891   0.68696   0.16538   0.00000  Uiso   1.00
O444   O     0.04828   0.89382   0.33833   0.00000  Uiso   1.00
O445   O     0.00815   0.93812   0.30054   0.00000  Uiso   1.00
O446   O     0.28485   0.73792   0.37662   0.00000  Uiso   1.00
O447   O     0.32959   0.78795   0.39922   0.00000  Uiso   1.00
O448   O     0.20627   0.89346   0.25000   0.00000  Uiso   1.00
O449   O     0.10775   0.83332   0.32549   0.00000  Uiso   1.00
O450   O     0.18694   0.83333   0.32549   0.00000  Uiso   1.00
O451   O     0.12706   0.77321   0.24999   0.00000  Uiso   1.00
O452   O     0.20625   0.77322   0.24999   0.00000  Uiso   1.00
O453   O     0.14640   0.83334   0.17451   0.00000  Uiso   1.00
O454   O     0.22559   0.83335   0.17451   0.00000  Uiso   1.00
O455   O     0.24695   0.73635   0.15285   0.00000  Uiso   1.00
C456   C     0.49986   0.91254   0.24997   0.00000  Uiso   1.00
C457   C     0.45776   0.82832   0.40792   0.00000  Uiso   1.00
C458   C     0.54193   0.97670   0.21704   0.00000  Uiso   1.00
C459   C     0.47370   0.83092   0.35013   0.00000  Uiso   1.00
C460   C     0.54280   0.68633   0.21444   0.00000  Uiso   1.00
C461   C     0.50168   0.70938   0.24625   0.00000  Uiso   1.00
C462   C     0.46050   0.68929   0.27814   0.00000  Uiso   1.00
C463   C     0.45995   0.97998   0.27933   0.00000  Uiso   1.00
C464   C     0.50039   0.95707   0.24871   0.00000  Uiso   1.00
C465   C     0.63293   0.86305   0.27656   0.00000  Uiso   1.00
C466   C     0.34878   0.86362   0.27674   0.00000  Uiso   1.00
C467   C     0.47882   0.82576   0.48964   0.00000  Uiso   1.00
C468   C     0.36647   0.80354   0.22301   0.00000  Uiso   1.00
C469   C     0.65033   0.80363   0.22294   0.00000  Uiso   1.00
C470   C     0.50075   0.75411   0.24831   0.00000  Uiso   1.00
C471   C     0.52645   0.83266   0.14981   0.00000  Uiso   1.00
C472   C     0.59783   0.79768   0.01271   0.00000  Uiso   1.00
C473   C     0.54191   0.82700   0.09264   0.00000  Uiso   1.00
C474   C     0.41016   0.84193   0.43631   0.00000  Uiso   1.00
C475   C     0.39610   0.84598   0.49048   0.00000  Uiso   1.00
C476   C     0.43003   0.83893   0.01696   0.00000  Uiso   1.00
C477   C     0.58569   0.70543   0.17621   0.00000  Uiso   1.00
C478   C     0.49079   0.81630   0.43543   0.00000  Uiso   1.00
C479   C     0.36030   0.89892   0.30604   0.00000  Uiso   1.00
C480   C     0.61845   0.76940   0.40230   0.00000  Uiso   1.00
C481   C     0.51571   0.82107   0.01455   0.00000  Uiso   1.00
C482   C     0.56237   0.80302   0.48659   0.00000  Uiso   1.00
C483   C     0.57133   0.78906   0.43425   0.00000  Uiso   1.00
C484   C     0.53500   0.79462   0.41029   0.00000  Uiso   1.00
C485   C     0.50747   0.83434   0.06669   0.00000  Uiso   1.00
C486   C     0.58761   0.80952   0.06518   0.00000  Uiso   1.00
Cu487  Cu    0.45311   0.83333   0.25000   0.00000  Uiso   1.00
Cu488  Cu    0.54689   0.83334   0.25000   0.00000  Uiso   1.00
H489   H     0.61471   0.80339   0.08479   0.00000  Uiso   1.00
H490   H     0.35903   0.85599   0.01201   0.00000  Uiso   1.00
H491   H     0.54180   0.78126   0.37146   0.00000  Uiso   1.00
H492   H     0.57281   0.95833   0.19284   0.00000  Uiso   1.00
H493   H     0.65847   0.70258   0.13843   0.00000  Uiso   1.00
H494   H     0.60674   0.88643   0.29814   0.00000  Uiso   1.00
H495   H     0.34574   0.95917   0.32703   0.00000  Uiso   1.00
H496   H     0.35895   0.77206   0.37528   0.00000  Uiso   1.00
H497   H     0.42910   0.70670   0.30302   0.00000  Uiso   1.00
H498   H     0.42878   0.96488   0.30537   0.00000  Uiso   1.00
H499   H     0.39170   0.77969   0.20120   0.00000  Uiso   1.00
H500   H     0.63860   0.77983   0.20108   0.00000  Uiso   1.00
H501   H     0.63299   0.78286   0.49382   0.00000  Uiso   1.00
H502   H     0.47406   0.85035   0.08855   0.00000  Uiso   1.00
H503   H     0.38383   0.85027   0.41667   0.00000  Uiso   1.00
H504   H     0.41637   0.84298   0.05895   0.00000  Uiso   1.00
N505   N     0.38265   0.83332   0.24998   0.00000  Uiso   1.00
N506   N     0.61735   0.83335   0.24999   0.00000  Uiso   1.00
O507   O     0.46042   0.89345   0.25000   0.00000  Uiso   1.00
O508   O     0.63224   0.68696   0.16538   0.00000  Uiso   1.00
O509   O     0.38161   0.89382   0.33833   0.00000  Uiso   1.00
O510   O     0.34148   0.93812   0.30054   0.00000  Uiso   1.00
O511   O     0.61818   0.73792   0.37662   0.00000  Uiso   1.00
O512   O     0.66292   0.78795   0.39922   0.00000  Uiso   1.00
O513   O     0.53961   0.89346   0.25000   0.00000  Uiso   1.00
O514   O     0.44108   0.83332   0.32549   0.00000  Uiso   1.00
O515   O     0.52027   0.83333   0.32549   0.00000  Uiso   1.00
O516   O     0.46039   0.77321   0.24999   0.00000  Uiso   1.00
O517   O     0.53958   0.77322   0.24999   0.00000  Uiso   1.00
O518   O     0.47973   0.83334   0.17451   0.00000  Uiso   1.00
O519   O     0.55892   0.83335   0.17451   0.00000  Uiso   1.00
O520   O     0.58029   0.73635   0.15285   0.00000  Uiso   1.00
C521   C     0.83320   0.91254   0.24997   0.00000  Uiso   1.00
C522   C     0.79110   0.82832   0.40792   0.00000  Uiso   1.00
C523   C     0.87526   0.97670   0.21704   0.00000  Uiso   1.00
C524   C     0.80704   0.83092   0.35013   0.00000  Uiso   1.00
C525   C     0.87613   0.68633   0.21444   0.00000  Uiso   1.00
C526   C     0.83502   0.70938   0.24625   0.00000  Uiso   1.00
C527   C     0.79383   0.68929   0.27814   0.00000  Uiso   1.00
C528   C     0.79328   0.97998   0.27933   0.00000  Uiso   1.00
C529   C     0.83373   0.95707   0.24871   0.00000  Uiso   1.00
C530   C     0.96626   0.86305   0.27656   0.00000  Uiso   1.00
C531   C     0.68211   0.86362   0.27674   0.00000  Uiso   1.00
C532   C     0.81215   0.82576   0.48964   0.00000  Uiso   1.00
C533   C     0.69981   0.80354   0.22301   0.00000  Uiso   1.00
C534   C     0.98367   0.80363   0.22294   0.00000  Uiso   1.00
C535   C     0.83409   0.75411   0.24831   0.00000  Uiso   1.00
C536   C     0.85979   0.83266   0.14981   0.00000  Uiso   1.00
C537   C     0.93116   0.79768   0.01271   0.00000  Uiso   1.00
C538   C     0.87524   0.82700   0.09264   0.00000  Uiso   1.00
C539   C     0.74349   0.84193   0.43631   0.00000  Uiso   1.00
C540   C     0.72944   0.84598   0.49048   0.00000  Uiso   1.00
C541   C     0.76336   0.83893   0.01696   0.00000  Uiso   1.00
C542   C     0.91902   0.70543   0.17621   0.00000  Uiso   1.00
C543   C     0.82413   0.81630   0.43543   0.00000  Uiso   1.00
C544   C     0.69363   0.89892   0.30604   0.00000  Uiso   1.00
C545   C     0.95179   0.76940   0.40230   0.00000  Uiso   1.00
C546   C     0.84904   0.82107   0.01455   0.00000  Uiso   1.00
C547   C     0.89570   0.80302   0.48659   0.00000  Uiso   1.00
C548   C     0.90467   0.78906   0.43425   0.00000  Uiso   1.00
C549   C     0.86833   0.79462   0.41029   0.00000  Uiso   1.00
C550   C     0.84080   0.83434   0.06669   0.00000  Uiso   1.00
C551   C     0.92094   0.80952   0.06518   0.00000  Uiso   1.00
Cu552  Cu    0.78645   0.83333   0.25000   0.00000  Uiso   1.00
Cu553  Cu    0.88022   0.83334   0.25000   0.00000  Uiso   1.00
H554   H     0.94804   0.80339   0.08479   0.00000  Uiso   1.00
H555   H     0.69236   0.85599   0.01201   0.00000  Uiso   1.00
H556   H     0.87513   0.78126   0.37146   0.00000  Uiso   1.00
H557   H     0.90615   0.95833   0.19284   0.00000  Uiso   1.00
H558   H     0.99180   0.70258   0.13843   0.00000  Uiso   1.00
H559   H     0.94007   0.88643   0.29814   0.00000  Uiso   1.00
H560   H     0.67907   0.95917   0.32703   0.00000  Uiso   1.00
H561   H     0.69229   0.77206   0.37528   0.00000  Uiso   1.00
H562   H     0.76243   0.70670   0.30302   0.00000  Uiso   1.00
H563   H     0.76212   0.96488   0.30537   0.00000  Uiso   1.00
H564   H     0.72503   0.77969   0.20120   0.00000  Uiso   1.00
H565   H     0.97193   0.77983   0.20108   0.00000  Uiso   1.00
H566   H     0.96632   0.78286   0.49382   0.00000  Uiso   1.00
H567   H     0.80739   0.85035   0.08855   0.00000  Uiso   1.00
H568   H     0.71716   0.85027   0.41667   0.00000  Uiso   1.00
H569   H     0.74971   0.84298   0.05895   0.00000  Uiso   1.00
N570   N     0.71598   0.83332   0.24998   0.00000  Uiso   1.00
N571   N     0.95069   0.83335   0.24999   0.00000  Uiso   1.00
O572   O     0.79375   0.89345   0.25000   0.00000  Uiso   1.00
O573   O     0.96558   0.68696   0.16538   0.00000  Uiso   1.00
O574   O     0.71494   0.89382   0.33833   0.00000  Uiso   1.00
O575   O     0.67481   0.93812   0.30054   0.00000  Uiso   1.00
O576   O     0.95152   0.73792   0.37662   0.00000  Uiso   1.00
O577   O     0.99626   0.78795   0.39922   0.00000  Uiso   1.00
O578   O     0.87294   0.89346   0.25000   0.00000  Uiso   1.00
O579   O     0.77441   0.83332   0.32549   0.00000  Uiso   1.00
O580   O     0.85360   0.83333   0.32549   0.00000  Uiso   1.00
O581   O     0.79373   0.77321   0.24999   0.00000  Uiso   1.00
O582   O     0.87292   0.77322   0.24999   0.00000  Uiso   1.00
O583   O     0.81306   0.83334   0.17451   0.00000  Uiso   1.00
O584   O     0.89225   0.83335   0.17451   0.00000  Uiso   1.00
O585   O     0.91362   0.73635   0.15285   0.00000  Uiso   1.00
C586   C     0.16653   0.24587   0.74997   0.00000  Uiso   1.00
C587   C     0.12443   0.16165   0.90792   0.00000  Uiso   1.00
C588   C     0.20859   0.31004   0.71704   0.00000  Uiso   1.00
C589   C     0.14037   0.16425   0.85013   0.00000  Uiso   1.00
C590   C     0.20947   0.01967   0.71444   0.00000  Uiso   1.00
C591   C     0.16835   0.04271   0.74625   0.00000  Uiso   1.00
C592   C     0.12717   0.02263   0.77814   0.00000  Uiso   1.00
C593   C     0.12662   0.31331   0.77933   0.00000  Uiso   1.00
C594   C     0.16706   0.29040   0.74871   0.00000  Uiso   1.00
C595   C     0.29959   0.19638   0.77656   0.00000  Uiso   1.00
C596   C     0.01544   0.19695   0.77674   0.00000  Uiso   1.00
C597   C     0.14548   0.15910   0.98964   0.00000  Uiso   1.00
C598   C     0.03314   0.13688   0.72301   0.00000  Uiso   1.00
C599   C     0.31700   0.13696   0.72294   0.00000  Uiso   1.00
C600   C     0.16742   0.08744   0.74831   0.00000  Uiso   1.00
C601   C     0.19312   0.16599   0.64981   0.00000  Uiso   1.00
C602   C     0.26450   0.13102   0.51271   0.00000  Uiso   1.00
C603   C     0.20858   0.16034   0.59264   0.00000  Uiso   1.00
C604   C     0.07683   0.17526   0.93631   0.00000  Uiso   1.00
C605   C     0.06277   0.17931   0.99048   0.00000  Uiso   1.00
C606   C     0.09670   0.17226   0.51696   0.00000  Uiso   1.00
C607   C     0.25236   0.03876   0.67621   0.00000  Uiso   1.00
C608   C     0.15746   0.14963   0.93543   0.00000  Uiso   1.00
C609   C     0.02697   0.23225   0.80604   0.00000  Uiso   1.00
C610   C     0.28512   0.10274   0.90230   0.00000  Uiso   1.00
C611   C     0.18238   0.15441   0.51455   0.00000  Uiso   1.00
C612   C     0.22903   0.13635   0.98659   0.00000  Uiso   1.00
C613   C     0.23800   0.12239   0.93425   0.00000  Uiso   1.00
C614   C     0.20167   0.12795   0.91029   0.00000  Uiso   1.00
C615   C     0.17413   0.16767   0.56669   0.00000  Uiso   1.00
C616   C     0.25428   0.14286   0.56518   0.00000  Uiso   1.00
Cu617  Cu    0.11978   0.16666   0.75000   0.00000  Uiso   1.00
Cu618  Cu    0.21355   0.16667   0.75000   0.00000  Uiso   1.00
H619   H     0.28138   0.13672   0.58479   0.00000  Uiso   1.00
H620   H     0.02569   0.18932   0.51201   0.00000  Uiso   1.00
H621   H     0.20847   0.11460   0.87146   0.00000  Uiso   1.00
H622   H     0.23948   0.29166   0.69284   0.00000  Uiso   1.00
H623   H     0.32514   0.03591   0.63843   0.00000  Uiso   1.00
H624   H     0.27340   0.21976   0.79814   0.00000  Uiso   1.00
H625   H     0.01240   0.29251   0.82703   0.00000  Uiso   1.00
H626   H     0.02562   0.10539   0.87528   0.00000  Uiso   1.00
H627   H     0.09576   0.04003   0.80302   0.00000  Uiso   1.00
H628   H     0.09545   0.29822   0.80537   0.00000  Uiso   1.00
H629   H     0.05836   0.11303   0.70120   0.00000  Uiso   1.00
H630   H     0.30526   0.11317   0.70108   0.00000  Uiso   1.00
H631   H     0.29966   0.11619   0.99382   0.00000  Uiso   1.00
H632   H     0.14073   0.18368   0.58855   0.00000  Uiso   1.00
H633   H     0.05049   0.18360   0.91667   0.00000  Uiso   1.00
H634   H     0.08304   0.17632   0.55895   0.00000  Uiso   1.00
N635   N     0.04931   0.16666   0.74998   0.00000  Uiso   1.00
N636   N     0.28402   0.16669   0.74999   0.00000  Uiso   1.00
O637   O     0.12708   0.22678   0.75000   0.00000  Uiso   1.00
O638   O     0.29891   0.02029   0.66538   0.00000  Uiso   1.00
O639   O     0.04828   0.22715   0.83833   0.00000  Uiso   1.00
O640   O     0.00815   0.27145   0.80054   0.00000  Uiso   1.00
O641   O     0.28485   0.07126   0.87662   0.00000  Uiso   1.00
O642   O     0.32959   0.12128   0.89922   0.00000  Uiso   1.00
O643   O     0.20627   0.22679   0.75000   0.00000  Uiso   1.00
O644   O     0.10775   0.16665   0.82549   0.00000  Uiso   1.00
O645   O     0.18694   0.16666   0.82549   0.00000  Uiso   1.00
O646   O     0.12706   0.10654   0.74999   0.00000  Uiso   1.00
O647   O     0.20625   0.10655   0.74999   0.00000  Uiso   1.00
O648   O     0.14640   0.16667   0.67451   0.00000  Uiso   1.00
O649   O     0.22559   0.16668   0.67451   0.00000  Uiso   1.00
O650   O     0.24695   0.06969   0.65285   0.00000  Uiso   1.00
C651   C     0.49986   0.24587   0.74997   0.00000  Uiso   1.00
C652   C     0.45776   0.16165   0.90792   0.00000  Uiso   1.00
C653   C     0.54193   0.31004   0.71704   0.00000  Uiso   1.00
C654   C     0.47370   0.16425   0.85013   0.00000  Uiso   1.00
C655   C     0.54280   0.01967   0.71444   0.00000  Uiso   1.00
C656   C     0.50168   0.04271   0.74625   0.00000  Uiso   1.00
C657   C     0.46050   0.02263   0.77814   0.00000  Uiso   1.00
C658   C     0.45995   0.31331   0.77933   0.00000  Uiso   1.00
C659   C     0.50039   0.29040   0.74871   0.00000  Uiso   1.00
C660   C     0.63293   0.19638   0.77656   0.00000  Uiso   1.00
C661   C     0.34878   0.19695   0.77674   0.00000  Uiso   1.00
C662   C     0.47882   0.15910   0.98964   0.00000  Uiso   1.00
C663   C     0.36647   0.13688   0.72301   0.00000  Uiso   1.00
C664   C     0.65033   0.13696   0.72294   0.00000  Uiso   1.00
C665   C     0.50075   0.08744   0.74831   0.00000  Uiso   1.00
C666   C     0.52645   0.16599   0.64981   0.00000  Uiso   1.00
C667   C     0.59783   0.13102   0.51271   0.00000  Uiso   1.00
C668   C     0.54191   0.16034   0.59264   0.00000  Uiso   1.00
C669   C     0.41016   0.17526   0.93631   0.00000  Uiso   1.00
C670   C     0.39610   0.17931   0.99048   0.00000  Uiso   1.00
C671   C     0.43003   0.17226   0.51696   0.00000  Uiso   1.00
C672   C     0.58569   0.03876   0.67621   0.00000  Uiso   1.00
C673   C     0.49079   0.14963   0.93543   0.00000  Uiso   1.00
C674   C     0.36030   0.23225   0.80604   0.00000  Uiso   1.00
C675   C     0.61845   0.10274   0.90230   0.00000  Uiso   1.00
C676   C     0.51571   0.15441   0.51455   0.00000  Uiso   1.00
C677   C     0.56237   0.13635   0.98659   0.00000  Uiso   1.00
C678   C     0.57133   0.12239   0.93425   0.00000  Uiso   1.00
C679   C     0.53500   0.12795   0.91029   0.00000  Uiso   1.00
C680   C     0.50747   0.16767   0.56669   0.00000  Uiso   1.00
C681   C     0.58761   0.14286   0.56518   0.00000  Uiso   1.00
Cu682  Cu    0.45311   0.16666   0.75000   0.00000  Uiso   1.00
Cu683  Cu    0.54689   0.16667   0.75000   0.00000  Uiso   1.00
H684   H     0.61471   0.13672   0.58479   0.00000  Uiso   1.00
H685   H     0.35903   0.18932   0.51201   0.00000  Uiso   1.00
H686   H     0.54180   0.11460   0.87146   0.00000  Uiso   1.00
H687   H     0.57281   0.29166   0.69284   0.00000  Uiso   1.00
H688   H     0.65847   0.03591   0.63843   0.00000  Uiso   1.00
H689   H     0.60674   0.21976   0.79814   0.00000  Uiso   1.00
H690   H     0.34574   0.29251   0.82703   0.00000  Uiso   1.00
H691   H     0.35895   0.10539   0.87528   0.00000  Uiso   1.00
H692   H     0.42910   0.04003   0.80302   0.00000  Uiso   1.00
H693   H     0.42878   0.29822   0.80537   0.00000  Uiso   1.00
H694   H     0.39170   0.11303   0.70120   0.00000  Uiso   1.00
H695   H     0.63860   0.11317   0.70108   0.00000  Uiso   1.00
H696   H     0.63299   0.11619   0.99382   0.00000  Uiso   1.00
H697   H     0.47406   0.18368   0.58855   0.00000  Uiso   1.00
H698   H     0.38383   0.18360   0.91667   0.00000  Uiso   1.00
H699   H     0.41637   0.17632   0.55895   0.00000  Uiso   1.00
N700   N     0.38265   0.16666   0.74998   0.00000  Uiso   1.00
N701   N     0.61735   0.16669   0.74999   0.00000  Uiso   1.00
O702   O     0.46042   0.22678   0.75000   0.00000  Uiso   1.00
O703   O     0.63224   0.02029   0.66538   0.00000  Uiso   1.00
O704   O     0.38161   0.22715   0.83833   0.00000  Uiso   1.00
O705   O     0.34148   0.27145   0.80054   0.00000  Uiso   1.00
O706   O     0.61818   0.07126   0.87662   0.00000  Uiso   1.00
O707   O     0.66292   0.12128   0.89922   0.00000  Uiso   1.00
O708   O     0.53961   0.22679   0.75000   0.00000  Uiso   1.00
O709   O     0.44108   0.16665   0.82549   0.00000  Uiso   1.00
O710   O     0.52027   0.16666   0.82549   0.00000  Uiso   1.00
O711   O     0.46039   0.10654   0.74999   0.00000  Uiso   1.00
O712   O     0.53958   0.10655   0.74999   0.00000  Uiso   1.00
O713   O     0.47973   0.16667   0.67451   0.00000  Uiso   1.00
O714   O     0.55892   0.16668   0.67451   0.00000  Uiso   1.00
O715   O     0.58029   0.06969   0.65285   0.00000  Uiso   1.00
C716   C     0.83320   0.24587   0.74997   0.00000  Uiso   1.00
C717   C     0.79110   0.16165   0.90792   0.00000  Uiso   1.00
C718   C     0.87526   0.31004   0.71704   0.00000  Uiso   1.00
C719   C     0.80704   0.16425   0.85013   0.00000  Uiso   1.00
C720   C     0.87613   0.01967   0.71444   0.00000  Uiso   1.00
C721   C     0.83502   0.04271   0.74625   0.00000  Uiso   1.00
C722   C     0.79383   0.02263   0.77814   0.00000  Uiso   1.00
C723   C     0.79328   0.31331   0.77933   0.00000  Uiso   1.00
C724   C     0.83373   0.29040   0.74871   0.00000  Uiso   1.00
C725   C     0.96626   0.19638   0.77656   0.00000  Uiso   1.00
C726   C     0.68211   0.19695   0.77674   0.00000  Uiso   1.00
C727   C     0.81215   0.15910   0.98964   0.00000  Uiso   1.00
C728   C     0.69981   0.13688   0.72301   0.00000  Uiso   1.00
C729   C     0.98367   0.13696   0.72294   0.00000  Uiso   1.00
C730   C     0.83409   0.08744   0.74831   0.00000  Uiso   1.00
C731   C     0.85979   0.16599   0.64981   0.00000  Uiso   1.00
C732   C     0.93116   0.13102   0.51271   0.00000  Uiso   1.00
C733   C     0.87524   0.16034   0.59264   0.00000  Uiso   1.00
C734   C     0.74349   0.17526   0.93631   0.00000  Uiso   1.00
C735   C     0.72944   0.17931   0.99048   0.00000  Uiso   1.00
C736   C     0.76336   0.17226   0.51696   0.00000  Uiso   1.00
C737   C     0.91902   0.03876   0.67621   0.00000  Uiso   1.00
C738   C     0.82413   0.14963   0.93543   0.00000  Uiso   1.00
C739   C     0.69363   0.23225   0.80604   0.00000  Uiso   1.00
C740   C     0.95179   0.10274   0.90230   0.00000  Uiso   1.00
C741   C     0.84904   0.15441   0.51455   0.00000  Uiso   1.00
C742   C     0.89570   0.13635   0.98659   0.00000  Uiso   1.00
C743   C     0.90467   0.12239   0.93425   0.00000  Uiso   1.00
C744   C     0.86833   0.12795   0.91029   0.00000  Uiso   1.00
C745   C     0.84080   0.16767   0.56669   0.00000  Uiso   1.00
C746   C     0.92094   0.14286   0.56518   0.00000  Uiso   1.00
Cu747  Cu    0.78645   0.16666   0.75000   0.00000  Uiso   1.00
Cu748  Cu    0.88022   0.16667   0.75000   0.00000  Uiso   1.00
H749   H     0.94804   0.13672   0.58479   0.00000  Uiso   1.00
H750   H     0.69236   0.18932   0.51201   0.00000  Uiso   1.00
H751   H     0.87513   0.11460   0.87146   0.00000  Uiso   1.00
H752   H     0.90615   0.29166   0.69284   0.00000  Uiso   1.00
H753   H     0.99180   0.03591   0.63843   0.00000  Uiso   1.00
H754   H     0.94007   0.21976   0.79814   0.00000  Uiso   1.00
H755   H     0.67907   0.29251   0.82703   0.00000  Uiso   1.00
H756   H     0.69229   0.10539   0.87528   0.00000  Uiso   1.00
H757   H     0.76243   0.04003   0.80302   0.00000  Uiso   1.00
H758   H     0.76212   0.29822   0.80537   0.00000  Uiso   1.00
H759   H     0.72503   0.11303   0.70120   0.00000  Uiso   1.00
H760   H     0.97193   0.11317   0.70108   0.00000  Uiso   1.00
H761   H     0.96632   0.11619   0.99382   0.00000  Uiso   1.00
H762   H     0.80739   0.18368   0.58855   0.00000  Uiso   1.00
H763   H     0.71716   0.18360   0.91667   0.00000  Uiso   1.00
H764   H     0.74971   0.17632   0.55895   0.00000  Uiso   1.00
N765   N     0.71598   0.16666   0.74998   0.00000  Uiso   1.00
N766   N     0.95069   0.16669   0.74999   0.00000  Uiso   1.00
O767   O     0.79375   0.22678   0.75000   0.00000  Uiso   1.00
O768   O     0.96558   0.02029   0.66538   0.00000  Uiso   1.00
O769   O     0.71494   0.22715   0.83833   0.00000  Uiso   1.00
O770   O     0.67481   0.27145   0.80054   0.00000  Uiso   1.00
O771   O     0.95152   0.07126   0.87662   0.00000  Uiso   1.00
O772   O     0.99626   0.12128   0.89922   0.00000  Uiso   1.00
O773   O     0.87294   0.22679   0.75000   0.00000  Uiso   1.00
O774   O     0.77441   0.16665   0.82549   0.00000  Uiso   1.00
O775   O     0.85360   0.16666   0.82549   0.00000  Uiso   1.00
O776   O     0.79373   0.10654   0.74999   0.00000  Uiso   1.00
O777   O     0.87292   0.10655   0.74999   0.00000  Uiso   1.00
O778   O     0.81306   0.16667   0.67451   0.00000  Uiso   1.00
O779   O     0.89225   0.16668   0.67451   0.00000  Uiso   1.00
O780   O     0.91362   0.06969   0.65285   0.00000  Uiso   1.00
C781   C     0.16653   0.57921   0.74997   0.00000  Uiso   1.00
C782   C     0.12443   0.49498   0.90792   0.00000  Uiso   1.00
C783   C     0.20859   0.64337   0.71704   0.00000  Uiso   1.00
C784   C     0.14037   0.49759   0.85013   0.00000  Uiso   1.00
C785   C     0.20947   0.35300   0.71444   0.00000  Uiso   1.00
C786   C     0.16835   0.37604   0.74625   0.00000  Uiso   1.00
C787   C     0.12717   0.35596   0.77814   0.00000  Uiso   1.00
C788   C     0.12662   0.64664   0.77933   0.00000  Uiso   1.00
C789   C     0.16706   0.62374   0.74871   0.00000  Uiso   1.00
C790   C     0.29959   0.52972   0.77656   0.00000  Uiso   1.00
C791   C     0.01544   0.53028   0.77674   0.00000  Uiso   1.00
C792   C     0.14548   0.49243   0.98964   0.00000  Uiso   1.00
C793   C     0.03314   0.47021   0.72301   0.00000  Uiso   1.00
C794   C     0.31700   0.47029   0.72294   0.00000  Uiso   1.00
C795   C     0.16742   0.42077   0.74831   0.00000  Uiso   1.00
C796   C     0.19312   0.49933   0.64981   0.00000  Uiso   1.00
C797   C     0.26450   0.46435   0.51271   0.00000  Uiso   1.00
C798   C     0.20858   0.49367   0.59264   0.00000  Uiso   1.00
C799   C     0.07683   0.50859   0.93631   0.00000  Uiso   1.00
C800   C     0.06277   0.51265   0.99048   0.00000  Uiso   1.00
C801   C     0.09670   0.50559   0.51696   0.00000  Uiso   1.00
C802   C     0.25236   0.37209   0.67621   0.00000  Uiso   1.00
C803   C     0.15746   0.48297   0.93543   0.00000  Uiso   1.00
C804   C     0.02697   0.56558   0.80604   0.00000  Uiso   1.00
C805   C     0.28512   0.43607   0.90230   0.00000  Uiso   1.00
C806   C     0.18238   0.48774   0.51455   0.00000  Uiso   1.00
C807   C     0.22903   0.46968   0.98659   0.00000  Uiso   1.00
C808   C     0.23800   0.45572   0.93425   0.00000  Uiso   1.00
C809   C     0.20167   0.46128   0.91029   0.00000  Uiso   1.00
C810   C     0.17413   0.50100   0.56669   0.00000  Uiso   1.00
C811   C     0.25428   0.47619   0.56518   0.00000  Uiso   1.00
Cu812  Cu    0.11978   0.49999   0.75000   0.00000  Uiso   1.00
Cu813  Cu    0.21355   0.50001   0.75000   0.00000  Uiso   1.00
H814   H     0.28138   0.47005   0.58479   0.00000  Uiso   1.00
H815   H     0.02569   0.52266   0.51201   0.00000  Uiso   1.00
H816   H     0.20847   0.44793   0.87146   0.00000  Uiso   1.00
H817   H     0.23948   0.62500   0.69284   0.00000  Uiso   1.00
H818   H     0.32514   0.36924   0.63843   0.00000  Uiso   1.00
H819   H     0.27340   0.55310   0.79814   0.00000  Uiso   1.00
H820   H     0.01240   0.62584   0.82703   0.00000  Uiso   1.00
H821   H     0.02562   0.43873   0.87528   0.00000  Uiso   1.00
H822   H     0.09576   0.37337   0.80302   0.00000  Uiso   1.00
H823   H     0.09545   0.63155   0.80537   0.00000  Uiso   1.00
H824   H     0.05836   0.44636   0.70120   0.00000  Uiso   1.00
H825   H     0.30526   0.44650   0.70108   0.00000  Uiso   1.00
H826   H     0.29966   0.44952   0.99382   0.00000  Uiso   1.00
H827   H     0.14073   0.51702   0.58855   0.00000  Uiso   1.00
H828   H     0.05049   0.51694   0.91667   0.00000  Uiso   1.00
H829   H     0.08304   0.50965   0.55895   0.00000  Uiso   1.00
N830   N     0.04931   0.49999   0.74998   0.00000  Uiso   1.00
N831   N     0.28402   0.50002   0.74999   0.00000  Uiso   1.00
O832   O     0.12708   0.56011   0.75000   0.00000  Uiso   1.00
O833   O     0.29891   0.35363   0.66538   0.00000  Uiso   1.00
O834   O     0.04828   0.56048   0.83833   0.00000  Uiso   1.00
O835   O     0.00815   0.60479   0.80054   0.00000  Uiso   1.00
O836   O     0.28485   0.40459   0.87662   0.00000  Uiso   1.00
O837   O     0.32959   0.45461   0.89922   0.00000  Uiso   1.00
O838   O     0.20627   0.56012   0.75000   0.00000  Uiso   1.00
O839   O     0.10775   0.49998   0.82549   0.00000  Uiso   1.00
O840   O     0.18694   0.49999   0.82549   0.00000  Uiso   1.00
O841   O     0.12706   0.43988   0.74999   0.00000  Uiso   1.00
O842   O     0.20625   0.43989   0.74999   0.00000  Uiso   1.00
O843   O     0.14640   0.50001   0.67451   0.00000  Uiso   1.00
O844   O     0.22559   0.50002   0.67451   0.00000  Uiso   1.00
O845   O     0.24695   0.40302   0.65285   0.00000  Uiso   1.00
C846   C     0.49986   0.57921   0.74997   0.00000  Uiso   1.00
C847   C     0.45776   0.49498   0.90792   0.00000  Uiso   1.00
C848   C     0.54193   0.64337   0.71704   0.00000  Uiso   1.00
C849   C     0.47370   0.49759   0.85013   0.00000  Uiso   1.00
C850   C     0.54280   0.35300   0.71444   0.00000  Uiso   1.00
C851   C     0.50168   0.37604   0.74625   0.00000  Uiso   1.00
C852   C     0.46050   0.35596   0.77814   0.00000  Uiso   1.00
C853   C     0.45995   0.64664   0.77933   0.00000  Uiso   1.00
C854   C     0.50039   0.62374   0.74871   0.00000  Uiso   1.00
C855   C     0.63293   0.52972   0.77656   0.00000  Uiso   1.00
C856   C     0.34878   0.53028   0.77674   0.00000  Uiso   1.00
C857   C     0.47882   0.49243   0.98964   0.00000  Uiso   1.00
C858   C     0.36647   0.47021   0.72301   0.00000  Uiso   1.00
C859   C     0.65033   0.47029   0.72294   0.00000  Uiso   1.00
C860   C     0.50075   0.42077   0.74831   0.00000  Uiso   1.00
C861   C     0.52645   0.49933   0.64981   0.00000  Uiso   1.00
C862   C     0.59783   0.46435   0.51271   0.00000  Uiso   1.00
C863   C     0.54191   0.49367   0.59264   0.00000  Uiso   1.00
C864   C     0.41016   0.50859   0.93631   0.00000  Uiso   1.00
C865   C     0.39610   0.51265   0.99048   0.00000  Uiso   1.00
C866   C     0.43003   0.50559   0.51696   0.00000  Uiso   1.00
C867   C     0.58569   0.37209   0.67621   0.00000  Uiso   1.00
C868   C     0.49079   0.48297   0.93543   0.00000  Uiso   1.00
C869   C     0.36030   0.56558   0.80604   0.00000  Uiso   1.00
C870   C     0.61845   0.43607   0.90230   0.00000  Uiso   1.00
C871   C     0.51571   0.48774   0.51455   0.00000  Uiso   1.00
C872   C     0.56237   0.46968   0.98659   0.00000  Uiso   1.00
C873   C     0.57133   0.45572   0.93425   0.00000  Uiso   1.00
C874   C     0.53500   0.46128   0.91029   0.00000  Uiso   1.00
C875   C     0.50747   0.50100   0.56669   0.00000  Uiso   1.00
C876   C     0.58761   0.47619   0.56518   0.00000  Uiso   1.00
Cu877  Cu    0.45311   0.49999   0.75000   0.00000  Uiso   1.00
Cu878  Cu    0.54689   0.50001   0.75000   0.00000  Uiso   1.00
H879   H     0.61471   0.47005   0.58479   0.00000  Uiso   1.00
H880   H     0.35903   0.52266   0.51201   0.00000  Uiso   1.00
H881   H     0.54180   0.44793   0.87146   0.00000  Uiso   1.00
H882   H     0.57281   0.62500   0.69284   0.00000  Uiso   1.00
H883   H     0.65847   0.36924   0.63843   0.00000  Uiso   1.00
H884   H     0.60674   0.55310   0.79814   0.00000  Uiso   1.00
H885   H     0.34574   0.62584   0.82703   0.00000  Uiso   1.00
H886   H     0.35895   0.43873   0.87528   0.00000  Uiso   1.00
H887   H     0.42910   0.37337   0.80302   0.00000  Uiso   1.00
H888   H     0.42878   0.63155   0.80537   0.00000  Uiso   1.00
H889   H     0.39170   0.44636   0.70120   0.00000  Uiso   1.00
H890   H     0.63860   0.44650   0.70108   0.00000  Uiso   1.00
H891   H     0.63299   0.44952   0.99382   0.00000  Uiso   1.00
H892   H     0.47406   0.51702   0.58855   0.00000  Uiso   1.00
H893   H     0.38383   0.51694   0.91667   0.00000  Uiso   1.00
H894   H     0.41637   0.50965   0.55895   0.00000  Uiso   1.00
N895   N     0.38265   0.49999   0.74998   0.00000  Uiso   1.00
N896   N     0.61735   0.50002   0.74999   0.00000  Uiso   1.00
O897   O     0.46042   0.56011   0.75000   0.00000  Uiso   1.00
O898   O     0.63224   0.35363   0.66538   0.00000  Uiso   1.00
O899   O     0.38161   0.56048   0.83833   0.00000  Uiso   1.00
O900   O     0.34148   0.60479   0.80054   0.00000  Uiso   1.00
O901   O     0.61818   0.40459   0.87662   0.00000  Uiso   1.00
O902   O     0.66292   0.45461   0.89922   0.00000  Uiso   1.00
O903   O     0.53961   0.56012   0.75000   0.00000  Uiso   1.00
O904   O     0.44108   0.49998   0.82549   0.00000  Uiso   1.00
O905   O     0.52027   0.49999   0.82549   0.00000  Uiso   1.00
O906   O     0.46039   0.43988   0.74999   0.00000  Uiso   1.00
O907   O     0.53958   0.43989   0.74999   0.00000  Uiso   1.00
O908   O     0.47973   0.50001   0.67451   0.00000  Uiso   1.00
O909   O     0.55892   0.50002   0.67451   0.00000  Uiso   1.00
O910   O     0.58029   0.40302   0.65285   0.00000  Uiso   1.00
C911   C     0.83320   0.57921   0.74997   0.00000  Uiso   1.00
C912   C     0.79110   0.49498   0.90792   0.00000  Uiso   1.00
C913   C     0.87526   0.64337   0.71704   0.00000  Uiso   1.00
C914   C     0.80704   0.49759   0.85013   0.00000  Uiso   1.00
C915   C     0.87613   0.35300   0.71444   0.00000  Uiso   1.00
C916   C     0.83502   0.37604   0.74625   0.00000  Uiso   1.00
C917   C     0.79383   0.35596   0.77814   0.00000  Uiso   1.00
C918   C     0.79328   0.64664   0.77933   0.00000  Uiso   1.00
C919   C     0.83373   0.62374   0.74871   0.00000  Uiso   1.00
C920   C     0.96626   0.52972   0.77656   0.00000  Uiso   1.00
C921   C     0.68211   0.53028   0.77674   0.00000  Uiso   1.00
C922   C     0.81215   0.49243   0.98964   0.00000  Uiso   1.00
C923   C     0.69981   0.47021   0.72301   0.00000  Uiso   1.00
C924   C     0.98367   0.47029   0.72294   0.00000  Uiso   1.00
C925   C     0.83409   0.42077   0.74831   0.00000  Uiso   1.00
C926   C     0.85979   0.49933   0.64981   0.00000  Uiso   1.00
C927   C     0.93116   0.46435   0.51271   0.00000  Uiso   1.00
C928   C     0.87524   0.49367   0.59264   0.00000  Uiso   1.00
C929   C     0.74349   0.50859   0.93631   0.00000  Uiso   1.00
C930   C     0.72944   0.51265   0.99048   0.00000  Uiso   1.00
C931   C     0.76336   0.50559   0.51696   0.00000  Uiso   1.00
C932   C     0.91902   0.37209   0.67621   0.00000  Uiso   1.00
C933   C     0.82413   0.48297   0.93543   0.00000  Uiso   1.00
C934   C     0.69363   0.56558   0.80604   0.00000  Uiso   1.00
C935   C     0.95179   0.43607   0.90230   0.00000  Uiso   1.00
C936   C     0.84904   0.48774   0.51455   0.00000  Uiso   1.00
C937   C     0.89570   0.46968   0.98659   0.00000  Uiso   1.00
C938   C     0.90467   0.45572   0.93425   0.00000  Uiso   1.00
C939   C     0.86833   0.46128   0.91029   0.00000  Uiso   1.00
C940   C     0.84080   0.50100   0.56669   0.00000  Uiso   1.00
C941   C     0.92094   0.47619   0.56518   0.00000  Uiso   1.00
Cu942  Cu    0.78645   0.49999   0.75000   0.00000  Uiso   1.00
Cu943  Cu    0.88022   0.50001   0.75000   0.00000  Uiso   1.00
H944   H     0.94804   0.47005   0.58479   0.00000  Uiso   1.00
H945   H     0.69236   0.52266   0.51201   0.00000  Uiso   1.00
H946   H     0.87513   0.44793   0.87146   0.00000  Uiso   1.00
H947   H     0.90615   0.62500   0.69284   0.00000  Uiso   1.00
H948   H     0.99180   0.36924   0.63843   0.00000  Uiso   1.00
H949   H     0.94007   0.55310   0.79814   0.00000  Uiso   1.00
H950   H     0.67907   0.62584   0.82703   0.00000  Uiso   1.00
H951   H     0.69229   0.43873   0.87528   0.00000  Uiso   1.00
H952   H     0.76243   0.37337   0.80302   0.00000  Uiso   1.00
H953   H     0.76212   0.63155   0.80537   0.00000  Uiso   1.00
H954   H     0.72503   0.44636   0.70120   0.00000  Uiso   1.00
H955   H     0.97193   0.44650   0.70108   0.00000  Uiso   1.00
H956   H     0.96632   0.44952   0.99382   0.00000  Uiso   1.00
H957   H     0.80739   0.51702   0.58855   0.00000  Uiso   1.00
H958   H     0.71716   0.51694   0.91667   0.00000  Uiso   1.00
H959   H     0.74971   0.50965   0.55895   0.00000  Uiso   1.00
N960   N     0.71598   0.49999   0.74998   0.00000  Uiso   1.00
N961   N     0.95069   0.50002   0.74999   0.00000  Uiso   1.00
O962   O     0.79375   0.56011   0.75000   0.00000  Uiso   1.00
O963   O     0.96558   0.35363   0.66538   0.00000  Uiso   1.00
O964   O     0.71494   0.56048   0.83833   0.00000  Uiso   1.00
O965   O     0.67481   0.60479   0.80054   0.00000  Uiso   1.00
O966   O     0.95152   0.40459   0.87662   0.00000  Uiso   1.00
O967   O     0.99626   0.45461   0.89922   0.00000  Uiso   1.00
O968   O     0.87294   0.56012   0.75000   0.00000  Uiso   1.00
O969   O     0.77441   0.49998   0.82549   0.00000  Uiso   1.00
O970   O     0.85360   0.49999   0.82549   0.00000  Uiso   1.00
O971   O     0.79373   0.43988   0.74999   0.00000  Uiso   1.00
O972   O     0.87292   0.43989   0.74999   0.00000  Uiso   1.00
O973   O     0.81306   0.50001   0.67451   0.00000  Uiso   1.00
O974   O     0.89225   0.50002   0.67451   0.00000  Uiso   1.00
O975   O     0.91362   0.40302   0.65285   0.00000  Uiso   1.00
C976   C     0.16653   0.91254   0.74997   0.00000  Uiso   1.00
C977   C     0.12443   0.82832   0.90792   0.00000  Uiso   1.00
C978   C     0.20859   0.97670   0.71704   0.00000  Uiso   1.00
C979   C     0.14037   0.83092   0.85013   0.00000  Uiso   1.00
C980   C     0.20947   0.68633   0.71444   0.00000  Uiso   1.00
C981   C     0.16835   0.70938   0.74625   0.00000  Uiso   1.00
C982   C     0.12717   0.68929   0.77814   0.00000  Uiso   1.00
C983   C     0.12662   0.97998   0.77933   0.00000  Uiso   1.00
C984   C     0.16706   0.95707   0.74871   0.00000  Uiso   1.00
C985   C     0.29959   0.86305   0.77656   0.00000  Uiso   1.00
C986   C     0.01544   0.86362   0.77674   0.00000  Uiso   1.00
C987   C     0.14548   0.82576   0.98964   0.00000  Uiso   1.00
C988   C     0.03314   0.80354   0.72301   0.00000  Uiso   1.00
C989   C     0.31700   0.80363   0.72294   0.00000  Uiso   1.00
C990   C     0.16742   0.75411   0.74831   0.00000  Uiso   1.00
C991   C     0.19312   0.83266   0.64981   0.00000  Uiso   1.00
C992   C     0.26450   0.79768   0.51271   0.00000  Uiso   1.00
C993   C     0.20858   0.82700   0.59264   0.00000  Uiso   1.00
C994   C     0.07683   0.84193   0.93631   0.00000  Uiso   1.00
C995   C     0.06277   0.84598   0.99048   0.00000  Uiso   1.00
C996   C     0.09670   0.83893   0.51696   0.00000  Uiso   1.00
C997   C     0.25236   0.70543   0.67621   0.00000  Uiso   1.00
C998   C     0.15746   0.81630   0.93543   0.00000  Uiso   1.00
C999   C     0.02697   0.89892   0.80604   0.00000  Uiso   1.00
C1000  C     0.28512   0.76940   0.90230   0.00000  Uiso   1.00
C1001  C     0.18238   0.82107   0.51455   0.00000  Uiso   1.00
C1002  C     0.22903   0.80302   0.98659   0.00000  Uiso   1.00
C1003  C     0.23800   0.78906   0.93425   0.00000  Uiso   1.00
C1004  C     0.20167   0.79462   0.91029   0.00000  Uiso   1.00
C1005  C     0.17413   0.83434   0.56669   0.00000  Uiso   1.00
C1006  C     0.25428   0.80952   0.56518   0.00000  Uiso   1.00
Cu1007 Cu    0.11978   0.83333   0.75000   0.00000  Uiso   1.00
Cu1008 Cu    0.21355   0.83334   0.75000   0.00000  Uiso   1.00
H1009  H     0.28138   0.80339   0.58479   0.00000  Uiso   1.00
H1010  H     0.02569   0.85599   0.51201   0.00000  Uiso   1.00
H1011  H     0.20847   0.78126   0.87146   0.00000  Uiso   1.00
H1012  H     0.23948   0.95833   0.69284   0.00000  Uiso   1.00
H1013  H     0.32514   0.70258   0.63843   0.00000  Uiso   1.00
H1014  H     0.27340   0.88643   0.79814   0.00000  Uiso   1.00
H1015  H     0.01240   0.95917   0.82703   0.00000  Uiso   1.00
H1016  H     0.02562   0.77206   0.87528   0.00000  Uiso   1.00
H1017  H     0.09576   0.70670   0.80302   0.00000  Uiso   1.00
H1018  H     0.09545   0.96488   0.80537   0.00000  Uiso   1.00
H1019  H     0.05836   0.77969   0.70120   0.00000  Uiso   1.00
H1020  H     0.30526   0.77983   0.70108   0.00000  Uiso   1.00
H1021  H     0.29966   0.78286   0.99382   0.00000  Uiso   1.00
H1022  H     0.14073   0.85035   0.58855   0.00000  Uiso   1.00
H1023  H     0.05049   0.85027   0.91667   0.00000  Uiso   1.00
H1024  H     0.08304   0.84298   0.55895   0.00000  Uiso   1.00
N1025  N     0.04931   0.83332   0.74998   0.00000  Uiso   1.00
N1026  N     0.28402   0.83335   0.74999   0.00000  Uiso   1.00
O1027  O     0.12708   0.89345   0.75000   0.00000  Uiso   1.00
O1028  O     0.29891   0.68696   0.66538   0.00000  Uiso   1.00
O1029  O     0.04828   0.89382   0.83833   0.00000  Uiso   1.00
O1030  O     0.00815   0.93812   0.80054   0.00000  Uiso   1.00
O1031  O     0.28485   0.73792   0.87662   0.00000  Uiso   1.00
O1032  O     0.32959   0.78795   0.89922   0.00000  Uiso   1.00
O1033  O     0.20627   0.89346   0.75000   0.00000  Uiso   1.00
O1034  O     0.10775   0.83332   0.82549   0.00000  Uiso   1.00
O1035  O     0.18694   0.83333   0.82549   0.00000  Uiso   1.00
O1036  O     0.12706   0.77321   0.74999   0.00000  Uiso   1.00
O1037  O     0.20625   0.77322   0.74999   0.00000  Uiso   1.00
O1038  O     0.14640   0.83334   0.67451   0.00000  Uiso   1.00
O1039  O     0.22559   0.83335   0.67451   0.00000  Uiso   1.00
O1040  O     0.24695   0.73635   0.65285   0.00000  Uiso   1.00
C1041  C     0.49986   0.91254   0.74997   0.00000  Uiso   1.00
C1042  C     0.45776   0.82832   0.90792   0.00000  Uiso   1.00
C1043  C     0.54193   0.97670   0.71704   0.00000  Uiso   1.00
C1044  C     0.47370   0.83092   0.85013   0.00000  Uiso   1.00
C1045  C     0.54280   0.68633   0.71444   0.00000  Uiso   1.00
C1046  C     0.50168   0.70938   0.74625   0.00000  Uiso   1.00
C1047  C     0.46050   0.68929   0.77814   0.00000  Uiso   1.00
C1048  C     0.45995   0.97998   0.77933   0.00000  Uiso   1.00
C1049  C     0.50039   0.95707   0.74871   0.00000  Uiso   1.00
C1050  C     0.63293   0.86305   0.77656   0.00000  Uiso   1.00
C1051  C     0.34878   0.86362   0.77674   0.00000  Uiso   1.00
C1052  C     0.47882   0.82576   0.98964   0.00000  Uiso   1.00
C1053  C     0.36647   0.80354   0.72301   0.00000  Uiso   1.00
C1054  C     0.65033   0.80363   0.72294   0.00000  Uiso   1.00
C1055  C     0.50075   0.75411   0.74831   0.00000  Uiso   1.00
C1056  C     0.52645   0.83266   0.64981   0.00000  Uiso   1.00
C1057  C     0.59783   0.79768   0.51271   0.00000  Uiso   1.00
C1058  C     0.54191   0.82700   0.59264   0.00000  Uiso   1.00
C1059  C     0.41016   0.84193   0.93631   0.00000  Uiso   1.00
C1060  C     0.39610   0.84598   0.99048   0.00000  Uiso   1.00
C1061  C     0.43003   0.83893   0.51696   0.00000  Uiso   1.00
C1062  C     0.58569   0.70543   0.67621   0.00000  Uiso   1.00
C1063  C     0.49079   0.81630   0.93543   0.00000  Uiso   1.00
C1064  C     0.36030   0.89892   0.80604   0.00000  Uiso   1.00
C1065  C     0.61845   0.76940   0.90230   0.00000  Uiso   1.00
C1066  C     0.51571   0.82107   0.51455   0.00000  Uiso   1.00
C1067  C     0.56237   0.80302   0.98659   0.00000  Uiso   1.00
C1068  C     0.57133   0.78906   0.93425   0.00000  Uiso   1.00
C1069  C     0.53500   0.79462   0.91029   0.00000  Uiso   1.00
C1070  C     0.50747   0.83434   0.56669   0.00000  Uiso   1.00
C1071  C     0.58761   0.80952   0.56518   0.00000  Uiso   1.00
Cu1072 Cu    0.45311   0.83333   0.75000   0.00000  Uiso   1.00
Cu1073 Cu    0.54689   0.83334   0.75000   0.00000  Uiso   1.00
H1074  H     0.61471   0.80339   0.58479   0.00000  Uiso   1.00
H1075  H     0.35903   0.85599   0.51201   0.00000  Uiso   1.00
H1076  H     0.54180   0.78126   0.87146   0.00000  Uiso   1.00
H1077  H     0.57281   0.95833   0.69284   0.00000  Uiso   1.00
H1078  H     0.65847   0.70258   0.63843   0.00000  Uiso   1.00
H1079  H     0.60674   0.88643   0.79814   0.00000  Uiso   1.00
H1080  H     0.34574   0.95917   0.82703   0.00000  Uiso   1.00
H1081  H     0.35895   0.77206   0.87528   0.00000  Uiso   1.00
H1082  H     0.42910   0.70670   0.80302   0.00000  Uiso   1.00
H1083  H     0.42878   0.96488   0.80537   0.00000  Uiso   1.00
H1084  H     0.39170   0.77969   0.70120   0.00000  Uiso   1.00
H1085  H     0.63860   0.77983   0.70108   0.00000  Uiso   1.00
H1086  H     0.63299   0.78286   0.99382   0.00000  Uiso   1.00
H1087  H     0.47406   0.85035   0.58855   0.00000  Uiso   1.00
H1088  H     0.38383   0.85027   0.91667   0.00000  Uiso   1.00
H1089  H     0.41637   0.84298   0.55895   0.00000  Uiso   1.00
N1090  N     0.38265   0.83332   0.74998   0.00000  Uiso   1.00
N1091  N     0.61735   0.83335   0.74999   0.00000  Uiso   1.00
O1092  O     0.46042   0.89345   0.75000   0.00000  Uiso   1.00
O1093  O     0.63224   0.68696   0.66538   0.00000  Uiso   1.00
O1094  O     0.38161   0.89382   0.83833   0.00000  Uiso   1.00
O1095  O     0.34148   0.93812   0.80054   0.00000  Uiso   1.00
O1096  O     0.61818   0.73792   0.87662   0.00000  Uiso   1.00
O1097  O     0.66292   0.78795   0.89922   0.00000  Uiso   1.00
O1098  O     0.53961   0.89346   0.75000   0.00000  Uiso   1.00
O1099  O     0.44108   0.83332   0.82549   0.00000  Uiso   1.00
O1100  O     0.52027   0.83333   0.82549   0.00000  Uiso   1.00
O1101  O     0.46039   0.77321   0.74999   0.00000  Uiso   1.00
O1102  O     0.53958   0.77322   0.74999   0.00000  Uiso   1.00
O1103  O     0.47973   0.83334   0.67451   0.00000  Uiso   1.00
O1104  O     0.55892   0.83335   0.67451   0.00000  Uiso   1.00
O1105  O     0.58029   0.73635   0.65285   0.00000  Uiso   1.00
C1106  C     0.83320   0.91254   0.74997   0.00000  Uiso   1.00
C1107  C     0.79110   0.82832   0.90792   0.00000  Uiso   1.00
C1108  C     0.87526   0.97670   0.71704   0.00000  Uiso   1.00
C1109  C     0.80704   0.83092   0.85013   0.00000  Uiso   1.00
C1110  C     0.87613   0.68633   0.71444   0.00000  Uiso   1.00
C1111  C     0.83502   0.70938   0.74625   0.00000  Uiso   1.00
C1112  C     0.79383   0.68929   0.77814   0.00000  Uiso   1.00
C1113  C     0.79328   0.97998   0.77933   0.00000  Uiso   1.00
C1114  C     0.83373   0.95707   0.74871   0.00000  Uiso   1.00
C1115  C     0.96626   0.86305   0.77656   0.00000  Uiso   1.00
C1116  C     0.68211   0.86362   0.77674   0.00000  Uiso   1.00
C1117  C     0.81215   0.82576   0.98964   0.00000  Uiso   1.00
C1118  C     0.69981   0.80354   0.72301   0.00000  Uiso   1.00
C1119  C     0.98367   0.80363   0.72294   0.00000  Uiso   1.00
C1120  C     0.83409   0.75411   0.74831   0.00000  Uiso   1.00
C1121  C     0.85979   0.83266   0.64981   0.00000  Uiso   1.00
C1122  C     0.93116   0.79768   0.51271   0.00000  Uiso   1.00
C1123  C     0.87524   0.82700   0.59264   0.00000  Uiso   1.00
C1124  C     0.74349   0.84193   0.93631   0.00000  Uiso   1.00
C1125  C     0.72944   0.84598   0.99048   0.00000  Uiso   1.00
C1126  C     0.76336   0.83893   0.51696   0.00000  Uiso   1.00
C1127  C     0.91902   0.70543   0.67621   0.00000  Uiso   1.00
C1128  C     0.82413   0.81630   0.93543   0.00000  Uiso   1.00
C1129  C     0.69363   0.89892   0.80604   0.00000  Uiso   1.00
C1130  C     0.95179   0.76940   0.90230   0.00000  Uiso   1.00
C1131  C     0.84904   0.82107   0.51455   0.00000  Uiso   1.00
C1132  C     0.89570   0.80302   0.98659   0.00000  Uiso   1.00
C1133  C     0.90467   0.78906   0.93425   0.00000  Uiso   1.00
C1134  C     0.86833   0.79462   0.91029   0.00000  Uiso   1.00
C1135  C     0.84080   0.83434   0.56669   0.00000  Uiso   1.00
C1136  C     0.92094   0.80952   0.56518   0.00000  Uiso   1.00
Cu1137 Cu    0.78645   0.83333   0.75000   0.00000  Uiso   1.00
Cu1138 Cu    0.88022   0.83334   0.75000   0.00000  Uiso   1.00
H1139  H     0.94804   0.80339   0.58479   0.00000  Uiso   1.00
H1140  H     0.69236   0.85599   0.51201   0.00000  Uiso   1.00
H1141  H     0.87513   0.78126   0.87146   0.00000  Uiso   1.00
H1142  H     0.90615   0.95833   0.69284   0.00000  Uiso   1.00
H1143  H     0.99180   0.70258   0.63843   0.00000  Uiso   1.00
H1144  H     0.94007   0.88643   0.79814   0.00000  Uiso   1.00
H1145  H     0.67907   0.95917   0.82703   0.00000  Uiso   1.00
H1146  H     0.69229   0.77206   0.87528   0.00000  Uiso   1.00
H1147  H     0.76243   0.70670   0.80302   0.00000  Uiso   1.00
H1148  H     0.76212   0.96488   0.80537   0.00000  Uiso   1.00
H1149  H     0.72503   0.77969   0.70120   0.00000  Uiso   1.00
H1150  H     0.97193   0.77983   0.70108   0.00000  Uiso   1.00
H1151  H     0.96632   0.78286   0.99382   0.00000  Uiso   1.00
H1152  H     0.80739   0.85035   0.58855   0.00000  Uiso   1.00
H1153  H     0.71716   0.85027   0.91667   0.00000  Uiso   1.00
H1154  H     0.74971   0.84298   0.55895   0.00000  Uiso   1.00
N1155  N     0.71598   0.83332   0.74998   0.00000  Uiso   1.00
N1156  N     0.95069   0.83335   0.74999   0.00000  Uiso   1.00
O1157  O     0.79375   0.89345   0.75000   0.00000  Uiso   1.00
O1158  O     0.96558   0.68696   0.66538   0.00000  Uiso   1.00
O1159  O     0.71494   0.89382   0.83833   0.00000  Uiso   1.00
O1160  O     0.67481   0.93812   0.80054   0.00000  Uiso   1.00
O1161  O     0.95152   0.73792   0.87662   0.00000  Uiso   1.00
O1162  O     0.99626   0.78795   0.89922   0.00000  Uiso   1.00
O1163  O     0.87294   0.89346   0.75000   0.00000  Uiso   1.00
O1164  O     0.77441   0.83332   0.82549   0.00000  Uiso   1.00
O1165  O     0.85360   0.83333   0.82549   0.00000  Uiso   1.00
O1166  O     0.79373   0.77321   0.74999   0.00000  Uiso   1.00
O1167  O     0.87292   0.77322   0.74999   0.00000  Uiso   1.00
O1168  O     0.81306   0.83334   0.67451   0.00000  Uiso   1.00
O1169  O     0.89225   0.83335   0.67451   0.00000  Uiso   1.00
O1170  O     0.91362   0.73635   0.65285   0.00000  Uiso   1.00
loop_
_geom_bond_atom_site_label_1
_geom_bond_atom_site_label_2
_geom_bond_distance
_geom_bond_site_symmetry_2
_ccdc_geom_bond_type
C1     O58     1.289   .     A
C1     O52     1.297   .     A
C1     C9      1.443   .     S
C2     C4      1.478   .     S
C2     C23     1.424   .     A
C2     C19     1.402   .     A
C3     C9      1.398   .     A
C3     H37     1.085   .     S
C3     C200    1.394   .     S
C4     O60     1.297   .     A
C4     O59     1.305   .     A
C5     C6      1.417   .     A
C5     C22     1.485   .     S
C5     C393    1.394   1_545 S
C6     C7      1.400   .     A
C6     C15     1.448   .     S
C7     H42     1.084   .     S
C7     C398    1.382   1_545 S
C8     C9      1.391   .     A
C8     H43     1.077   .     S
C8     C202    1.382   .     S
C10    N51     1.350   .     A
C10    H39     1.083   .     S
C10    C76     1.413   .     S
C11    N50     1.393   .     A
C11    C24     1.476   .     S
C11    C140    1.413   1_455 S
C12    C23     1.415   .     A
C12    C606    1.419   .     S
C12    C611    1.424   .     S
C13    N50     1.367   .     A
C13    H44     1.082   .     S
C13    C144    1.420   1_455 S
C14    H45     1.080   .     S
C14    N51     1.369   .     A
C14    C78     1.420   .     S
C15    O61     1.293   .     A
C15    O62     1.295   .     A
C16    O63     1.297   .     A
C16    C18     1.466   .     S
C16    O64     1.300   .     A
C17    C31     1.393   .     A
C17    C612    1.413   1_554 S
C17    H631    1.080   1_554 S
C18    C30     1.394   .     A
C18    C31     1.396   .     A
C19    C20     1.386   .     A
C19    H48     1.080   .     S
C20    C606    1.390   .     S
C20    H620    1.083   .     S
C21    H49     1.077   .     S
C21    C605    1.390   1_554 S
C21    C597    1.419   1_554 S
C22    O65     1.222   .     D
C22    O53     1.399   .     S
C23    C29     1.409   .     A
C24    O55     1.400   .     S
C24    O54     1.217   .     D
C25    O56     1.223   .     D
C25    O57     1.397   .     S
C25    C28     1.485   .     S
C26    C30     1.404   .     A
C26    C597    1.424   1_554 S
C26    C612    1.427   1_554 S
C27    C28     1.413   .     A
C27    C602    1.413   .     S
C27    C611    1.427   .     S
C28    C29     1.395   .     A
C29    H36     1.081   .     S
C30    H47     1.076   .     S
C31    H34     1.083   .     S
Cu32   Cu33    2.690   .     S
Cu32   N50     2.022   .     S
Cu32   O61     1.955   .     S
Cu32   O63     1.930   .     S
Cu32   O52     1.961   .     S
Cu32   O59     1.946   .     S
Cu33   N51     2.021   .     S
Cu33   O58     1.955   .     S
Cu33   O64     1.946   .     S
Cu33   O60     1.930   .     S
Cu33   O62     1.961   .     S
H35    C605    1.083   1_554 S
H38    O53     1.014   .     S
H40    O55     1.013   .     S
H41    O187    1.014   1_455 S
H46    C602    1.080   .     S
O57    H106    1.014   .     S
C66    O123    1.289   .     A
C66    O117    1.297   .     A
C66    C74     1.443   .     S
C67    C69     1.478   .     S
C67    C88     1.424   .     A
C67    C84     1.402   .     A
C68    C74     1.398   .     A
C68    H102    1.085   .     S
C68    C265    1.394   .     S
C69    O125    1.297   .     A
C69    O124    1.305   .     A
C70    C71     1.417   .     A
C70    C87     1.485   .     S
C70    C458    1.394   1_545 S
C71    C72     1.400   .     A
C71    C80     1.448   .     S
C72    H107    1.084   .     S
C72    C463    1.382   1_545 S
C73    C74     1.391   .     A
C73    H108    1.077   .     S
C73    C267    1.382   .     S
C75    N116    1.350   .     A
C75    H104    1.083   .     S
C75    C141    1.413   .     S
C76    N115    1.393   .     A
C76    C89     1.476   .     S
C77    C88     1.415   .     A
C77    C671    1.419   .     S
C77    C676    1.424   .     S
C78    N115    1.367   .     A
C78    H109    1.082   .     S
C79    H110    1.080   .     S
C79    N116    1.369   .     A
C79    C143    1.420   .     S
C80    O126    1.293   .     A
C80    O127    1.295   .     A
C81    O128    1.297   .     A
C81    C83     1.466   .     S
C81    O129    1.300   .     A
C82    C96     1.393   .     A
C82    C677    1.413   1_554 S
C82    H696    1.080   1_554 S
C83    C95     1.394   .     A
C83    C96     1.396   .     A
C84    C85     1.386   .     A
C84    H113    1.080   .     S
C85    C671    1.390   .     S
C85    H685    1.083   .     S
C86    H114    1.077   .     S
C86    C670    1.390   1_554 S
C86    C662    1.419   1_554 S
C87    O130    1.222   .     D
C87    O118    1.399   .     S
C88    C94     1.409   .     A
C89    O120    1.400   .     S
C89    O119    1.217   .     D
C90    O121    1.223   .     D
C90    O122    1.397   .     S
C90    C93     1.485   .     S
C91    C95     1.404   .     A
C91    C662    1.424   1_554 S
C91    C677    1.427   1_554 S
C92    C93     1.413   .     A
C92    C667    1.413   .     S
C92    C676    1.427   .     S
C93    C94     1.395   .     A
C94    H101    1.081   .     S
C95    H112    1.076   .     S
C96    H99     1.083   .     S
Cu97   Cu98    2.690   .     S
Cu97   N115    2.022   .     S
Cu97   O126    1.955   .     S
Cu97   O128    1.930   .     S
Cu97   O117    1.961   .     S
Cu97   O124    1.946   .     S
Cu98   N116    2.021   .     S
Cu98   O123    1.955   .     S
Cu98   O129    1.946   .     S
Cu98   O125    1.930   .     S
Cu98   O127    1.961   .     S
H100   C670    1.083   1_554 S
H103   O118    1.014   .     S
H105   O120    1.013   .     S
H111   C667    1.080   .     S
O122   H171    1.014   .     S
C131   O188    1.289   .     A
C131   O182    1.297   .     A
C131   C139    1.443   .     S
C132   C134    1.478   .     S
C132   C153    1.424   .     A
C132   C149    1.402   .     A
C133   C139    1.398   .     A
C133   H167    1.085   .     S
C133   C330    1.394   .     S
C134   O190    1.297   .     A
C134   O189    1.305   .     A
C135   C136    1.417   .     A
C135   C152    1.485   .     S
C135   C523    1.394   1_545 S
C136   C137    1.400   .     A
C136   C145    1.448   .     S
C137   H172    1.084   .     S
C137   C528    1.382   1_545 S
C138   C139    1.391   .     A
C138   H173    1.077   .     S
C138   C332    1.382   .     S
C140   N181    1.350   .     A
C140   H169    1.083   .     S
C140   C11     1.413   1_655 S
C141   N180    1.393   .     A
C141   C154    1.476   .     S
C142   C153    1.415   .     A
C142   C736    1.419   .     S
C142   C741    1.424   .     S
C143   N180    1.367   .     A
C143   H174    1.082   .     S
C144   H175    1.080   .     S
C144   N181    1.369   .     A
C144   C13     1.420   1_655 S
C145   O191    1.293   .     A
C145   O192    1.295   .     A
C146   O193    1.297   .     A
C146   C148    1.466   .     S
C146   O194    1.300   .     A
C147   C161    1.393   .     A
C147   C742    1.413   1_554 S
C147   H761    1.080   1_554 S
C148   C160    1.394   .     A
C148   C161    1.396   .     A
C149   C150    1.386   .     A
C149   H178    1.080   .     S
C150   C736    1.390   .     S
C150   H750    1.083   .     S
C151   H179    1.077   .     S
C151   C735    1.390   1_554 S
C151   C727    1.419   1_554 S
C152   O195    1.222   .     D
C152   O183    1.399   .     S
C153   C159    1.409   .     A
C154   O185    1.400   .     S
C154   O184    1.217   .     D
C155   O186    1.223   .     D
C155   O187    1.397   .     S
C155   C158    1.485   .     S
C156   C160    1.404   .     A
C156   C727    1.424   1_554 S
C156   C742    1.427   1_554 S
C157   C158    1.413   .     A
C157   C732    1.413   .     S
C157   C741    1.427   .     S
C158   C159    1.395   .     A
C159   H166    1.081   .     S
C160   H177    1.076   .     S
C161   H164    1.083   .     S
Cu162  Cu163   2.690   .     S
Cu162  N180    2.022   .     S
Cu162  O191    1.955   .     S
Cu162  O193    1.930   .     S
Cu162  O182    1.961   .     S
Cu162  O189    1.946   .     S
Cu163  N181    2.021   .     S
Cu163  O188    1.955   .     S
Cu163  O194    1.946   .     S
Cu163  O190    1.930   .     S
Cu163  O192    1.961   .     S
H165   C735    1.083   1_554 S
H168   O183    1.014   .     S
H170   O185    1.013   .     S
H176   C732    1.080   .     S
O187   H41     1.014   1_655 S
C196   O253    1.289   .     A
C196   O247    1.297   .     A
C196   C204    1.443   .     S
C197   C199    1.478   .     S
C197   C218    1.424   .     A
C197   C214    1.402   .     A
C198   C204    1.398   .     A
C198   H232    1.085   .     S
C198   C395    1.394   .     S
C199   O255    1.297   .     A
C199   O254    1.305   .     A
C200   C201    1.417   .     A
C200   C217    1.485   .     S
C201   C202    1.400   .     A
C201   C210    1.448   .     S
C202   H237    1.084   .     S
C203   C204    1.391   .     A
C203   H238    1.077   .     S
C203   C397    1.382   .     S
C205   N246    1.350   .     A
C205   H234    1.083   .     S
C205   C271    1.413   .     S
C206   N245    1.393   .     A
C206   C219    1.476   .     S
C206   C335    1.413   1_455 S
C207   C218    1.415   .     A
C207   C801    1.419   .     S
C207   C806    1.424   .     S
C208   N245    1.367   .     A
C208   H239    1.082   .     S
C208   C339    1.420   1_455 S
C209   H240    1.080   .     S
C209   N246    1.369   .     A
C209   C273    1.420   .     S
C210   O256    1.293   .     A
C210   O257    1.295   .     A
C211   O258    1.297   .     A
C211   C213    1.466   .     S
C211   O259    1.300   .     A
C212   C226    1.393   .     A
C212   C807    1.413   1_554 S
C212   H826    1.080   1_554 S
C213   C225    1.394   .     A
C213   C226    1.396   .     A
C214   C215    1.386   .     A
C214   H243    1.080   .     S
C215   C801    1.390   .     S
C215   H815    1.083   .     S
C216   H244    1.077   .     S
C216   C800    1.390   1_554 S
C216   C792    1.419   1_554 S
C217   O260    1.222   .     D
C217   O248    1.399   .     S
C218   C224    1.409   .     A
C219   O250    1.400   .     S
C219   O249    1.217   .     D
C220   O251    1.223   .     D
C220   O252    1.397   .     S
C220   C223    1.485   .     S
C221   C225    1.404   .     A
C221   C792    1.424   1_554 S
C221   C807    1.427   1_554 S
C222   C223    1.413   .     A
C222   C797    1.413   .     S
C222   C806    1.427   .     S
C223   C224    1.395   .     A
C224   H231    1.081   .     S
C225   H242    1.076   .     S
C226   H229    1.083   .     S
Cu227  Cu228   2.690   .     S
Cu227  N245    2.022   .     S
Cu227  O256    1.955   .     S
Cu227  O258    1.930   .     S
Cu227  O247    1.961   .     S
Cu227  O254    1.946   .     S
Cu228  N246    2.021   .     S
Cu228  O253    1.955   .     S
Cu228  O259    1.946   .     S
Cu228  O255    1.930   .     S
Cu228  O257    1.961   .     S
H230   C800    1.083   1_554 S
H233   O248    1.014   .     S
H235   O250    1.013   .     S
H236   O382    1.014   1_455 S
H241   C797    1.080   .     S
O252   H301    1.014   .     S
C261   O318    1.289   .     A
C261   O312    1.297   .     A
C261   C269    1.443   .     S
C262   C264    1.478   .     S
C262   C283    1.424   .     A
C262   C279    1.402   .     A
C263   C269    1.398   .     A
C263   H297    1.085   .     S
C263   C460    1.394   .     S
C264   O320    1.297   .     A
C264   O319    1.305   .     A
C265   C266    1.417   .     A
C265   C282    1.485   .     S
C266   C267    1.400   .     A
C266   C275    1.448   .     S
C267   H302    1.084   .     S
C268   C269    1.391   .     A
C268   H303    1.077   .     S
C268   C462    1.382   .     S
C270   N311    1.350   .     A
C270   H299    1.083   .     S
C270   C336    1.413   .     S
C271   N310    1.393   .     A
C271   C284    1.476   .     S
C272   C283    1.415   .     A
C272   C866    1.419   .     S
C272   C871    1.424   .     S
C273   N310    1.367   .     A
C273   H304    1.082   .     S
C274   H305    1.080   .     S
C274   N311    1.369   .     A
C274   C338    1.420   .     S
C275   O321    1.293   .     A
C275   O322    1.295   .     A
C276   O323    1.297   .     A
C276   C278    1.466   .     S
C276   O324    1.300   .     A
C277   C291    1.393   .     A
C277   C872    1.413   1_554 S
C277   H891    1.080   1_554 S
C278   C290    1.394   .     A
C278   C291    1.396   .     A
C279   C280    1.386   .     A
C279   H308    1.080   .     S
C280   C866    1.390   .     S
C280   H880    1.083   .     S
C281   H309    1.077   .     S
C281   C865    1.390   1_554 S
C281   C857    1.419   1_554 S
C282   O325    1.222   .     D
C282   O313    1.399   .     S
C283   C289    1.409   .     A
C284   O315    1.400   .     S
C284   O314    1.217   .     D
C285   O316    1.223   .     D
C285   O317    1.397   .     S
C285   C288    1.485   .     S
C286   C290    1.404   .     A
C286   C857    1.424   1_554 S
C286   C872    1.427   1_554 S
C287   C288    1.413   .     A
C287   C862    1.413   .     S
C287   C871    1.427   .     S
C288   C289    1.395   .     A
C289   H296    1.081   .     S
C290   H307    1.076   .     S
C291   H294    1.083   .     S
Cu292  Cu293   2.690   .     S
Cu292  N310    2.022   .     S
Cu292  O321    1.955   .     S
Cu292  O323    1.930   .     S
Cu292  O312    1.961   .     S
Cu292  O319    1.946   .     S
Cu293  N311    2.021   .     S
Cu293  O318    1.955   .     S
Cu293  O324    1.946   .     S
Cu293  O320    1.930   .     S
Cu293  O322    1.961   .     S
H295   C865    1.083   1_554 S
H298   O313    1.014   .     S
H300   O315    1.013   .     S
H306   C862    1.080   .     S
O317   H366    1.014   .     S
C326   O383    1.289   .     A
C326   O377    1.297   .     A
C326   C334    1.443   .     S
C327   C329    1.478   .     S
C327   C348    1.424   .     A
C327   C344    1.402   .     A
C328   C334    1.398   .     A
C328   H362    1.085   .     S
C328   C525    1.394   .     S
C329   O385    1.297   .     A
C329   O384    1.305   .     A
C330   C331    1.417   .     A
C330   C347    1.485   .     S
C331   C332    1.400   .     A
C331   C340    1.448   .     S
C332   H367    1.084   .     S
C333   C334    1.391   .     A
C333   H368    1.077   .     S
C333   C527    1.382   .     S
C335   N376    1.350   .     A
C335   H364    1.083   .     S
C335   C206    1.413   1_655 S
C336   N375    1.393   .     A
C336   C349    1.476   .     S
C337   C348    1.415   .     A
C337   C931    1.419   .     S
C337   C936    1.424   .     S
C338   N375    1.367   .     A
C338   H369    1.082   .     S
C339   H370    1.080   .     S
C339   N376    1.369   .     A
C339   C208    1.420   1_655 S
C340   O386    1.293   .     A
C340   O387    1.295   .     A
C341   O388    1.297   .     A
C341   C343    1.466   .     S
C341   O389    1.300   .     A
C342   C356    1.393   .     A
C342   C937    1.413   1_554 S
C342   H956    1.080   1_554 S
C343   C355    1.394   .     A
C343   C356    1.396   .     A
C344   C345    1.386   .     A
C344   H373    1.080   .     S
C345   C931    1.390   .     S
C345   H945    1.083   .     S
C346   H374    1.077   .     S
C346   C930    1.390   1_554 S
C346   C922    1.419   1_554 S
C347   O390    1.222   .     D
C347   O378    1.399   .     S
C348   C354    1.409   .     A
C349   O380    1.400   .     S
C349   O379    1.217   .     D
C350   O381    1.223   .     D
C350   O382    1.397   .     S
C350   C353    1.485   .     S
C351   C355    1.404   .     A
C351   C922    1.424   1_554 S
C351   C937    1.427   1_554 S
C352   C353    1.413   .     A
C352   C927    1.413   .     S
C352   C936    1.427   .     S
C353   C354    1.395   .     A
C354   H361    1.081   .     S
C355   H372    1.076   .     S
C356   H359    1.083   .     S
Cu357  Cu358   2.690   .     S
Cu357  N375    2.022   .     S
Cu357  O386    1.955   .     S
Cu357  O388    1.930   .     S
Cu357  O377    1.961   .     S
Cu357  O384    1.946   .     S
Cu358  N376    2.021   .     S
Cu358  O383    1.955   .     S
Cu358  O389    1.946   .     S
Cu358  O385    1.930   .     S
Cu358  O387    1.961   .     S
H360   C930    1.083   1_554 S
H363   O378    1.014   .     S
H365   O380    1.013   .     S
H371   C927    1.080   .     S
O382   H236    1.014   1_655 S
C391   O448    1.289   .     A
C391   O442    1.297   .     A
C391   C399    1.443   .     S
C392   C394    1.478   .     S
C392   C413    1.424   .     A
C392   C409    1.402   .     A
C393   C399    1.398   .     A
C393   H427    1.085   .     S
C393   C5      1.394   1_565 S
C394   O450    1.297   .     A
C394   O449    1.305   .     A
C395   C396    1.417   .     A
C395   C412    1.485   .     S
C396   C397    1.400   .     A
C396   C405    1.448   .     S
C397   H432    1.084   .     S
C398   C399    1.391   .     A
C398   H433    1.077   .     S
C398   C7      1.382   1_565 S
C400   N441    1.350   .     A
C400   H429    1.083   .     S
C400   C466    1.413   .     S
C401   N440    1.393   .     A
C401   C414    1.476   .     S
C401   C530    1.413   1_455 S
C402   C413    1.415   .     A
C402   C996    1.419   .     S
C402   C1001   1.424   .     S
C403   N440    1.367   .     A
C403   H434    1.082   .     S
C403   C534    1.420   1_455 S
C404   H435    1.080   .     S
C404   N441    1.369   .     A
C404   C468    1.420   .     S
C405   O451    1.293   .     A
C405   O452    1.295   .     A
C406   O453    1.297   .     A
C406   C408    1.466   .     S
C406   O454    1.300   .     A
C407   C421    1.393   .     A
C407   C1002   1.413   1_554 S
C407   H1021   1.080   1_554 S
C408   C420    1.394   .     A
C408   C421    1.396   .     A
C409   C410    1.386   .     A
C409   H438    1.080   .     S
C410   C996    1.390   .     S
C410   H1010   1.083   .     S
C411   H439    1.077   .     S
C411   C995    1.390   1_554 S
C411   C987    1.419   1_554 S
C412   O455    1.222   .     D
C412   O443    1.399   .     S
C413   C419    1.409   .     A
C414   O445    1.400   .     S
C414   O444    1.217   .     D
C415   O446    1.223   .     D
C415   O447    1.397   .     S
C415   C418    1.485   .     S
C416   C420    1.404   .     A
C416   C987    1.424   1_554 S
C416   C1002   1.427   1_554 S
C417   C418    1.413   .     A
C417   C992    1.413   .     S
C417   C1001   1.427   .     S
C418   C419    1.395   .     A
C419   H426    1.081   .     S
C420   H437    1.076   .     S
C421   H424    1.083   .     S
Cu422  Cu423   2.690   .     S
Cu422  N440    2.022   .     S
Cu422  O451    1.955   .     S
Cu422  O453    1.930   .     S
Cu422  O442    1.961   .     S
Cu422  O449    1.946   .     S
Cu423  N441    2.021   .     S
Cu423  O448    1.955   .     S
Cu423  O454    1.946   .     S
Cu423  O450    1.930   .     S
Cu423  O452    1.961   .     S
H425   C995    1.083   1_554 S
H428   O443    1.014   .     S
H430   O445    1.013   .     S
H431   O577    1.014   1_455 S
H436   C992    1.080   .     S
O447   H496    1.014   .     S
C456   O513    1.289   .     A
C456   O507    1.297   .     A
C456   C464    1.443   .     S
C457   C459    1.478   .     S
C457   C478    1.424   .     A
C457   C474    1.402   .     A
C458   C464    1.398   .     A
C458   H492    1.085   .     S
C458   C70     1.394   1_565 S
C459   O515    1.297   .     A
C459   O514    1.305   .     A
C460   C461    1.417   .     A
C460   C477    1.485   .     S
C461   C462    1.400   .     A
C461   C470    1.448   .     S
C462   H497    1.084   .     S
C463   C464    1.391   .     A
C463   H498    1.077   .     S
C463   C72     1.382   1_565 S
C465   N506    1.350   .     A
C465   H494    1.083   .     S
C465   C531    1.413   .     S
C466   N505    1.393   .     A
C466   C479    1.476   .     S
C467   C478    1.415   .     A
C467   C1061   1.419   .     S
C467   C1066   1.424   .     S
C468   N505    1.367   .     A
C468   H499    1.082   .     S
C469   H500    1.080   .     S
C469   N506    1.369   .     A
C469   C533    1.420   .     S
C470   O516    1.293   .     A
C470   O517    1.295   .     A
C471   O518    1.297   .     A
C471   C473    1.466   .     S
C471   O519    1.300   .     A
C472   C486    1.393   .     A
C472   C1067   1.413   1_554 S
C472   H1086   1.080   1_554 S
C473   C485    1.394   .     A
C473   C486    1.396   .     A
C474   C475    1.386   .     A
C474   H503    1.080   .     S
C475   C1061   1.390   .     S
C475   H1075   1.083   .     S
C476   H504    1.077   .     S
C476   C1060   1.390   1_554 S
C476   C1052   1.419   1_554 S
C477   O520    1.222   .     D
C477   O508    1.399   .     S
C478   C484    1.409   .     A
C479   O510    1.400   .     S
C479   O509    1.217   .     D
C480   O511    1.223   .     D
C480   O512    1.397   .     S
C480   C483    1.485   .     S
C481   C485    1.404   .     A
C481   C1052   1.424   1_554 S
C481   C1067   1.427   1_554 S
C482   C483    1.413   .     A
C482   C1057   1.413   .     S
C482   C1066   1.427   .     S
C483   C484    1.395   .     A
C484   H491    1.081   .     S
C485   H502    1.076   .     S
C486   H489    1.083   .     S
Cu487  Cu488   2.690   .     S
Cu487  N505    2.022   .     S
Cu487  O516    1.955   .     S
Cu487  O518    1.930   .     S
Cu487  O507    1.961   .     S
Cu487  O514    1.946   .     S
Cu488  N506    2.021   .     S
Cu488  O513    1.955   .     S
Cu488  O519    1.946   .     S
Cu488  O515    1.930   .     S
Cu488  O517    1.961   .     S
H490   C1060   1.083   1_554 S
H493   O508    1.014   .     S
H495   O510    1.013   .     S
H501   C1057   1.080   .     S
O512   H561    1.014   .     S
C521   O578    1.289   .     A
C521   O572    1.297   .     A
C521   C529    1.443   .     S
C522   C524    1.478   .     S
C522   C543    1.424   .     A
C522   C539    1.402   .     A
C523   C529    1.398   .     A
C523   H557    1.085   .     S
C523   C135    1.394   1_565 S
C524   O580    1.297   .     A
C524   O579    1.305   .     A
C525   C526    1.417   .     A
C525   C542    1.485   .     S
C526   C527    1.400   .     A
C526   C535    1.448   .     S
C527   H562    1.084   .     S
C528   C529    1.391   .     A
C528   H563    1.077   .     S
C528   C137    1.382   1_565 S
C530   N571    1.350   .     A
C530   H559    1.083   .     S
C530   C401    1.413   1_655 S
C531   N570    1.393   .     A
C531   C544    1.476   .     S
C532   C543    1.415   .     A
C532   C1126   1.419   .     S
C532   C1131   1.424   .     S
C533   N570    1.367   .     A
C533   H564    1.082   .     S
C534   H565    1.080   .     S
C534   N571    1.369   .     A
C534   C403    1.420   1_655 S
C535   O581    1.293   .     A
C535   O582    1.295   .     A
C536   O583    1.297   .     A
C536   C538    1.466   .     S
C536   O584    1.300   .     A
C537   C551    1.393   .     A
C537   C1132   1.413   1_554 S
C537   H1151   1.080   1_554 S
C538   C550    1.394   .     A
C538   C551    1.396   .     A
C539   C540    1.386   .     A
C539   H568    1.080   .     S
C540   C1126   1.390   .     S
C540   H1140   1.083   .     S
C541   H569    1.077   .     S
C541   C1125   1.390   1_554 S
C541   C1117   1.419   1_554 S
C542   O585    1.222   .     D
C542   O573    1.399   .     S
C543   C549    1.409   .     A
C544   O575    1.400   .     S
C544   O574    1.217   .     D
C545   O576    1.223   .     D
C545   O577    1.397   .     S
C545   C548    1.485   .     S
C546   C550    1.404   .     A
C546   C1117   1.424   1_554 S
C546   C1132   1.427   1_554 S
C547   C548    1.413   .     A
C547   C1122   1.413   .     S
C547   C1131   1.427   .     S
C548   C549    1.395   .     A
C549   H556    1.081   .     S
C550   H567    1.076   .     S
C551   H554    1.083   .     S
Cu552  Cu553   2.690   .     S
Cu552  N570    2.022   .     S
Cu552  O581    1.955   .     S
Cu552  O583    1.930   .     S
Cu552  O572    1.961   .     S
Cu552  O579    1.946   .     S
Cu553  N571    2.021   .     S
Cu553  O578    1.955   .     S
Cu553  O584    1.946   .     S
Cu553  O580    1.930   .     S
Cu553  O582    1.961   .     S
H555   C1125   1.083   1_554 S
H558   O573    1.014   .     S
H560   O575    1.013   .     S
H566   C1122   1.080   .     S
O577   H431    1.014   1_655 S
C586   O643    1.289   .     A
C586   O637    1.297   .     A
C586   C594    1.443   .     S
C587   C589    1.478   .     S
C587   C608    1.424   .     A
C587   C604    1.402   .     A
C588   C594    1.398   .     A
C588   H622    1.085   .     S
C588   C785    1.394   .     S
C589   O645    1.297   .     A
C589   O644    1.305   .     A
C590   C591    1.417   .     A
C590   C607    1.485   .     S
C590   C978    1.394   1_545 S
C591   C592    1.400   .     A
C591   C600    1.448   .     S
C592   H627    1.084   .     S
C592   C983    1.382   1_545 S
C593   C594    1.391   .     A
C593   H628    1.077   .     S
C593   C787    1.382   .     S
C595   N636    1.350   .     A
C595   H624    1.083   .     S
C595   C661    1.413   .     S
C596   N635    1.393   .     A
C596   C609    1.476   .     S
C596   C725    1.413   1_455 S
C597   C608    1.415   .     A
C597   C21     1.419   1_556 S
C597   C26     1.424   1_556 S
C598   N635    1.367   .     A
C598   H629    1.082   .     S
C598   C729    1.420   1_455 S
C599   H630    1.080   .     S
C599   N636    1.369   .     A
C599   C663    1.420   .     S
C600   O646    1.293   .     A
C600   O647    1.295   .     A
C601   O648    1.297   .     A
C601   C603    1.466   .     S
C601   O649    1.300   .     A
C602   C616    1.393   .     A
C603   C615    1.394   .     A
C603   C616    1.396   .     A
C604   C605    1.386   .     A
C604   H633    1.080   .     S
C605   C21     1.390   1_556 S
C605   H35     1.083   1_556 S
C606   H634    1.077   .     S
C607   O650    1.222   .     D
C607   O638    1.399   .     S
C608   C614    1.409   .     A
C609   O640    1.400   .     S
C609   O639    1.217   .     D
C610   O641    1.223   .     D
C610   O642    1.397   .     S
C610   C613    1.485   .     S
C611   C615    1.404   .     A
C612   C613    1.413   .     A
C612   C17     1.413   1_556 S
C612   C26     1.427   1_556 S
C613   C614    1.395   .     A
C614   H621    1.081   .     S
C615   H632    1.076   .     S
C616   H619    1.083   .     S
Cu617  Cu618   2.690   .     S
Cu617  N635    2.022   .     S
Cu617  O646    1.955   .     S
Cu617  O648    1.930   .     S
Cu617  O637    1.961   .     S
Cu617  O644    1.946   .     S
Cu618  N636    2.021   .     S
Cu618  O643    1.955   .     S
Cu618  O649    1.946   .     S
Cu618  O645    1.930   .     S
Cu618  O647    1.961   .     S
H623   O638    1.014   .     S
H625   O640    1.013   .     S
H626   O772    1.014   1_455 S
H631   C17     1.080   1_556 S
O642   H691    1.014   .     S
C651   O708    1.289   .     A
C651   O702    1.297   .     A
C651   C659    1.443   .     S
C652   C654    1.478   .     S
C652   C673    1.424   .     A
C652   C669    1.402   .     A
C653   C659    1.398   .     A
C653   H687    1.085   .     S
C653   C850    1.394   .     S
C654   O710    1.297   .     A
C654   O709    1.305   .     A
C655   C656    1.417   .     A
C655   C672    1.485   .     S
C655   C1043   1.394   1_545 S
C656   C657    1.400   .     A
C656   C665    1.448   .     S
C657   H692    1.084   .     S
C657   C1048   1.382   1_545 S
C658   C659    1.391   .     A
C658   H693    1.077   .     S
C658   C852    1.382   .     S
C660   N701    1.350   .     A
C660   H689    1.083   .     S
C660   C726    1.413   .     S
C661   N700    1.393   .     A
C661   C674    1.476   .     S
C662   C673    1.415   .     A
C662   C86     1.419   1_556 S
C662   C91     1.424   1_556 S
C663   N700    1.367   .     A
C663   H694    1.082   .     S
C664   H695    1.080   .     S
C664   N701    1.369   .     A
C664   C728    1.420   .     S
C665   O711    1.293   .     A
C665   O712    1.295   .     A
C666   O713    1.297   .     A
C666   C668    1.466   .     S
C666   O714    1.300   .     A
C667   C681    1.393   .     A
C668   C680    1.394   .     A
C668   C681    1.396   .     A
C669   C670    1.386   .     A
C669   H698    1.080   .     S
C670   C86     1.390   1_556 S
C670   H100    1.083   1_556 S
C671   H699    1.077   .     S
C672   O715    1.222   .     D
C672   O703    1.399   .     S
C673   C679    1.409   .     A
C674   O705    1.400   .     S
C674   O704    1.217   .     D
C675   O706    1.223   .     D
C675   O707    1.397   .     S
C675   C678    1.485   .     S
C676   C680    1.404   .     A
C677   C678    1.413   .     A
C677   C82     1.413   1_556 S
C677   C91     1.427   1_556 S
C678   C679    1.395   .     A
C679   H686    1.081   .     S
C680   H697    1.076   .     S
C681   H684    1.083   .     S
Cu682  Cu683   2.690   .     S
Cu682  N700    2.022   .     S
Cu682  O711    1.955   .     S
Cu682  O713    1.930   .     S
Cu682  O702    1.961   .     S
Cu682  O709    1.946   .     S
Cu683  N701    2.021   .     S
Cu683  O708    1.955   .     S
Cu683  O714    1.946   .     S
Cu683  O710    1.930   .     S
Cu683  O712    1.961   .     S
H688   O703    1.014   .     S
H690   O705    1.013   .     S
H696   C82     1.080   1_556 S
O707   H756    1.014   .     S
C716   O773    1.289   .     A
C716   O767    1.297   .     A
C716   C724    1.443   .     S
C717   C719    1.478   .     S
C717   C738    1.424   .     A
C717   C734    1.402   .     A
C718   C724    1.398   .     A
C718   H752    1.085   .     S
C718   C915    1.394   .     S
C719   O775    1.297   .     A
C719   O774    1.305   .     A
C720   C721    1.417   .     A
C720   C737    1.485   .     S
C720   C1108   1.394   1_545 S
C721   C722    1.400   .     A
C721   C730    1.448   .     S
C722   H757    1.084   .     S
C722   C1113   1.382   1_545 S
C723   C724    1.391   .     A
C723   H758    1.077   .     S
C723   C917    1.382   .     S
C725   N766    1.350   .     A
C725   H754    1.083   .     S
C725   C596    1.413   1_655 S
C726   N765    1.393   .     A
C726   C739    1.476   .     S
C727   C738    1.415   .     A
C727   C151    1.419   1_556 S
C727   C156    1.424   1_556 S
C728   N765    1.367   .     A
C728   H759    1.082   .     S
C729   H760    1.080   .     S
C729   N766    1.369   .     A
C729   C598    1.420   1_655 S
C730   O776    1.293   .     A
C730   O777    1.295   .     A
C731   O778    1.297   .     A
C731   C733    1.466   .     S
C731   O779    1.300   .     A
C732   C746    1.393   .     A
C733   C745    1.394   .     A
C733   C746    1.396   .     A
C734   C735    1.386   .     A
C734   H763    1.080   .     S
C735   C151    1.390   1_556 S
C735   H165    1.083   1_556 S
C736   H764    1.077   .     S
C737   O780    1.222   .     D
C737   O768    1.399   .     S
C738   C744    1.409   .     A
C739   O770    1.400   .     S
C739   O769    1.217   .     D
C740   O771    1.223   .     D
C740   O772    1.397   .     S
C740   C743    1.485   .     S
C741   C745    1.404   .     A
C742   C743    1.413   .     A
C742   C147    1.413   1_556 S
C742   C156    1.427   1_556 S
C743   C744    1.395   .     A
C744   H751    1.081   .     S
C745   H762    1.076   .     S
C746   H749    1.083   .     S
Cu747  Cu748   2.690   .     S
Cu747  N765    2.022   .     S
Cu747  O776    1.955   .     S
Cu747  O778    1.930   .     S
Cu747  O767    1.961   .     S
Cu747  O774    1.946   .     S
Cu748  N766    2.021   .     S
Cu748  O773    1.955   .     S
Cu748  O779    1.946   .     S
Cu748  O775    1.930   .     S
Cu748  O777    1.961   .     S
H753   O768    1.014   .     S
H755   O770    1.013   .     S
H761   C147    1.080   1_556 S
O772   H626    1.014   1_655 S
C781   O838    1.289   .     A
C781   O832    1.297   .     A
C781   C789    1.443   .     S
C782   C784    1.478   .     S
C782   C803    1.424   .     A
C782   C799    1.402   .     A
C783   C789    1.398   .     A
C783   H817    1.085   .     S
C783   C980    1.394   .     S
C784   O840    1.297   .     A
C784   O839    1.305   .     A
C785   C786    1.417   .     A
C785   C802    1.485   .     S
C786   C787    1.400   .     A
C786   C795    1.448   .     S
C787   H822    1.084   .     S
C788   C789    1.391   .     A
C788   H823    1.077   .     S
C788   C982    1.382   .     S
C790   N831    1.350   .     A
C790   H819    1.083   .     S
C790   C856    1.413   .     S
C791   N830    1.393   .     A
C791   C804    1.476   .     S
C791   C920    1.413   1_455 S
C792   C803    1.415   .     A
C792   C216    1.419   1_556 S
C792   C221    1.424   1_556 S
C793   N830    1.367   .     A
C793   H824    1.082   .     S
C793   C924    1.420   1_455 S
C794   H825    1.080   .     S
C794   N831    1.369   .     A
C794   C858    1.420   .     S
C795   O841    1.293   .     A
C795   O842    1.295   .     A
C796   O843    1.297   .     A
C796   C798    1.466   .     S
C796   O844    1.300   .     A
C797   C811    1.393   .     A
C798   C810    1.394   .     A
C798   C811    1.396   .     A
C799   C800    1.386   .     A
C799   H828    1.080   .     S
C800   C216    1.390   1_556 S
C800   H230    1.083   1_556 S
C801   H829    1.077   .     S
C802   O845    1.222   .     D
C802   O833    1.399   .     S
C803   C809    1.409   .     A
C804   O835    1.400   .     S
C804   O834    1.217   .     D
C805   O836    1.223   .     D
C805   O837    1.397   .     S
C805   C808    1.485   .     S
C806   C810    1.404   .     A
C807   C808    1.413   .     A
C807   C212    1.413   1_556 S
C807   C221    1.427   1_556 S
C808   C809    1.395   .     A
C809   H816    1.081   .     S
C810   H827    1.076   .     S
C811   H814    1.083   .     S
Cu812  Cu813   2.690   .     S
Cu812  N830    2.022   .     S
Cu812  O841    1.955   .     S
Cu812  O843    1.930   .     S
Cu812  O832    1.961   .     S
Cu812  O839    1.946   .     S
Cu813  N831    2.021   .     S
Cu813  O838    1.955   .     S
Cu813  O844    1.946   .     S
Cu813  O840    1.930   .     S
Cu813  O842    1.961   .     S
H818   O833    1.014   .     S
H820   O835    1.013   .     S
H821   O967    1.014   1_455 S
H826   C212    1.080   1_556 S
O837   H886    1.014   .     S
C846   O903    1.289   .     A
C846   O897    1.297   .     A
C846   C854    1.443   .     S
C847   C849    1.478   .     S
C847   C868    1.424   .     A
C847   C864    1.402   .     A
C848   C854    1.398   .     A
C848   H882    1.085   .     S
C848   C1045   1.394   .     S
C849   O905    1.297   .     A
C849   O904    1.305   .     A
C850   C851    1.417   .     A
C850   C867    1.485   .     S
C851   C852    1.400   .     A
C851   C860    1.448   .     S
C852   H887    1.084   .     S
C853   C854    1.391   .     A
C853   H888    1.077   .     S
C853   C1047   1.382   .     S
C855   N896    1.350   .     A
C855   H884    1.083   .     S
C855   C921    1.413   .     S
C856   N895    1.393   .     A
C856   C869    1.476   .     S
C857   C868    1.415   .     A
C857   C281    1.419   1_556 S
C857   C286    1.424   1_556 S
C858   N895    1.367   .     A
C858   H889    1.082   .     S
C859   H890    1.080   .     S
C859   N896    1.369   .     A
C859   C923    1.420   .     S
C860   O906    1.293   .     A
C860   O907    1.295   .     A
C861   O908    1.297   .     A
C861   C863    1.466   .     S
C861   O909    1.300   .     A
C862   C876    1.393   .     A
C863   C875    1.394   .     A
C863   C876    1.396   .     A
C864   C865    1.386   .     A
C864   H893    1.080   .     S
C865   C281    1.390   1_556 S
C865   H295    1.083   1_556 S
C866   H894    1.077   .     S
C867   O910    1.222   .     D
C867   O898    1.399   .     S
C868   C874    1.409   .     A
C869   O900    1.400   .     S
C869   O899    1.217   .     D
C870   O901    1.223   .     D
C870   O902    1.397   .     S
C870   C873    1.485   .     S
C871   C875    1.404   .     A
C872   C873    1.413   .     A
C872   C277    1.413   1_556 S
C872   C286    1.427   1_556 S
C873   C874    1.395   .     A
C874   H881    1.081   .     S
C875   H892    1.076   .     S
C876   H879    1.083   .     S
Cu877  Cu878   2.690   .     S
Cu877  N895    2.022   .     S
Cu877  O906    1.955   .     S
Cu877  O908    1.930   .     S
Cu877  O897    1.961   .     S
Cu877  O904    1.946   .     S
Cu878  N896    2.021   .     S
Cu878  O903    1.955   .     S
Cu878  O909    1.946   .     S
Cu878  O905    1.930   .     S
Cu878  O907    1.961   .     S
H883   O898    1.014   .     S
H885   O900    1.013   .     S
H891   C277    1.080   1_556 S
O902   H951    1.014   .     S
C911   O968    1.289   .     A
C911   O962    1.297   .     A
C911   C919    1.443   .     S
C912   C914    1.478   .     S
C912   C933    1.424   .     A
C912   C929    1.402   .     A
C913   C919    1.398   .     A
C913   H947    1.085   .     S
C913   C1110   1.394   .     S
C914   O970    1.297   .     A
C914   O969    1.305   .     A
C915   C916    1.417   .     A
C915   C932    1.485   .     S
C916   C917    1.400   .     A
C916   C925    1.448   .     S
C917   H952    1.084   .     S
C918   C919    1.391   .     A
C918   H953    1.077   .     S
C918   C1112   1.382   .     S
C920   N961    1.350   .     A
C920   H949    1.083   .     S
C920   C791    1.413   1_655 S
C921   N960    1.393   .     A
C921   C934    1.476   .     S
C922   C933    1.415   .     A
C922   C346    1.419   1_556 S
C922   C351    1.424   1_556 S
C923   N960    1.367   .     A
C923   H954    1.082   .     S
C924   H955    1.080   .     S
C924   N961    1.369   .     A
C924   C793    1.420   1_655 S
C925   O971    1.293   .     A
C925   O972    1.295   .     A
C926   O973    1.297   .     A
C926   C928    1.466   .     S
C926   O974    1.300   .     A
C927   C941    1.393   .     A
C928   C940    1.394   .     A
C928   C941    1.396   .     A
C929   C930    1.386   .     A
C929   H958    1.080   .     S
C930   C346    1.390   1_556 S
C930   H360    1.083   1_556 S
C931   H959    1.077   .     S
C932   O975    1.222   .     D
C932   O963    1.399   .     S
C933   C939    1.409   .     A
C934   O965    1.400   .     S
C934   O964    1.217   .     D
C935   O966    1.223   .     D
C935   O967    1.397   .     S
C935   C938    1.485   .     S
C936   C940    1.404   .     A
C937   C938    1.413   .     A
C937   C342    1.413   1_556 S
C937   C351    1.427   1_556 S
C938   C939    1.395   .     A
C939   H946    1.081   .     S
C940   H957    1.076   .     S
C941   H944    1.083   .     S
Cu942  Cu943   2.690   .     S
Cu942  N960    2.022   .     S
Cu942  O971    1.955   .     S
Cu942  O973    1.930   .     S
Cu942  O962    1.961   .     S
Cu942  O969    1.946   .     S
Cu943  N961    2.021   .     S
Cu943  O968    1.955   .     S
Cu943  O974    1.946   .     S
Cu943  O970    1.930   .     S
Cu943  O972    1.961   .     S
H948   O963    1.014   .     S
H950   O965    1.013   .     S
H956   C342    1.080   1_556 S
O967   H821    1.014   1_655 S
C976   O1033   1.289   .     A
C976   O1027   1.297   .     A
C976   C984    1.443   .     S
C977   C979    1.478   .     S
C977   C998    1.424   .     A
C977   C994    1.402   .     A
C978   C984    1.398   .     A
C978   H1012   1.085   .     S
C978   C590    1.394   1_565 S
C979   O1035   1.297   .     A
C979   O1034   1.305   .     A
C980   C981    1.417   .     A
C980   C997    1.485   .     S
C981   C982    1.400   .     A
C981   C990    1.448   .     S
C982   H1017   1.084   .     S
C983   C984    1.391   .     A
C983   H1018   1.077   .     S
C983   C592    1.382   1_565 S
C985   N1026   1.350   .     A
C985   H1014   1.083   .     S
C985   C1051   1.413   .     S
C986   N1025   1.393   .     A
C986   C999    1.476   .     S
C986   C1115   1.413   1_455 S
C987   C998    1.415   .     A
C987   C411    1.419   1_556 S
C987   C416    1.424   1_556 S
C988   N1025   1.367   .     A
C988   H1019   1.082   .     S
C988   C1119   1.420   1_455 S
C989   H1020   1.080   .     S
C989   N1026   1.369   .     A
C989   C1053   1.420   .     S
C990   O1036   1.293   .     A
C990   O1037   1.295   .     A
C991   O1038   1.297   .     A
C991   C993    1.466   .     S
C991   O1039   1.300   .     A
C992   C1006   1.393   .     A
C993   C1005   1.394   .     A
C993   C1006   1.396   .     A
C994   C995    1.386   .     A
C994   H1023   1.080   .     S
C995   C411    1.390   1_556 S
C995   H425    1.083   1_556 S
C996   H1024   1.077   .     S
C997   O1040   1.222   .     D
C997   O1028   1.399   .     S
C998   C1004   1.409   .     A
C999   O1030   1.400   .     S
C999   O1029   1.217   .     D
C1000  O1031   1.223   .     D
C1000  O1032   1.397   .     S
C1000  C1003   1.485   .     S
C1001  C1005   1.404   .     A
C1002  C1003   1.413   .     A
C1002  C407    1.413   1_556 S
C1002  C416    1.427   1_556 S
C1003  C1004   1.395   .     A
C1004  H1011   1.081   .     S
C1005  H1022   1.076   .     S
C1006  H1009   1.083   .     S
Cu1007 Cu1008  2.690   .     S
Cu1007 N1025   2.022   .     S
Cu1007 O1036   1.955   .     S
Cu1007 O1038   1.930   .     S
Cu1007 O1027   1.961   .     S
Cu1007 O1034   1.946   .     S
Cu1008 N1026   2.021   .     S
Cu1008 O1033   1.955   .     S
Cu1008 O1039   1.946   .     S
Cu1008 O1035   1.930   .     S
Cu1008 O1037   1.961   .     S
H1013  O1028   1.014   .     S
H1015  O1030   1.013   .     S
H1016  O1162   1.014   1_455 S
H1021  C407    1.080   1_556 S
O1032  H1081   1.014   .     S
C1041  O1098   1.289   .     A
C1041  O1092   1.297   .     A
C1041  C1049   1.443   .     S
C1042  C1044   1.478   .     S
C1042  C1063   1.424   .     A
C1042  C1059   1.402   .     A
C1043  C1049   1.398   .     A
C1043  H1077   1.085   .     S
C1043  C655    1.394   1_565 S
C1044  O1100   1.297   .     A
C1044  O1099   1.305   .     A
C1045  C1046   1.417   .     A
C1045  C1062   1.485   .     S
C1046  C1047   1.400   .     A
C1046  C1055   1.448   .     S
C1047  H1082   1.084   .     S
C1048  C1049   1.391   .     A
C1048  H1083   1.077   .     S
C1048  C657    1.382   1_565 S
C1050  N1091   1.350   .     A
C1050  H1079   1.083   .     S
C1050  C1116   1.413   .     S
C1051  N1090   1.393   .     A
C1051  C1064   1.476   .     S
C1052  C1063   1.415   .     A
C1052  C476    1.419   1_556 S
C1052  C481    1.424   1_556 S
C1053  N1090   1.367   .     A
C1053  H1084   1.082   .     S
C1054  H1085   1.080   .     S
C1054  N1091   1.369   .     A
C1054  C1118   1.420   .     S
C1055  O1101   1.293   .     A
C1055  O1102   1.295   .     A
C1056  O1103   1.297   .     A
C1056  C1058   1.466   .     S
C1056  O1104   1.300   .     A
C1057  C1071   1.393   .     A
C1058  C1070   1.394   .     A
C1058  C1071   1.396   .     A
C1059  C1060   1.386   .     A
C1059  H1088   1.080   .     S
C1060  C476    1.390   1_556 S
C1060  H490    1.083   1_556 S
C1061  H1089   1.077   .     S
C1062  O1105   1.222   .     D
C1062  O1093   1.399   .     S
C1063  C1069   1.409   .     A
C1064  O1095   1.400   .     S
C1064  O1094   1.217   .     D
C1065  O1096   1.223   .     D
C1065  O1097   1.397   .     S
C1065  C1068   1.485   .     S
C1066  C1070   1.404   .     A
C1067  C1068   1.413   .     A
C1067  C472    1.413   1_556 S
C1067  C481    1.427   1_556 S
C1068  C1069   1.395   .     A
C1069  H1076   1.081   .     S
C1070  H1087   1.076   .     S
C1071  H1074   1.083   .     S
Cu1072 Cu1073  2.690   .     S
Cu1072 N1090   2.022   .     S
Cu1072 O1101   1.955   .     S
Cu1072 O1103   1.930   .     S
Cu1072 O1092   1.961   .     S
Cu1072 O1099   1.946   .     S
Cu1073 N1091   2.021   .     S
Cu1073 O1098   1.955   .     S
Cu1073 O1104   1.946   .     S
Cu1073 O1100   1.930   .     S
Cu1073 O1102   1.961   .     S
H1078  O1093   1.014   .     S
H1080  O1095   1.013   .     S
H1086  C472    1.080   1_556 S
O1097  H1146   1.014   .     S
C1106  O1163   1.289   .     A
C1106  O1157   1.297   .     A
C1106  C1114   1.443   .     S
C1107  C1109   1.478   .     S
C1107  C1128   1.424   .     A
C1107  C1124   1.402   .     A
C1108  C1114   1.398   .     A
C1108  H1142   1.085   .     S
C1108  C720    1.394   1_565 S
C1109  O1165   1.297   .     A
C1109  O1164   1.305   .     A
C1110  C1111   1.417   .     A
C1110  C1127   1.485   .     S
C1111  C1112   1.400   .     A
C1111  C1120   1.448   .     S
C1112  H1147   1.084   .     S
C1113  C1114   1.391   .     A
C1113  H1148   1.077   .     S
C1113  C722    1.382   1_565 S
C1115  N1156   1.350   .     A
C1115  H1144   1.083   .     S
C1115  C986    1.413   1_655 S
C1116  N1155   1.393   .     A
C1116  C1129   1.476   .     S
C1117  C1128   1.415   .     A
C1117  C541    1.419   1_556 S
C1117  C546    1.424   1_556 S
C1118  N1155   1.367   .     A
C1118  H1149   1.082   .     S
C1119  H1150   1.080   .     S
C1119  N1156   1.369   .     A
C1119  C988    1.420   1_655 S
C1120  O1166   1.293   .     A
C1120  O1167   1.295   .     A
C1121  O1168   1.297   .     A
C1121  C1123   1.466   .     S
C1121  O1169   1.300   .     A
C1122  C1136   1.393   .     A
C1123  C1135   1.394   .     A
C1123  C1136   1.396   .     A
C1124  C1125   1.386   .     A
C1124  H1153   1.080   .     S
C1125  C541    1.390   1_556 S
C1125  H555    1.083   1_556 S
C1126  H1154   1.077   .     S
C1127  O1170   1.222   .     D
C1127  O1158   1.399   .     S
C1128  C1134   1.409   .     A
C1129  O1160   1.400   .     S
C1129  O1159   1.217   .     D
C1130  O1161   1.223   .     D
C1130  O1162   1.397   .     S
C1130  C1133   1.485   .     S
C1131  C1135   1.404   .     A
C1132  C1133   1.413   .     A
C1132  C537    1.413   1_556 S
C1132  C546    1.427   1_556 S
C1133  C1134   1.395   .     A
C1134  H1141   1.081   .     S
C1135  H1152   1.076   .     S
C1136  H1139   1.083   .     S
Cu1137 Cu1138  2.690   .     S
Cu1137 N1155   2.022   .     S
Cu1137 O1166   1.955   .     S
Cu1137 O1168   1.930   .     S
Cu1137 O1157   1.961   .     S
Cu1137 O1164   1.946   .     S
Cu1138 N1156   2.021   .     S
Cu1138 O1163   1.955   .     S
Cu1138 O1169   1.946   .     S
Cu1138 O1165   1.930   .     S
Cu1138 O1167   1.961   .     S
H1143  O1158   1.014   .     S
H1145  O1160   1.013   .     S
H1151  C537    1.080   1_556 S
O1162  H1016   1.014   1_655 S
