data_str_m3_o2_o10_pcu_sym.192
_audit_creation_date              2020-01-03
_audit_creation_method            'Materials Studio'
_symmetry_space_group_name_H-M    'P1'
_symmetry_Int_Tables_number       1
_symmetry_cell_setting            triclinic
loop_
_symmetry_equiv_pos_as_xyz
  x,y,z
_cell_length_a                    25.9652
_cell_length_b                    30.0170
_cell_length_c                    28.3260
_cell_angle_alpha                 89.9810
_cell_angle_beta                  98.0474
_cell_angle_gamma                 90.0839
loop_
_atom_site_label
_atom_site_type_symbol
_atom_site_fract_x
_atom_site_fract_y
_atom_site_fract_z
_atom_site_U_iso_or_equiv
_atom_site_adp_type
_atom_site_occupancy
C1     C     0.16673   0.16389   0.25002   0.00000  Uiso   1.00
C2     C     0.16675   0.33613   0.25001   0.00000  Uiso   1.00
C3     C     0.12720   0.22828   0.04760   0.00000  Uiso   1.00
C4     C     0.18746   0.28595   0.45005   0.00000  Uiso   1.00
C5     C     0.12811   0.22852   0.09735   0.00000  Uiso   1.00
C6     C     0.18732   0.28518   0.40040   0.00000  Uiso   1.00
C7     C     0.20509   0.27159   0.10717   0.00000  Uiso   1.00
C8     C     0.14588   0.21489   0.39509   0.00000  Uiso   1.00
C9     C     0.20595   0.27181   0.05765   0.00000  Uiso   1.00
C10    C     0.14563   0.21414   0.44469   0.00000  Uiso   1.00
C11    C     0.16658   0.25003   0.02669   0.00000  Uiso   1.00
C12    C     0.16655   0.25004   0.47331   0.00000  Uiso   1.00
C13    C     0.06730   0.24978   0.23798   0.00000  Uiso   1.00
C14    C     0.26603   0.25012   0.26204   0.00000  Uiso   1.00
C15    C     0.01353   0.24255   0.23273   0.00000  Uiso   1.00
C16    C     0.31984   0.25712   0.26741   0.00000  Uiso   1.00
C17    C     0.14866   0.04694   0.28705   0.00000  Uiso   1.00
C18    C     0.15065   0.45312   0.20794   0.00000  Uiso   1.00
C19    C     0.14845   0.09293   0.28710   0.00000  Uiso   1.00
C20    C     0.15045   0.40713   0.20781   0.00000  Uiso   1.00
C21    C     0.16718   0.11603   0.25011   0.00000  Uiso   1.00
C22    C     0.16720   0.38403   0.25007   0.00000  Uiso   1.00
C23    C     0.18652   0.09322   0.21329   0.00000  Uiso   1.00
C24    C     0.18454   0.40690   0.29236   0.00000  Uiso   1.00
C25    C     0.18729   0.04724   0.21355   0.00000  Uiso   1.00
C26    C     0.18528   0.45289   0.29235   0.00000  Uiso   1.00
C27    C     0.16816   0.02410   0.25032   0.00000  Uiso   1.00
C28    C     0.16816   0.47600   0.25019   0.00000  Uiso   1.00
H29    H     0.13310   0.02922   0.31525   0.00000  Uiso   1.00
H30    H     0.13665   0.47081   0.17533   0.00000  Uiso   1.00
H31    H     0.13302   0.11036   0.31553   0.00000  Uiso   1.00
H32    H     0.13658   0.38971   0.17498   0.00000  Uiso   1.00
H33    H     0.20161   0.11089   0.18479   0.00000  Uiso   1.00
H34    H     0.19806   0.38930   0.32515   0.00000  Uiso   1.00
H35    H     0.20311   0.02975   0.18538   0.00000  Uiso   1.00
H36    H     0.19953   0.47040   0.32503   0.00000  Uiso   1.00
H37    H     0.09535   0.21166   0.02580   0.00000  Uiso   1.00
H38    H     0.20325   0.31488   0.46980   0.00000  Uiso   1.00
H39    H     0.09770   0.21164   0.11289   0.00000  Uiso   1.00
H40    H     0.20366   0.31292   0.38314   0.00000  Uiso   1.00
H41    H     0.23537   0.28869   0.13043   0.00000  Uiso   1.00
H42    H     0.12952   0.18716   0.37364   0.00000  Uiso   1.00
H43    H     0.23775   0.28849   0.04399   0.00000  Uiso   1.00
H44    H     0.12978   0.18523   0.46040   0.00000  Uiso   1.00
N45    N     0.16667   0.24999   0.12623   0.00000  Uiso   1.00
N46    N     0.16667   0.25001   0.37376   0.00000  Uiso   1.00
O47    O     0.16667   0.18453   0.28974   0.00000  Uiso   1.00
O48    O     0.16666   0.31546   0.21026   0.00000  Uiso   1.00
O49    O     0.16667   0.18453   0.21026   0.00000  Uiso   1.00
O50    O     0.16666   0.31547   0.28974   0.00000  Uiso   1.00
O51    O     0.09058   0.25000   0.28044   0.00000  Uiso   1.00
O52    O     0.24275   0.25000   0.21955   0.00000  Uiso   1.00
O53    O     0.09058   0.25000   0.20096   0.00000  Uiso   1.00
O54    O     0.24275   0.25000   0.29903   0.00000  Uiso   1.00
Zn55   Zn    0.16667   0.25000   0.30307   0.00000  Uiso   1.00
Zn56   Zn    0.16667   0.24999   0.19693   0.00000  Uiso   1.00
N57    N     0.32583   0.21428   0.19349   0.00000  Uiso   1.00
H58    H     0.30429   0.18821   0.20556   0.00000  Uiso   1.00
H59    H     0.30330   0.23305   0.16725   0.00000  Uiso   1.00
N60    N     0.00765   0.28501   0.30696   0.00000  Uiso   1.00
H61    H     0.02905   0.31128   0.29511   0.00000  Uiso   1.00
H62    H     0.03030   0.26600   0.33293   0.00000  Uiso   1.00
C63    C     0.50007   0.16389   0.25002   0.00000  Uiso   1.00
C64    C     0.50008   0.33613   0.25001   0.00000  Uiso   1.00
C65    C     0.46054   0.22828   0.04760   0.00000  Uiso   1.00
C66    C     0.52080   0.28595   0.45005   0.00000  Uiso   1.00
C67    C     0.46144   0.22852   0.09735   0.00000  Uiso   1.00
C68    C     0.52065   0.28518   0.40040   0.00000  Uiso   1.00
C69    C     0.53842   0.27159   0.10717   0.00000  Uiso   1.00
C70    C     0.47921   0.21489   0.39509   0.00000  Uiso   1.00
C71    C     0.53929   0.27181   0.05765   0.00000  Uiso   1.00
C72    C     0.47897   0.21414   0.44469   0.00000  Uiso   1.00
C73    C     0.49991   0.25003   0.02669   0.00000  Uiso   1.00
C74    C     0.49988   0.25004   0.47331   0.00000  Uiso   1.00
C75    C     0.40063   0.24978   0.23798   0.00000  Uiso   1.00
C76    C     0.59937   0.25012   0.26204   0.00000  Uiso   1.00
C77    C     0.34687   0.24255   0.23273   0.00000  Uiso   1.00
C78    C     0.65317   0.25712   0.26741   0.00000  Uiso   1.00
C79    C     0.48199   0.04694   0.28705   0.00000  Uiso   1.00
C80    C     0.48399   0.45312   0.20794   0.00000  Uiso   1.00
C81    C     0.48179   0.09293   0.28710   0.00000  Uiso   1.00
C82    C     0.48378   0.40713   0.20781   0.00000  Uiso   1.00
C83    C     0.50052   0.11603   0.25011   0.00000  Uiso   1.00
C84    C     0.50054   0.38403   0.25007   0.00000  Uiso   1.00
C85    C     0.51985   0.09322   0.21329   0.00000  Uiso   1.00
C86    C     0.51787   0.40690   0.29236   0.00000  Uiso   1.00
C87    C     0.52062   0.04724   0.21355   0.00000  Uiso   1.00
C88    C     0.51861   0.45289   0.29235   0.00000  Uiso   1.00
C89    C     0.50149   0.02410   0.25032   0.00000  Uiso   1.00
C90    C     0.50149   0.47600   0.25019   0.00000  Uiso   1.00
H91    H     0.46643   0.02922   0.31525   0.00000  Uiso   1.00
H92    H     0.46998   0.47081   0.17533   0.00000  Uiso   1.00
H93    H     0.46636   0.11036   0.31553   0.00000  Uiso   1.00
H94    H     0.46991   0.38971   0.17498   0.00000  Uiso   1.00
H95    H     0.53494   0.11089   0.18479   0.00000  Uiso   1.00
H96    H     0.53140   0.38930   0.32515   0.00000  Uiso   1.00
H97    H     0.53644   0.02975   0.18538   0.00000  Uiso   1.00
H98    H     0.53287   0.47040   0.32503   0.00000  Uiso   1.00
H99    H     0.42868   0.21166   0.02580   0.00000  Uiso   1.00
H100   H     0.53659   0.31488   0.46980   0.00000  Uiso   1.00
H101   H     0.43103   0.21164   0.11289   0.00000  Uiso   1.00
H102   H     0.53699   0.31292   0.38314   0.00000  Uiso   1.00
H103   H     0.56870   0.28869   0.13043   0.00000  Uiso   1.00
H104   H     0.46285   0.18716   0.37364   0.00000  Uiso   1.00
H105   H     0.57108   0.28849   0.04399   0.00000  Uiso   1.00
H106   H     0.46311   0.18523   0.46040   0.00000  Uiso   1.00
N107   N     0.50000   0.24999   0.12623   0.00000  Uiso   1.00
N108   N     0.50000   0.25001   0.37376   0.00000  Uiso   1.00
O109   O     0.50000   0.18453   0.28974   0.00000  Uiso   1.00
O110   O     0.50000   0.31546   0.21026   0.00000  Uiso   1.00
O111   O     0.50000   0.18453   0.21026   0.00000  Uiso   1.00
O112   O     0.50000   0.31547   0.28974   0.00000  Uiso   1.00
O113   O     0.42392   0.25000   0.28044   0.00000  Uiso   1.00
O114   O     0.57608   0.25000   0.21955   0.00000  Uiso   1.00
O115   O     0.42392   0.25000   0.20096   0.00000  Uiso   1.00
O116   O     0.57608   0.25000   0.29903   0.00000  Uiso   1.00
Zn117  Zn    0.50000   0.25000   0.30307   0.00000  Uiso   1.00
Zn118  Zn    0.50000   0.24999   0.19693   0.00000  Uiso   1.00
N119   N     0.65916   0.21428   0.19349   0.00000  Uiso   1.00
H120   H     0.63762   0.18821   0.20556   0.00000  Uiso   1.00
H121   H     0.63663   0.23305   0.16725   0.00000  Uiso   1.00
N122   N     0.34098   0.28501   0.30696   0.00000  Uiso   1.00
H123   H     0.36239   0.31128   0.29511   0.00000  Uiso   1.00
H124   H     0.36363   0.26600   0.33293   0.00000  Uiso   1.00
C125   C     0.83340   0.16389   0.25002   0.00000  Uiso   1.00
C126   C     0.83342   0.33613   0.25001   0.00000  Uiso   1.00
C127   C     0.79387   0.22828   0.04760   0.00000  Uiso   1.00
C128   C     0.85413   0.28595   0.45005   0.00000  Uiso   1.00
C129   C     0.79478   0.22852   0.09735   0.00000  Uiso   1.00
C130   C     0.85399   0.28518   0.40040   0.00000  Uiso   1.00
C131   C     0.87175   0.27159   0.10717   0.00000  Uiso   1.00
C132   C     0.81254   0.21489   0.39509   0.00000  Uiso   1.00
C133   C     0.87262   0.27181   0.05765   0.00000  Uiso   1.00
C134   C     0.81230   0.21414   0.44469   0.00000  Uiso   1.00
C135   C     0.83324   0.25003   0.02669   0.00000  Uiso   1.00
C136   C     0.83322   0.25004   0.47331   0.00000  Uiso   1.00
C137   C     0.73397   0.24978   0.23798   0.00000  Uiso   1.00
C138   C     0.93270   0.25012   0.26204   0.00000  Uiso   1.00
C139   C     0.68020   0.24255   0.23273   0.00000  Uiso   1.00
C140   C     0.98650   0.25712   0.26741   0.00000  Uiso   1.00
C141   C     0.81532   0.04694   0.28705   0.00000  Uiso   1.00
C142   C     0.81732   0.45312   0.20794   0.00000  Uiso   1.00
C143   C     0.81512   0.09293   0.28710   0.00000  Uiso   1.00
C144   C     0.81712   0.40713   0.20781   0.00000  Uiso   1.00
C145   C     0.83385   0.11603   0.25011   0.00000  Uiso   1.00
C146   C     0.83387   0.38403   0.25007   0.00000  Uiso   1.00
C147   C     0.85318   0.09322   0.21329   0.00000  Uiso   1.00
C148   C     0.85120   0.40690   0.29236   0.00000  Uiso   1.00
C149   C     0.85396   0.04724   0.21355   0.00000  Uiso   1.00
C150   C     0.85195   0.45289   0.29235   0.00000  Uiso   1.00
C151   C     0.83483   0.02410   0.25032   0.00000  Uiso   1.00
C152   C     0.83482   0.47600   0.25019   0.00000  Uiso   1.00
H153   H     0.79976   0.02922   0.31525   0.00000  Uiso   1.00
H154   H     0.80331   0.47081   0.17533   0.00000  Uiso   1.00
H155   H     0.79969   0.11036   0.31553   0.00000  Uiso   1.00
H156   H     0.80324   0.38971   0.17498   0.00000  Uiso   1.00
H157   H     0.86827   0.11089   0.18479   0.00000  Uiso   1.00
H158   H     0.86473   0.38930   0.32515   0.00000  Uiso   1.00
H159   H     0.86977   0.02975   0.18538   0.00000  Uiso   1.00
H160   H     0.86620   0.47040   0.32503   0.00000  Uiso   1.00
H161   H     0.76202   0.21166   0.02580   0.00000  Uiso   1.00
H162   H     0.86992   0.31488   0.46980   0.00000  Uiso   1.00
H163   H     0.76437   0.21164   0.11289   0.00000  Uiso   1.00
H164   H     0.87032   0.31292   0.38314   0.00000  Uiso   1.00
H165   H     0.90203   0.28869   0.13043   0.00000  Uiso   1.00
H166   H     0.79618   0.18716   0.37364   0.00000  Uiso   1.00
H167   H     0.90441   0.28849   0.04399   0.00000  Uiso   1.00
H168   H     0.79645   0.18523   0.46040   0.00000  Uiso   1.00
N169   N     0.83333   0.24999   0.12623   0.00000  Uiso   1.00
N170   N     0.83333   0.25001   0.37376   0.00000  Uiso   1.00
O171   O     0.83334   0.18453   0.28974   0.00000  Uiso   1.00
O172   O     0.83333   0.31546   0.21026   0.00000  Uiso   1.00
O173   O     0.83334   0.18453   0.21026   0.00000  Uiso   1.00
O174   O     0.83333   0.31547   0.28974   0.00000  Uiso   1.00
O175   O     0.75725   0.25000   0.28044   0.00000  Uiso   1.00
O176   O     0.90942   0.25000   0.21955   0.00000  Uiso   1.00
O177   O     0.75725   0.25000   0.20096   0.00000  Uiso   1.00
O178   O     0.90942   0.25000   0.29903   0.00000  Uiso   1.00
Zn179  Zn    0.83333   0.25000   0.30307   0.00000  Uiso   1.00
Zn180  Zn    0.83333   0.24999   0.19693   0.00000  Uiso   1.00
N181   N     0.99249   0.21428   0.19349   0.00000  Uiso   1.00
H182   H     0.97096   0.18821   0.20556   0.00000  Uiso   1.00
H183   H     0.96997   0.23305   0.16725   0.00000  Uiso   1.00
N184   N     0.67431   0.28501   0.30696   0.00000  Uiso   1.00
H185   H     0.69572   0.31128   0.29511   0.00000  Uiso   1.00
H186   H     0.69697   0.26600   0.33293   0.00000  Uiso   1.00
C187   C     0.16673   0.66389   0.25002   0.00000  Uiso   1.00
C188   C     0.16675   0.83613   0.25001   0.00000  Uiso   1.00
C189   C     0.12720   0.72828   0.04760   0.00000  Uiso   1.00
C190   C     0.18746   0.78595   0.45005   0.00000  Uiso   1.00
C191   C     0.12811   0.72852   0.09735   0.00000  Uiso   1.00
C192   C     0.18732   0.78518   0.40040   0.00000  Uiso   1.00
C193   C     0.20509   0.77159   0.10717   0.00000  Uiso   1.00
C194   C     0.14588   0.71489   0.39509   0.00000  Uiso   1.00
C195   C     0.20595   0.77181   0.05765   0.00000  Uiso   1.00
C196   C     0.14563   0.71414   0.44469   0.00000  Uiso   1.00
C197   C     0.16658   0.75003   0.02669   0.00000  Uiso   1.00
C198   C     0.16655   0.75004   0.47331   0.00000  Uiso   1.00
C199   C     0.06730   0.74978   0.23798   0.00000  Uiso   1.00
C200   C     0.26603   0.75012   0.26204   0.00000  Uiso   1.00
C201   C     0.01353   0.74255   0.23273   0.00000  Uiso   1.00
C202   C     0.31984   0.75712   0.26741   0.00000  Uiso   1.00
C203   C     0.14866   0.54694   0.28705   0.00000  Uiso   1.00
C204   C     0.15065   0.95312   0.20794   0.00000  Uiso   1.00
C205   C     0.14845   0.59293   0.28710   0.00000  Uiso   1.00
C206   C     0.15045   0.90713   0.20781   0.00000  Uiso   1.00
C207   C     0.16718   0.61603   0.25011   0.00000  Uiso   1.00
C208   C     0.16720   0.88403   0.25007   0.00000  Uiso   1.00
C209   C     0.18652   0.59322   0.21329   0.00000  Uiso   1.00
C210   C     0.18454   0.90690   0.29236   0.00000  Uiso   1.00
C211   C     0.18729   0.54724   0.21355   0.00000  Uiso   1.00
C212   C     0.18528   0.95289   0.29235   0.00000  Uiso   1.00
C213   C     0.16816   0.52410   0.25032   0.00000  Uiso   1.00
C214   C     0.16816   0.97600   0.25019   0.00000  Uiso   1.00
H215   H     0.13310   0.52922   0.31525   0.00000  Uiso   1.00
H216   H     0.13665   0.97081   0.17533   0.00000  Uiso   1.00
H217   H     0.13302   0.61036   0.31553   0.00000  Uiso   1.00
H218   H     0.13658   0.88971   0.17498   0.00000  Uiso   1.00
H219   H     0.20161   0.61089   0.18479   0.00000  Uiso   1.00
H220   H     0.19806   0.88930   0.32515   0.00000  Uiso   1.00
H221   H     0.20311   0.52975   0.18538   0.00000  Uiso   1.00
H222   H     0.19953   0.97040   0.32503   0.00000  Uiso   1.00
H223   H     0.09535   0.71166   0.02580   0.00000  Uiso   1.00
H224   H     0.20325   0.81488   0.46980   0.00000  Uiso   1.00
H225   H     0.09770   0.71164   0.11289   0.00000  Uiso   1.00
H226   H     0.20366   0.81292   0.38314   0.00000  Uiso   1.00
H227   H     0.23537   0.78869   0.13043   0.00000  Uiso   1.00
H228   H     0.12952   0.68716   0.37364   0.00000  Uiso   1.00
H229   H     0.23775   0.78849   0.04399   0.00000  Uiso   1.00
H230   H     0.12978   0.68523   0.46040   0.00000  Uiso   1.00
N231   N     0.16667   0.74999   0.12623   0.00000  Uiso   1.00
N232   N     0.16667   0.75001   0.37376   0.00000  Uiso   1.00
O233   O     0.16667   0.68453   0.28974   0.00000  Uiso   1.00
O234   O     0.16666   0.81546   0.21026   0.00000  Uiso   1.00
O235   O     0.16667   0.68453   0.21026   0.00000  Uiso   1.00
O236   O     0.16666   0.81547   0.28974   0.00000  Uiso   1.00
O237   O     0.09058   0.75000   0.28044   0.00000  Uiso   1.00
O238   O     0.24275   0.75000   0.21955   0.00000  Uiso   1.00
O239   O     0.09058   0.75000   0.20096   0.00000  Uiso   1.00
O240   O     0.24275   0.75000   0.29903   0.00000  Uiso   1.00
Zn241  Zn    0.16667   0.75000   0.30307   0.00000  Uiso   1.00
Zn242  Zn    0.16667   0.74999   0.19693   0.00000  Uiso   1.00
N243   N     0.32583   0.71428   0.19349   0.00000  Uiso   1.00
H244   H     0.30429   0.68821   0.20556   0.00000  Uiso   1.00
H245   H     0.30330   0.73305   0.16725   0.00000  Uiso   1.00
N246   N     0.00765   0.78501   0.30696   0.00000  Uiso   1.00
H247   H     0.02905   0.81128   0.29511   0.00000  Uiso   1.00
H248   H     0.03030   0.76600   0.33293   0.00000  Uiso   1.00
C249   C     0.50007   0.66389   0.25002   0.00000  Uiso   1.00
C250   C     0.50008   0.83613   0.25001   0.00000  Uiso   1.00
C251   C     0.46054   0.72828   0.04760   0.00000  Uiso   1.00
C252   C     0.52080   0.78595   0.45005   0.00000  Uiso   1.00
C253   C     0.46144   0.72852   0.09735   0.00000  Uiso   1.00
C254   C     0.52065   0.78518   0.40040   0.00000  Uiso   1.00
C255   C     0.53842   0.77159   0.10717   0.00000  Uiso   1.00
C256   C     0.47921   0.71489   0.39509   0.00000  Uiso   1.00
C257   C     0.53929   0.77181   0.05765   0.00000  Uiso   1.00
C258   C     0.47897   0.71414   0.44469   0.00000  Uiso   1.00
C259   C     0.49991   0.75003   0.02669   0.00000  Uiso   1.00
C260   C     0.49988   0.75004   0.47331   0.00000  Uiso   1.00
C261   C     0.40063   0.74978   0.23798   0.00000  Uiso   1.00
C262   C     0.59937   0.75012   0.26204   0.00000  Uiso   1.00
C263   C     0.34687   0.74255   0.23273   0.00000  Uiso   1.00
C264   C     0.65317   0.75712   0.26741   0.00000  Uiso   1.00
C265   C     0.48199   0.54694   0.28705   0.00000  Uiso   1.00
C266   C     0.48399   0.95312   0.20794   0.00000  Uiso   1.00
C267   C     0.48179   0.59293   0.28710   0.00000  Uiso   1.00
C268   C     0.48378   0.90713   0.20781   0.00000  Uiso   1.00
C269   C     0.50052   0.61603   0.25011   0.00000  Uiso   1.00
C270   C     0.50054   0.88403   0.25007   0.00000  Uiso   1.00
C271   C     0.51985   0.59322   0.21329   0.00000  Uiso   1.00
C272   C     0.51787   0.90690   0.29236   0.00000  Uiso   1.00
C273   C     0.52062   0.54724   0.21355   0.00000  Uiso   1.00
C274   C     0.51861   0.95289   0.29235   0.00000  Uiso   1.00
C275   C     0.50149   0.52410   0.25032   0.00000  Uiso   1.00
C276   C     0.50149   0.97600   0.25019   0.00000  Uiso   1.00
H277   H     0.46643   0.52922   0.31525   0.00000  Uiso   1.00
H278   H     0.46998   0.97081   0.17533   0.00000  Uiso   1.00
H279   H     0.46636   0.61036   0.31553   0.00000  Uiso   1.00
H280   H     0.46991   0.88971   0.17498   0.00000  Uiso   1.00
H281   H     0.53494   0.61089   0.18479   0.00000  Uiso   1.00
H282   H     0.53140   0.88930   0.32515   0.00000  Uiso   1.00
H283   H     0.53644   0.52975   0.18538   0.00000  Uiso   1.00
H284   H     0.53287   0.97040   0.32503   0.00000  Uiso   1.00
H285   H     0.42868   0.71166   0.02580   0.00000  Uiso   1.00
H286   H     0.53659   0.81488   0.46980   0.00000  Uiso   1.00
H287   H     0.43103   0.71164   0.11289   0.00000  Uiso   1.00
H288   H     0.53699   0.81292   0.38314   0.00000  Uiso   1.00
H289   H     0.56870   0.78869   0.13043   0.00000  Uiso   1.00
H290   H     0.46285   0.68716   0.37364   0.00000  Uiso   1.00
H291   H     0.57108   0.78849   0.04399   0.00000  Uiso   1.00
H292   H     0.46311   0.68523   0.46040   0.00000  Uiso   1.00
N293   N     0.50000   0.74999   0.12623   0.00000  Uiso   1.00
N294   N     0.50000   0.75001   0.37376   0.00000  Uiso   1.00
O295   O     0.50000   0.68453   0.28974   0.00000  Uiso   1.00
O296   O     0.50000   0.81546   0.21026   0.00000  Uiso   1.00
O297   O     0.50000   0.68453   0.21026   0.00000  Uiso   1.00
O298   O     0.50000   0.81547   0.28974   0.00000  Uiso   1.00
O299   O     0.42392   0.75000   0.28044   0.00000  Uiso   1.00
O300   O     0.57608   0.75000   0.21955   0.00000  Uiso   1.00
O301   O     0.42392   0.75000   0.20096   0.00000  Uiso   1.00
O302   O     0.57608   0.75000   0.29903   0.00000  Uiso   1.00
Zn303  Zn    0.50000   0.75000   0.30307   0.00000  Uiso   1.00
Zn304  Zn    0.50000   0.74999   0.19693   0.00000  Uiso   1.00
N305   N     0.65916   0.71428   0.19349   0.00000  Uiso   1.00
H306   H     0.63762   0.68821   0.20556   0.00000  Uiso   1.00
H307   H     0.63663   0.73305   0.16725   0.00000  Uiso   1.00
N308   N     0.34098   0.78501   0.30696   0.00000  Uiso   1.00
H309   H     0.36239   0.81128   0.29511   0.00000  Uiso   1.00
H310   H     0.36363   0.76600   0.33293   0.00000  Uiso   1.00
C311   C     0.83340   0.66389   0.25002   0.00000  Uiso   1.00
C312   C     0.83342   0.83613   0.25001   0.00000  Uiso   1.00
C313   C     0.79387   0.72828   0.04760   0.00000  Uiso   1.00
C314   C     0.85413   0.78595   0.45005   0.00000  Uiso   1.00
C315   C     0.79478   0.72852   0.09735   0.00000  Uiso   1.00
C316   C     0.85399   0.78518   0.40040   0.00000  Uiso   1.00
C317   C     0.87175   0.77159   0.10717   0.00000  Uiso   1.00
C318   C     0.81254   0.71489   0.39509   0.00000  Uiso   1.00
C319   C     0.87262   0.77181   0.05765   0.00000  Uiso   1.00
C320   C     0.81230   0.71414   0.44469   0.00000  Uiso   1.00
C321   C     0.83324   0.75003   0.02669   0.00000  Uiso   1.00
C322   C     0.83322   0.75004   0.47331   0.00000  Uiso   1.00
C323   C     0.73397   0.74978   0.23798   0.00000  Uiso   1.00
C324   C     0.93270   0.75012   0.26204   0.00000  Uiso   1.00
C325   C     0.68020   0.74255   0.23273   0.00000  Uiso   1.00
C326   C     0.98650   0.75712   0.26741   0.00000  Uiso   1.00
C327   C     0.81532   0.54694   0.28705   0.00000  Uiso   1.00
C328   C     0.81732   0.95312   0.20794   0.00000  Uiso   1.00
C329   C     0.81512   0.59293   0.28710   0.00000  Uiso   1.00
C330   C     0.81712   0.90713   0.20781   0.00000  Uiso   1.00
C331   C     0.83385   0.61603   0.25011   0.00000  Uiso   1.00
C332   C     0.83387   0.88403   0.25007   0.00000  Uiso   1.00
C333   C     0.85318   0.59322   0.21329   0.00000  Uiso   1.00
C334   C     0.85120   0.90690   0.29236   0.00000  Uiso   1.00
C335   C     0.85396   0.54724   0.21355   0.00000  Uiso   1.00
C336   C     0.85195   0.95289   0.29235   0.00000  Uiso   1.00
C337   C     0.83483   0.52410   0.25032   0.00000  Uiso   1.00
C338   C     0.83482   0.97600   0.25019   0.00000  Uiso   1.00
H339   H     0.79976   0.52922   0.31525   0.00000  Uiso   1.00
H340   H     0.80331   0.97081   0.17533   0.00000  Uiso   1.00
H341   H     0.79969   0.61036   0.31553   0.00000  Uiso   1.00
H342   H     0.80324   0.88971   0.17498   0.00000  Uiso   1.00
H343   H     0.86827   0.61089   0.18479   0.00000  Uiso   1.00
H344   H     0.86473   0.88930   0.32515   0.00000  Uiso   1.00
H345   H     0.86977   0.52975   0.18538   0.00000  Uiso   1.00
H346   H     0.86620   0.97040   0.32503   0.00000  Uiso   1.00
H347   H     0.76202   0.71166   0.02580   0.00000  Uiso   1.00
H348   H     0.86992   0.81488   0.46980   0.00000  Uiso   1.00
H349   H     0.76437   0.71164   0.11289   0.00000  Uiso   1.00
H350   H     0.87032   0.81292   0.38314   0.00000  Uiso   1.00
H351   H     0.90203   0.78869   0.13043   0.00000  Uiso   1.00
H352   H     0.79618   0.68716   0.37364   0.00000  Uiso   1.00
H353   H     0.90441   0.78849   0.04399   0.00000  Uiso   1.00
H354   H     0.79645   0.68523   0.46040   0.00000  Uiso   1.00
N355   N     0.83333   0.74999   0.12623   0.00000  Uiso   1.00
N356   N     0.83333   0.75001   0.37376   0.00000  Uiso   1.00
O357   O     0.83334   0.68453   0.28974   0.00000  Uiso   1.00
O358   O     0.83333   0.81546   0.21026   0.00000  Uiso   1.00
O359   O     0.83334   0.68453   0.21026   0.00000  Uiso   1.00
O360   O     0.83333   0.81547   0.28974   0.00000  Uiso   1.00
O361   O     0.75725   0.75000   0.28044   0.00000  Uiso   1.00
O362   O     0.90942   0.75000   0.21955   0.00000  Uiso   1.00
O363   O     0.75725   0.75000   0.20096   0.00000  Uiso   1.00
O364   O     0.90942   0.75000   0.29903   0.00000  Uiso   1.00
Zn365  Zn    0.83333   0.75000   0.30307   0.00000  Uiso   1.00
Zn366  Zn    0.83333   0.74999   0.19693   0.00000  Uiso   1.00
N367   N     0.99249   0.71428   0.19349   0.00000  Uiso   1.00
H368   H     0.97096   0.68821   0.20556   0.00000  Uiso   1.00
H369   H     0.96997   0.73305   0.16725   0.00000  Uiso   1.00
N370   N     0.67431   0.78501   0.30696   0.00000  Uiso   1.00
H371   H     0.69572   0.81128   0.29511   0.00000  Uiso   1.00
H372   H     0.69697   0.76600   0.33293   0.00000  Uiso   1.00
C373   C     0.16673   0.16389   0.75002   0.00000  Uiso   1.00
C374   C     0.16675   0.33613   0.75001   0.00000  Uiso   1.00
C375   C     0.12720   0.22828   0.54760   0.00000  Uiso   1.00
C376   C     0.18746   0.28595   0.95005   0.00000  Uiso   1.00
C377   C     0.12811   0.22852   0.59735   0.00000  Uiso   1.00
C378   C     0.18732   0.28518   0.90040   0.00000  Uiso   1.00
C379   C     0.20509   0.27159   0.60717   0.00000  Uiso   1.00
C380   C     0.14588   0.21489   0.89509   0.00000  Uiso   1.00
C381   C     0.20595   0.27181   0.55765   0.00000  Uiso   1.00
C382   C     0.14563   0.21414   0.94469   0.00000  Uiso   1.00
C383   C     0.16658   0.25003   0.52669   0.00000  Uiso   1.00
C384   C     0.16655   0.25004   0.97331   0.00000  Uiso   1.00
C385   C     0.06730   0.24978   0.73798   0.00000  Uiso   1.00
C386   C     0.26603   0.25012   0.76204   0.00000  Uiso   1.00
C387   C     0.01353   0.24255   0.73273   0.00000  Uiso   1.00
C388   C     0.31984   0.25712   0.76741   0.00000  Uiso   1.00
C389   C     0.14866   0.04694   0.78705   0.00000  Uiso   1.00
C390   C     0.15065   0.45312   0.70794   0.00000  Uiso   1.00
C391   C     0.14845   0.09293   0.78710   0.00000  Uiso   1.00
C392   C     0.15045   0.40713   0.70781   0.00000  Uiso   1.00
C393   C     0.16718   0.11603   0.75011   0.00000  Uiso   1.00
C394   C     0.16720   0.38403   0.75007   0.00000  Uiso   1.00
C395   C     0.18652   0.09322   0.71329   0.00000  Uiso   1.00
C396   C     0.18454   0.40690   0.79236   0.00000  Uiso   1.00
C397   C     0.18729   0.04724   0.71355   0.00000  Uiso   1.00
C398   C     0.18528   0.45289   0.79235   0.00000  Uiso   1.00
C399   C     0.16816   0.02410   0.75032   0.00000  Uiso   1.00
C400   C     0.16816   0.47600   0.75019   0.00000  Uiso   1.00
H401   H     0.13310   0.02922   0.81525   0.00000  Uiso   1.00
H402   H     0.13665   0.47081   0.67533   0.00000  Uiso   1.00
H403   H     0.13302   0.11036   0.81553   0.00000  Uiso   1.00
H404   H     0.13658   0.38971   0.67498   0.00000  Uiso   1.00
H405   H     0.20161   0.11089   0.68479   0.00000  Uiso   1.00
H406   H     0.19806   0.38930   0.82515   0.00000  Uiso   1.00
H407   H     0.20311   0.02975   0.68538   0.00000  Uiso   1.00
H408   H     0.19953   0.47040   0.82503   0.00000  Uiso   1.00
H409   H     0.09535   0.21166   0.52580   0.00000  Uiso   1.00
H410   H     0.20325   0.31488   0.96980   0.00000  Uiso   1.00
H411   H     0.09770   0.21164   0.61289   0.00000  Uiso   1.00
H412   H     0.20366   0.31292   0.88314   0.00000  Uiso   1.00
H413   H     0.23537   0.28869   0.63043   0.00000  Uiso   1.00
H414   H     0.12952   0.18716   0.87364   0.00000  Uiso   1.00
H415   H     0.23775   0.28849   0.54399   0.00000  Uiso   1.00
H416   H     0.12978   0.18523   0.96040   0.00000  Uiso   1.00
N417   N     0.16667   0.24999   0.62623   0.00000  Uiso   1.00
N418   N     0.16667   0.25001   0.87376   0.00000  Uiso   1.00
O419   O     0.16667   0.18453   0.78974   0.00000  Uiso   1.00
O420   O     0.16666   0.31546   0.71026   0.00000  Uiso   1.00
O421   O     0.16667   0.18453   0.71026   0.00000  Uiso   1.00
O422   O     0.16666   0.31547   0.78974   0.00000  Uiso   1.00
O423   O     0.09058   0.25000   0.78044   0.00000  Uiso   1.00
O424   O     0.24275   0.25000   0.71955   0.00000  Uiso   1.00
O425   O     0.09058   0.25000   0.70096   0.00000  Uiso   1.00
O426   O     0.24275   0.25000   0.79903   0.00000  Uiso   1.00
Zn427  Zn    0.16667   0.25000   0.80307   0.00000  Uiso   1.00
Zn428  Zn    0.16667   0.24999   0.69693   0.00000  Uiso   1.00
N429   N     0.32583   0.21428   0.69349   0.00000  Uiso   1.00
H430   H     0.30429   0.18821   0.70556   0.00000  Uiso   1.00
H431   H     0.30330   0.23305   0.66725   0.00000  Uiso   1.00
N432   N     0.00765   0.28501   0.80696   0.00000  Uiso   1.00
H433   H     0.02905   0.31128   0.79511   0.00000  Uiso   1.00
H434   H     0.03030   0.26600   0.83293   0.00000  Uiso   1.00
C435   C     0.50007   0.16389   0.75002   0.00000  Uiso   1.00
C436   C     0.50008   0.33613   0.75001   0.00000  Uiso   1.00
C437   C     0.46054   0.22828   0.54760   0.00000  Uiso   1.00
C438   C     0.52080   0.28595   0.95005   0.00000  Uiso   1.00
C439   C     0.46144   0.22852   0.59735   0.00000  Uiso   1.00
C440   C     0.52065   0.28518   0.90040   0.00000  Uiso   1.00
C441   C     0.53842   0.27159   0.60717   0.00000  Uiso   1.00
C442   C     0.47921   0.21489   0.89509   0.00000  Uiso   1.00
C443   C     0.53929   0.27181   0.55765   0.00000  Uiso   1.00
C444   C     0.47897   0.21414   0.94469   0.00000  Uiso   1.00
C445   C     0.49991   0.25003   0.52669   0.00000  Uiso   1.00
C446   C     0.49988   0.25004   0.97331   0.00000  Uiso   1.00
C447   C     0.40063   0.24978   0.73798   0.00000  Uiso   1.00
C448   C     0.59937   0.25012   0.76204   0.00000  Uiso   1.00
C449   C     0.34687   0.24255   0.73273   0.00000  Uiso   1.00
C450   C     0.65317   0.25712   0.76741   0.00000  Uiso   1.00
C451   C     0.48199   0.04694   0.78705   0.00000  Uiso   1.00
C452   C     0.48399   0.45312   0.70794   0.00000  Uiso   1.00
C453   C     0.48179   0.09293   0.78710   0.00000  Uiso   1.00
C454   C     0.48378   0.40713   0.70781   0.00000  Uiso   1.00
C455   C     0.50052   0.11603   0.75011   0.00000  Uiso   1.00
C456   C     0.50054   0.38403   0.75007   0.00000  Uiso   1.00
C457   C     0.51985   0.09322   0.71329   0.00000  Uiso   1.00
C458   C     0.51787   0.40690   0.79236   0.00000  Uiso   1.00
C459   C     0.52062   0.04724   0.71355   0.00000  Uiso   1.00
C460   C     0.51861   0.45289   0.79235   0.00000  Uiso   1.00
C461   C     0.50149   0.02410   0.75032   0.00000  Uiso   1.00
C462   C     0.50149   0.47600   0.75019   0.00000  Uiso   1.00
H463   H     0.46643   0.02922   0.81525   0.00000  Uiso   1.00
H464   H     0.46998   0.47081   0.67533   0.00000  Uiso   1.00
H465   H     0.46636   0.11036   0.81553   0.00000  Uiso   1.00
H466   H     0.46991   0.38971   0.67498   0.00000  Uiso   1.00
H467   H     0.53494   0.11089   0.68479   0.00000  Uiso   1.00
H468   H     0.53140   0.38930   0.82515   0.00000  Uiso   1.00
H469   H     0.53644   0.02975   0.68538   0.00000  Uiso   1.00
H470   H     0.53287   0.47040   0.82503   0.00000  Uiso   1.00
H471   H     0.42868   0.21166   0.52580   0.00000  Uiso   1.00
H472   H     0.53659   0.31488   0.96980   0.00000  Uiso   1.00
H473   H     0.43103   0.21164   0.61289   0.00000  Uiso   1.00
H474   H     0.53699   0.31292   0.88314   0.00000  Uiso   1.00
H475   H     0.56870   0.28869   0.63043   0.00000  Uiso   1.00
H476   H     0.46285   0.18716   0.87364   0.00000  Uiso   1.00
H477   H     0.57108   0.28849   0.54399   0.00000  Uiso   1.00
H478   H     0.46311   0.18523   0.96040   0.00000  Uiso   1.00
N479   N     0.50000   0.24999   0.62623   0.00000  Uiso   1.00
N480   N     0.50000   0.25001   0.87376   0.00000  Uiso   1.00
O481   O     0.50000   0.18453   0.78974   0.00000  Uiso   1.00
O482   O     0.50000   0.31546   0.71026   0.00000  Uiso   1.00
O483   O     0.50000   0.18453   0.71026   0.00000  Uiso   1.00
O484   O     0.50000   0.31547   0.78974   0.00000  Uiso   1.00
O485   O     0.42392   0.25000   0.78044   0.00000  Uiso   1.00
O486   O     0.57608   0.25000   0.71955   0.00000  Uiso   1.00
O487   O     0.42392   0.25000   0.70096   0.00000  Uiso   1.00
O488   O     0.57608   0.25000   0.79903   0.00000  Uiso   1.00
Zn489  Zn    0.50000   0.25000   0.80307   0.00000  Uiso   1.00
Zn490  Zn    0.50000   0.24999   0.69693   0.00000  Uiso   1.00
N491   N     0.65916   0.21428   0.69349   0.00000  Uiso   1.00
H492   H     0.63762   0.18821   0.70556   0.00000  Uiso   1.00
H493   H     0.63663   0.23305   0.66725   0.00000  Uiso   1.00
N494   N     0.34098   0.28501   0.80696   0.00000  Uiso   1.00
H495   H     0.36239   0.31128   0.79511   0.00000  Uiso   1.00
H496   H     0.36363   0.26600   0.83293   0.00000  Uiso   1.00
C497   C     0.83340   0.16389   0.75002   0.00000  Uiso   1.00
C498   C     0.83342   0.33613   0.75001   0.00000  Uiso   1.00
C499   C     0.79387   0.22828   0.54760   0.00000  Uiso   1.00
C500   C     0.85413   0.28595   0.95005   0.00000  Uiso   1.00
C501   C     0.79478   0.22852   0.59735   0.00000  Uiso   1.00
C502   C     0.85399   0.28518   0.90040   0.00000  Uiso   1.00
C503   C     0.87175   0.27159   0.60717   0.00000  Uiso   1.00
C504   C     0.81254   0.21489   0.89509   0.00000  Uiso   1.00
C505   C     0.87262   0.27181   0.55765   0.00000  Uiso   1.00
C506   C     0.81230   0.21414   0.94469   0.00000  Uiso   1.00
C507   C     0.83324   0.25003   0.52669   0.00000  Uiso   1.00
C508   C     0.83322   0.25004   0.97331   0.00000  Uiso   1.00
C509   C     0.73397   0.24978   0.73798   0.00000  Uiso   1.00
C510   C     0.93270   0.25012   0.76204   0.00000  Uiso   1.00
C511   C     0.68020   0.24255   0.73273   0.00000  Uiso   1.00
C512   C     0.98650   0.25712   0.76741   0.00000  Uiso   1.00
C513   C     0.81532   0.04694   0.78705   0.00000  Uiso   1.00
C514   C     0.81732   0.45312   0.70794   0.00000  Uiso   1.00
C515   C     0.81512   0.09293   0.78710   0.00000  Uiso   1.00
C516   C     0.81712   0.40713   0.70781   0.00000  Uiso   1.00
C517   C     0.83385   0.11603   0.75011   0.00000  Uiso   1.00
C518   C     0.83387   0.38403   0.75007   0.00000  Uiso   1.00
C519   C     0.85318   0.09322   0.71329   0.00000  Uiso   1.00
C520   C     0.85120   0.40690   0.79236   0.00000  Uiso   1.00
C521   C     0.85396   0.04724   0.71355   0.00000  Uiso   1.00
C522   C     0.85195   0.45289   0.79235   0.00000  Uiso   1.00
C523   C     0.83483   0.02410   0.75032   0.00000  Uiso   1.00
C524   C     0.83482   0.47600   0.75019   0.00000  Uiso   1.00
H525   H     0.79976   0.02922   0.81525   0.00000  Uiso   1.00
H526   H     0.80331   0.47081   0.67533   0.00000  Uiso   1.00
H527   H     0.79969   0.11036   0.81553   0.00000  Uiso   1.00
H528   H     0.80324   0.38971   0.67498   0.00000  Uiso   1.00
H529   H     0.86827   0.11089   0.68479   0.00000  Uiso   1.00
H530   H     0.86473   0.38930   0.82515   0.00000  Uiso   1.00
H531   H     0.86977   0.02975   0.68538   0.00000  Uiso   1.00
H532   H     0.86620   0.47040   0.82503   0.00000  Uiso   1.00
H533   H     0.76202   0.21166   0.52580   0.00000  Uiso   1.00
H534   H     0.86992   0.31488   0.96980   0.00000  Uiso   1.00
H535   H     0.76437   0.21164   0.61289   0.00000  Uiso   1.00
H536   H     0.87032   0.31292   0.88314   0.00000  Uiso   1.00
H537   H     0.90203   0.28869   0.63043   0.00000  Uiso   1.00
H538   H     0.79618   0.18716   0.87364   0.00000  Uiso   1.00
H539   H     0.90441   0.28849   0.54399   0.00000  Uiso   1.00
H540   H     0.79645   0.18523   0.96040   0.00000  Uiso   1.00
N541   N     0.83333   0.24999   0.62623   0.00000  Uiso   1.00
N542   N     0.83333   0.25001   0.87376   0.00000  Uiso   1.00
O543   O     0.83334   0.18453   0.78974   0.00000  Uiso   1.00
O544   O     0.83333   0.31546   0.71026   0.00000  Uiso   1.00
O545   O     0.83334   0.18453   0.71026   0.00000  Uiso   1.00
O546   O     0.83333   0.31547   0.78974   0.00000  Uiso   1.00
O547   O     0.75725   0.25000   0.78044   0.00000  Uiso   1.00
O548   O     0.90942   0.25000   0.71955   0.00000  Uiso   1.00
O549   O     0.75725   0.25000   0.70096   0.00000  Uiso   1.00
O550   O     0.90942   0.25000   0.79903   0.00000  Uiso   1.00
Zn551  Zn    0.83333   0.25000   0.80307   0.00000  Uiso   1.00
Zn552  Zn    0.83333   0.24999   0.69693   0.00000  Uiso   1.00
N553   N     0.99249   0.21428   0.69349   0.00000  Uiso   1.00
H554   H     0.97096   0.18821   0.70556   0.00000  Uiso   1.00
H555   H     0.96997   0.23305   0.66725   0.00000  Uiso   1.00
N556   N     0.67431   0.28501   0.80696   0.00000  Uiso   1.00
H557   H     0.69572   0.31128   0.79511   0.00000  Uiso   1.00
H558   H     0.69697   0.26600   0.83293   0.00000  Uiso   1.00
C559   C     0.16673   0.66389   0.75002   0.00000  Uiso   1.00
C560   C     0.16675   0.83613   0.75001   0.00000  Uiso   1.00
C561   C     0.12720   0.72828   0.54760   0.00000  Uiso   1.00
C562   C     0.18746   0.78595   0.95005   0.00000  Uiso   1.00
C563   C     0.12811   0.72852   0.59735   0.00000  Uiso   1.00
C564   C     0.18732   0.78518   0.90040   0.00000  Uiso   1.00
C565   C     0.20509   0.77159   0.60717   0.00000  Uiso   1.00
C566   C     0.14588   0.71489   0.89509   0.00000  Uiso   1.00
C567   C     0.20595   0.77181   0.55765   0.00000  Uiso   1.00
C568   C     0.14563   0.71414   0.94469   0.00000  Uiso   1.00
C569   C     0.16658   0.75003   0.52669   0.00000  Uiso   1.00
C570   C     0.16655   0.75004   0.97331   0.00000  Uiso   1.00
C571   C     0.06730   0.74978   0.73798   0.00000  Uiso   1.00
C572   C     0.26603   0.75012   0.76204   0.00000  Uiso   1.00
C573   C     0.01353   0.74255   0.73273   0.00000  Uiso   1.00
C574   C     0.31984   0.75712   0.76741   0.00000  Uiso   1.00
C575   C     0.14866   0.54694   0.78705   0.00000  Uiso   1.00
C576   C     0.15065   0.95312   0.70794   0.00000  Uiso   1.00
C577   C     0.14845   0.59293   0.78710   0.00000  Uiso   1.00
C578   C     0.15045   0.90713   0.70781   0.00000  Uiso   1.00
C579   C     0.16718   0.61603   0.75011   0.00000  Uiso   1.00
C580   C     0.16720   0.88403   0.75007   0.00000  Uiso   1.00
C581   C     0.18652   0.59322   0.71329   0.00000  Uiso   1.00
C582   C     0.18454   0.90690   0.79236   0.00000  Uiso   1.00
C583   C     0.18729   0.54724   0.71355   0.00000  Uiso   1.00
C584   C     0.18528   0.95289   0.79235   0.00000  Uiso   1.00
C585   C     0.16816   0.52410   0.75032   0.00000  Uiso   1.00
C586   C     0.16816   0.97600   0.75019   0.00000  Uiso   1.00
H587   H     0.13310   0.52922   0.81525   0.00000  Uiso   1.00
H588   H     0.13665   0.97081   0.67533   0.00000  Uiso   1.00
H589   H     0.13302   0.61036   0.81553   0.00000  Uiso   1.00
H590   H     0.13658   0.88971   0.67498   0.00000  Uiso   1.00
H591   H     0.20161   0.61089   0.68479   0.00000  Uiso   1.00
H592   H     0.19806   0.88930   0.82515   0.00000  Uiso   1.00
H593   H     0.20311   0.52975   0.68538   0.00000  Uiso   1.00
H594   H     0.19953   0.97040   0.82503   0.00000  Uiso   1.00
H595   H     0.09535   0.71166   0.52580   0.00000  Uiso   1.00
H596   H     0.20325   0.81488   0.96980   0.00000  Uiso   1.00
H597   H     0.09770   0.71164   0.61289   0.00000  Uiso   1.00
H598   H     0.20366   0.81292   0.88314   0.00000  Uiso   1.00
H599   H     0.23537   0.78869   0.63043   0.00000  Uiso   1.00
H600   H     0.12952   0.68716   0.87364   0.00000  Uiso   1.00
H601   H     0.23775   0.78849   0.54399   0.00000  Uiso   1.00
H602   H     0.12978   0.68523   0.96040   0.00000  Uiso   1.00
N603   N     0.16667   0.74999   0.62623   0.00000  Uiso   1.00
N604   N     0.16667   0.75001   0.87376   0.00000  Uiso   1.00
O605   O     0.16667   0.68453   0.78974   0.00000  Uiso   1.00
O606   O     0.16666   0.81546   0.71026   0.00000  Uiso   1.00
O607   O     0.16667   0.68453   0.71026   0.00000  Uiso   1.00
O608   O     0.16666   0.81547   0.78974   0.00000  Uiso   1.00
O609   O     0.09058   0.75000   0.78044   0.00000  Uiso   1.00
O610   O     0.24275   0.75000   0.71955   0.00000  Uiso   1.00
O611   O     0.09058   0.75000   0.70096   0.00000  Uiso   1.00
O612   O     0.24275   0.75000   0.79903   0.00000  Uiso   1.00
Zn613  Zn    0.16667   0.75000   0.80307   0.00000  Uiso   1.00
Zn614  Zn    0.16667   0.74999   0.69693   0.00000  Uiso   1.00
N615   N     0.32583   0.71428   0.69349   0.00000  Uiso   1.00
H616   H     0.30429   0.68821   0.70556   0.00000  Uiso   1.00
H617   H     0.30330   0.73305   0.66725   0.00000  Uiso   1.00
N618   N     0.00765   0.78501   0.80696   0.00000  Uiso   1.00
H619   H     0.02905   0.81128   0.79511   0.00000  Uiso   1.00
H620   H     0.03030   0.76600   0.83293   0.00000  Uiso   1.00
C621   C     0.50007   0.66389   0.75002   0.00000  Uiso   1.00
C622   C     0.50008   0.83613   0.75001   0.00000  Uiso   1.00
C623   C     0.46054   0.72828   0.54760   0.00000  Uiso   1.00
C624   C     0.52080   0.78595   0.95005   0.00000  Uiso   1.00
C625   C     0.46144   0.72852   0.59735   0.00000  Uiso   1.00
C626   C     0.52065   0.78518   0.90040   0.00000  Uiso   1.00
C627   C     0.53842   0.77159   0.60717   0.00000  Uiso   1.00
C628   C     0.47921   0.71489   0.89509   0.00000  Uiso   1.00
C629   C     0.53929   0.77181   0.55765   0.00000  Uiso   1.00
C630   C     0.47897   0.71414   0.94469   0.00000  Uiso   1.00
C631   C     0.49991   0.75003   0.52669   0.00000  Uiso   1.00
C632   C     0.49988   0.75004   0.97331   0.00000  Uiso   1.00
C633   C     0.40063   0.74978   0.73798   0.00000  Uiso   1.00
C634   C     0.59937   0.75012   0.76204   0.00000  Uiso   1.00
C635   C     0.34687   0.74255   0.73273   0.00000  Uiso   1.00
C636   C     0.65317   0.75712   0.76741   0.00000  Uiso   1.00
C637   C     0.48199   0.54694   0.78705   0.00000  Uiso   1.00
C638   C     0.48399   0.95312   0.70794   0.00000  Uiso   1.00
C639   C     0.48179   0.59293   0.78710   0.00000  Uiso   1.00
C640   C     0.48378   0.90713   0.70781   0.00000  Uiso   1.00
C641   C     0.50052   0.61603   0.75011   0.00000  Uiso   1.00
C642   C     0.50054   0.88403   0.75007   0.00000  Uiso   1.00
C643   C     0.51985   0.59322   0.71329   0.00000  Uiso   1.00
C644   C     0.51787   0.90690   0.79236   0.00000  Uiso   1.00
C645   C     0.52062   0.54724   0.71355   0.00000  Uiso   1.00
C646   C     0.51861   0.95289   0.79235   0.00000  Uiso   1.00
C647   C     0.50149   0.52410   0.75032   0.00000  Uiso   1.00
C648   C     0.50149   0.97600   0.75019   0.00000  Uiso   1.00
H649   H     0.46643   0.52922   0.81525   0.00000  Uiso   1.00
H650   H     0.46998   0.97081   0.67533   0.00000  Uiso   1.00
H651   H     0.46636   0.61036   0.81553   0.00000  Uiso   1.00
H652   H     0.46991   0.88971   0.67498   0.00000  Uiso   1.00
H653   H     0.53494   0.61089   0.68479   0.00000  Uiso   1.00
H654   H     0.53140   0.88930   0.82515   0.00000  Uiso   1.00
H655   H     0.53644   0.52975   0.68538   0.00000  Uiso   1.00
H656   H     0.53287   0.97040   0.82503   0.00000  Uiso   1.00
H657   H     0.42868   0.71166   0.52580   0.00000  Uiso   1.00
H658   H     0.53659   0.81488   0.96980   0.00000  Uiso   1.00
H659   H     0.43103   0.71164   0.61289   0.00000  Uiso   1.00
H660   H     0.53699   0.81292   0.88314   0.00000  Uiso   1.00
H661   H     0.56870   0.78869   0.63043   0.00000  Uiso   1.00
H662   H     0.46285   0.68716   0.87364   0.00000  Uiso   1.00
H663   H     0.57108   0.78849   0.54399   0.00000  Uiso   1.00
H664   H     0.46311   0.68523   0.96040   0.00000  Uiso   1.00
N665   N     0.50000   0.74999   0.62623   0.00000  Uiso   1.00
N666   N     0.50000   0.75001   0.87376   0.00000  Uiso   1.00
O667   O     0.50000   0.68453   0.78974   0.00000  Uiso   1.00
O668   O     0.50000   0.81546   0.71026   0.00000  Uiso   1.00
O669   O     0.50000   0.68453   0.71026   0.00000  Uiso   1.00
O670   O     0.50000   0.81547   0.78974   0.00000  Uiso   1.00
O671   O     0.42392   0.75000   0.78044   0.00000  Uiso   1.00
O672   O     0.57608   0.75000   0.71955   0.00000  Uiso   1.00
O673   O     0.42392   0.75000   0.70096   0.00000  Uiso   1.00
O674   O     0.57608   0.75000   0.79903   0.00000  Uiso   1.00
Zn675  Zn    0.50000   0.75000   0.80307   0.00000  Uiso   1.00
Zn676  Zn    0.50000   0.74999   0.69693   0.00000  Uiso   1.00
N677   N     0.65916   0.71428   0.69349   0.00000  Uiso   1.00
H678   H     0.63762   0.68821   0.70556   0.00000  Uiso   1.00
H679   H     0.63663   0.73305   0.66725   0.00000  Uiso   1.00
N680   N     0.34098   0.78501   0.80696   0.00000  Uiso   1.00
H681   H     0.36239   0.81128   0.79511   0.00000  Uiso   1.00
H682   H     0.36363   0.76600   0.83293   0.00000  Uiso   1.00
C683   C     0.83340   0.66389   0.75002   0.00000  Uiso   1.00
C684   C     0.83342   0.83613   0.75001   0.00000  Uiso   1.00
C685   C     0.79387   0.72828   0.54760   0.00000  Uiso   1.00
C686   C     0.85413   0.78595   0.95005   0.00000  Uiso   1.00
C687   C     0.79478   0.72852   0.59735   0.00000  Uiso   1.00
C688   C     0.85399   0.78518   0.90040   0.00000  Uiso   1.00
C689   C     0.87175   0.77159   0.60717   0.00000  Uiso   1.00
C690   C     0.81254   0.71489   0.89509   0.00000  Uiso   1.00
C691   C     0.87262   0.77181   0.55765   0.00000  Uiso   1.00
C692   C     0.81230   0.71414   0.94469   0.00000  Uiso   1.00
C693   C     0.83324   0.75003   0.52669   0.00000  Uiso   1.00
C694   C     0.83322   0.75004   0.97331   0.00000  Uiso   1.00
C695   C     0.73397   0.74978   0.73798   0.00000  Uiso   1.00
C696   C     0.93270   0.75012   0.76204   0.00000  Uiso   1.00
C697   C     0.68020   0.74255   0.73273   0.00000  Uiso   1.00
C698   C     0.98650   0.75712   0.76741   0.00000  Uiso   1.00
C699   C     0.81532   0.54694   0.78705   0.00000  Uiso   1.00
C700   C     0.81732   0.95312   0.70794   0.00000  Uiso   1.00
C701   C     0.81512   0.59293   0.78710   0.00000  Uiso   1.00
C702   C     0.81712   0.90713   0.70781   0.00000  Uiso   1.00
C703   C     0.83385   0.61603   0.75011   0.00000  Uiso   1.00
C704   C     0.83387   0.88403   0.75007   0.00000  Uiso   1.00
C705   C     0.85318   0.59322   0.71329   0.00000  Uiso   1.00
C706   C     0.85120   0.90690   0.79236   0.00000  Uiso   1.00
C707   C     0.85396   0.54724   0.71355   0.00000  Uiso   1.00
C708   C     0.85195   0.95289   0.79235   0.00000  Uiso   1.00
C709   C     0.83483   0.52410   0.75032   0.00000  Uiso   1.00
C710   C     0.83482   0.97600   0.75019   0.00000  Uiso   1.00
H711   H     0.79976   0.52922   0.81525   0.00000  Uiso   1.00
H712   H     0.80331   0.97081   0.67533   0.00000  Uiso   1.00
H713   H     0.79969   0.61036   0.81553   0.00000  Uiso   1.00
H714   H     0.80324   0.88971   0.67498   0.00000  Uiso   1.00
H715   H     0.86827   0.61089   0.68479   0.00000  Uiso   1.00
H716   H     0.86473   0.88930   0.82515   0.00000  Uiso   1.00
H717   H     0.86977   0.52975   0.68538   0.00000  Uiso   1.00
H718   H     0.86620   0.97040   0.82503   0.00000  Uiso   1.00
H719   H     0.76202   0.71166   0.52580   0.00000  Uiso   1.00
H720   H     0.86992   0.81488   0.96980   0.00000  Uiso   1.00
H721   H     0.76437   0.71164   0.61289   0.00000  Uiso   1.00
H722   H     0.87032   0.81292   0.88314   0.00000  Uiso   1.00
H723   H     0.90203   0.78869   0.63043   0.00000  Uiso   1.00
H724   H     0.79618   0.68716   0.87364   0.00000  Uiso   1.00
H725   H     0.90441   0.78849   0.54399   0.00000  Uiso   1.00
H726   H     0.79645   0.68523   0.96040   0.00000  Uiso   1.00
N727   N     0.83333   0.74999   0.62623   0.00000  Uiso   1.00
N728   N     0.83333   0.75001   0.87376   0.00000  Uiso   1.00
O729   O     0.83334   0.68453   0.78974   0.00000  Uiso   1.00
O730   O     0.83333   0.81546   0.71026   0.00000  Uiso   1.00
O731   O     0.83334   0.68453   0.71026   0.00000  Uiso   1.00
O732   O     0.83333   0.81547   0.78974   0.00000  Uiso   1.00
O733   O     0.75725   0.75000   0.78044   0.00000  Uiso   1.00
O734   O     0.90942   0.75000   0.71955   0.00000  Uiso   1.00
O735   O     0.75725   0.75000   0.70096   0.00000  Uiso   1.00
O736   O     0.90942   0.75000   0.79903   0.00000  Uiso   1.00
Zn737  Zn    0.83333   0.75000   0.80307   0.00000  Uiso   1.00
Zn738  Zn    0.83333   0.74999   0.69693   0.00000  Uiso   1.00
N739   N     0.99249   0.71428   0.69349   0.00000  Uiso   1.00
H740   H     0.97096   0.68821   0.70556   0.00000  Uiso   1.00
H741   H     0.96997   0.73305   0.66725   0.00000  Uiso   1.00
N742   N     0.67431   0.78501   0.80696   0.00000  Uiso   1.00
H743   H     0.69572   0.81128   0.79511   0.00000  Uiso   1.00
H744   H     0.69697   0.76600   0.83293   0.00000  Uiso   1.00
loop_
_geom_bond_atom_site_label_1
_geom_bond_atom_site_label_2
_geom_bond_distance
_geom_bond_site_symmetry_2
_ccdc_geom_bond_type
C1     C21     1.437   .     S
C1     O47     1.285   .     A
C1     O49     1.285   .     A
C2     C22     1.438   .     S
C2     O50     1.285   .     A
C2     O48     1.285   .     A
C3     C11     1.411   .     A
C3     C5      1.406   .     A
C3     H37     1.082   .     S
C4     C12     1.410   .     A
C4     C6      1.406   .     A
C4     H38     1.082   .     S
C5     H39     1.082   .     S
C5     N45     1.362   .     A
C6     N46     1.363   .     A
C6     H40     1.081   .     S
C7     N45     1.362   .     A
C7     H41     1.082   .     S
C7     C9      1.406   .     A
C8     H42     1.081   .     S
C8     N46     1.363   .     A
C8     C10     1.406   .     A
C9     C11     1.411   .     A
C9     H43     1.082   .     S
C10    C12     1.410   .     A
C10    H44     1.082   .     S
C11    C384    1.512   1_554 S
C12    C383    1.512   .     S
C13    C15     1.400   .     S
C13    O53     1.281   .     A
C13    O51     1.269   .     A
C14    O52     1.269   .     A
C14    O54     1.281   .     A
C14    C16     1.399   .     S
C15    C140    1.358   1_455 S
C15    N181    1.443   1_455 S
C16    C77     1.358   .     S
C16    N122    1.444   .     S
C17    H29     1.083   .     S
C17    C27     1.399   .     A
C17    C19     1.380   .     A
C18    H30     1.083   .     S
C18    C28     1.399   .     A
C18    C20     1.380   .     A
C19    H31     1.084   .     S
C19    C21     1.399   .     A
C20    H32     1.083   .     S
C20    C22     1.399   .     A
C21    C23     1.399   .     A
C22    C24     1.399   .     A
C23    C25     1.380   .     A
C23    H33     1.084   .     S
C24    C26     1.380   .     A
C24    H34     1.083   .     S
C25    H35     1.083   .     S
C25    C27     1.399   .     A
C26    C28     1.399   .     A
C26    H36     1.083   .     S
C27    C214    1.444   1_545 S
C28    C213    1.444   .     S
N45    Zn56    2.003   .     S
N46    Zn55    2.003   .     S
O47    Zn55    2.001   .     S
O48    Zn56    2.001   .     S
O49    Zn56    2.001   .     S
O50    Zn55    2.001   .     S
O51    Zn55    1.990   .     S
O52    Zn56    1.990   .     S
O53    Zn56    1.995   .     S
O54    Zn55    1.995   .     S
N57    H58     1.046   .     S
N57    H59     1.044   .     S
N57    C77     1.443   .     S
N60    H62     1.045   .     S
N60    H61     1.046   .     S
N60    C140    1.444   1_455 S
C63    C83     1.437   .     S
C63    O109    1.285   .     A
C63    O111    1.285   .     A
C64    C84     1.438   .     S
C64    O112    1.285   .     A
C64    O110    1.285   .     A
C65    C73     1.411   .     A
C65    C67     1.406   .     A
C65    H99     1.082   .     S
C66    C74     1.410   .     A
C66    C68     1.406   .     A
C66    H100    1.082   .     S
C67    H101    1.082   .     S
C67    N107    1.362   .     A
C68    N108    1.363   .     A
C68    H102    1.081   .     S
C69    N107    1.362   .     A
C69    H103    1.082   .     S
C69    C71     1.406   .     A
C70    H104    1.081   .     S
C70    N108    1.363   .     A
C70    C72     1.406   .     A
C71    C73     1.411   .     A
C71    H105    1.082   .     S
C72    C74     1.410   .     A
C72    H106    1.082   .     S
C73    C446    1.512   1_554 S
C74    C445    1.512   .     S
C75    C77     1.400   .     S
C75    O115    1.281   .     A
C75    O113    1.269   .     A
C76    O114    1.269   .     A
C76    O116    1.281   .     A
C76    C78     1.399   .     S
C78    C139    1.358   .     S
C78    N184    1.444   .     S
C79    H91     1.083   .     S
C79    C89     1.399   .     A
C79    C81     1.380   .     A
C80    H92     1.083   .     S
C80    C90     1.399   .     A
C80    C82     1.380   .     A
C81    H93     1.084   .     S
C81    C83     1.399   .     A
C82    H94     1.083   .     S
C82    C84     1.399   .     A
C83    C85     1.399   .     A
C84    C86     1.399   .     A
C85    C87     1.380   .     A
C85    H95     1.084   .     S
C86    C88     1.380   .     A
C86    H96     1.083   .     S
C87    H97     1.083   .     S
C87    C89     1.399   .     A
C88    C90     1.399   .     A
C88    H98     1.083   .     S
C89    C276    1.444   1_545 S
C90    C275    1.444   .     S
N107   Zn118   2.003   .     S
N108   Zn117   2.003   .     S
O109   Zn117   2.001   .     S
O110   Zn118   2.001   .     S
O111   Zn118   2.001   .     S
O112   Zn117   2.001   .     S
O113   Zn117   1.990   .     S
O114   Zn118   1.990   .     S
O115   Zn118   1.995   .     S
O116   Zn117   1.995   .     S
N119   H120    1.046   .     S
N119   H121    1.044   .     S
N119   C139    1.443   .     S
N122   H124    1.045   .     S
N122   H123    1.046   .     S
C125   C145    1.437   .     S
C125   O171    1.285   .     A
C125   O173    1.285   .     A
C126   C146    1.438   .     S
C126   O174    1.285   .     A
C126   O172    1.285   .     A
C127   C135    1.411   .     A
C127   C129    1.406   .     A
C127   H161    1.082   .     S
C128   C136    1.410   .     A
C128   C130    1.406   .     A
C128   H162    1.082   .     S
C129   H163    1.082   .     S
C129   N169    1.362   .     A
C130   N170    1.363   .     A
C130   H164    1.081   .     S
C131   N169    1.362   .     A
C131   H165    1.082   .     S
C131   C133    1.406   .     A
C132   H166    1.081   .     S
C132   N170    1.363   .     A
C132   C134    1.406   .     A
C133   C135    1.411   .     A
C133   H167    1.082   .     S
C134   C136    1.410   .     A
C134   H168    1.082   .     S
C135   C508    1.512   1_554 S
C136   C507    1.512   .     S
C137   C139    1.400   .     S
C137   O177    1.281   .     A
C137   O175    1.269   .     A
C138   O176    1.269   .     A
C138   O178    1.281   .     A
C138   C140    1.399   .     S
C140   C15     1.358   1_655 S
C140   N60     1.444   1_655 S
C141   H153    1.083   .     S
C141   C151    1.399   .     A
C141   C143    1.380   .     A
C142   H154    1.083   .     S
C142   C152    1.399   .     A
C142   C144    1.380   .     A
C143   H155    1.084   .     S
C143   C145    1.399   .     A
C144   H156    1.083   .     S
C144   C146    1.399   .     A
C145   C147    1.399   .     A
C146   C148    1.399   .     A
C147   C149    1.380   .     A
C147   H157    1.084   .     S
C148   C150    1.380   .     A
C148   H158    1.083   .     S
C149   H159    1.083   .     S
C149   C151    1.399   .     A
C150   C152    1.399   .     A
C150   H160    1.083   .     S
C151   C338    1.444   1_545 S
C152   C337    1.444   .     S
N169   Zn180   2.003   .     S
N170   Zn179   2.003   .     S
O171   Zn179   2.001   .     S
O172   Zn180   2.001   .     S
O173   Zn180   2.001   .     S
O174   Zn179   2.001   .     S
O175   Zn179   1.990   .     S
O176   Zn180   1.990   .     S
O177   Zn180   1.995   .     S
O178   Zn179   1.995   .     S
N181   H182    1.046   .     S
N181   H183    1.044   .     S
N181   C15     1.443   1_655 S
N184   H186    1.045   .     S
N184   H185    1.046   .     S
C187   C207    1.437   .     S
C187   O233    1.285   .     A
C187   O235    1.285   .     A
C188   C208    1.438   .     S
C188   O236    1.285   .     A
C188   O234    1.285   .     A
C189   C197    1.411   .     A
C189   C191    1.406   .     A
C189   H223    1.082   .     S
C190   C198    1.410   .     A
C190   C192    1.406   .     A
C190   H224    1.082   .     S
C191   H225    1.082   .     S
C191   N231    1.362   .     A
C192   N232    1.363   .     A
C192   H226    1.081   .     S
C193   N231    1.362   .     A
C193   H227    1.082   .     S
C193   C195    1.406   .     A
C194   H228    1.081   .     S
C194   N232    1.363   .     A
C194   C196    1.406   .     A
C195   C197    1.411   .     A
C195   H229    1.082   .     S
C196   C198    1.410   .     A
C196   H230    1.082   .     S
C197   C570    1.512   1_554 S
C198   C569    1.512   .     S
C199   C201    1.400   .     S
C199   O239    1.281   .     A
C199   O237    1.269   .     A
C200   O238    1.269   .     A
C200   O240    1.281   .     A
C200   C202    1.399   .     S
C201   C326    1.358   1_455 S
C201   N367    1.443   1_455 S
C202   C263    1.358   .     S
C202   N308    1.444   .     S
C203   H215    1.083   .     S
C203   C213    1.399   .     A
C203   C205    1.380   .     A
C204   H216    1.083   .     S
C204   C214    1.399   .     A
C204   C206    1.380   .     A
C205   H217    1.084   .     S
C205   C207    1.399   .     A
C206   H218    1.083   .     S
C206   C208    1.399   .     A
C207   C209    1.399   .     A
C208   C210    1.399   .     A
C209   C211    1.380   .     A
C209   H219    1.084   .     S
C210   C212    1.380   .     A
C210   H220    1.083   .     S
C211   H221    1.083   .     S
C211   C213    1.399   .     A
C212   C214    1.399   .     A
C212   H222    1.083   .     S
C214   C27     1.444   1_565 S
N231   Zn242   2.003   .     S
N232   Zn241   2.003   .     S
O233   Zn241   2.001   .     S
O234   Zn242   2.001   .     S
O235   Zn242   2.001   .     S
O236   Zn241   2.001   .     S
O237   Zn241   1.990   .     S
O238   Zn242   1.990   .     S
O239   Zn242   1.995   .     S
O240   Zn241   1.995   .     S
N243   H244    1.046   .     S
N243   H245    1.044   .     S
N243   C263    1.443   .     S
N246   H248    1.045   .     S
N246   H247    1.046   .     S
N246   C326    1.444   1_455 S
C249   C269    1.437   .     S
C249   O295    1.285   .     A
C249   O297    1.285   .     A
C250   C270    1.438   .     S
C250   O298    1.285   .     A
C250   O296    1.285   .     A
C251   C259    1.411   .     A
C251   C253    1.406   .     A
C251   H285    1.082   .     S
C252   C260    1.410   .     A
C252   C254    1.406   .     A
C252   H286    1.082   .     S
C253   H287    1.082   .     S
C253   N293    1.362   .     A
C254   N294    1.363   .     A
C254   H288    1.081   .     S
C255   N293    1.362   .     A
C255   H289    1.082   .     S
C255   C257    1.406   .     A
C256   H290    1.081   .     S
C256   N294    1.363   .     A
C256   C258    1.406   .     A
C257   C259    1.411   .     A
C257   H291    1.082   .     S
C258   C260    1.410   .     A
C258   H292    1.082   .     S
C259   C632    1.512   1_554 S
C260   C631    1.512   .     S
C261   C263    1.400   .     S
C261   O301    1.281   .     A
C261   O299    1.269   .     A
C262   O300    1.269   .     A
C262   O302    1.281   .     A
C262   C264    1.399   .     S
C264   C325    1.358   .     S
C264   N370    1.444   .     S
C265   H277    1.083   .     S
C265   C275    1.399   .     A
C265   C267    1.380   .     A
C266   H278    1.083   .     S
C266   C276    1.399   .     A
C266   C268    1.380   .     A
C267   H279    1.084   .     S
C267   C269    1.399   .     A
C268   H280    1.083   .     S
C268   C270    1.399   .     A
C269   C271    1.399   .     A
C270   C272    1.399   .     A
C271   C273    1.380   .     A
C271   H281    1.084   .     S
C272   C274    1.380   .     A
C272   H282    1.083   .     S
C273   H283    1.083   .     S
C273   C275    1.399   .     A
C274   C276    1.399   .     A
C274   H284    1.083   .     S
C276   C89     1.444   1_565 S
N293   Zn304   2.003   .     S
N294   Zn303   2.003   .     S
O295   Zn303   2.001   .     S
O296   Zn304   2.001   .     S
O297   Zn304   2.001   .     S
O298   Zn303   2.001   .     S
O299   Zn303   1.990   .     S
O300   Zn304   1.990   .     S
O301   Zn304   1.995   .     S
O302   Zn303   1.995   .     S
N305   H306    1.046   .     S
N305   H307    1.044   .     S
N305   C325    1.443   .     S
N308   H310    1.045   .     S
N308   H309    1.046   .     S
C311   C331    1.437   .     S
C311   O357    1.285   .     A
C311   O359    1.285   .     A
C312   C332    1.438   .     S
C312   O360    1.285   .     A
C312   O358    1.285   .     A
C313   C321    1.411   .     A
C313   C315    1.406   .     A
C313   H347    1.082   .     S
C314   C322    1.410   .     A
C314   C316    1.406   .     A
C314   H348    1.082   .     S
C315   H349    1.082   .     S
C315   N355    1.362   .     A
C316   N356    1.363   .     A
C316   H350    1.081   .     S
C317   N355    1.362   .     A
C317   H351    1.082   .     S
C317   C319    1.406   .     A
C318   H352    1.081   .     S
C318   N356    1.363   .     A
C318   C320    1.406   .     A
C319   C321    1.411   .     A
C319   H353    1.082   .     S
C320   C322    1.410   .     A
C320   H354    1.082   .     S
C321   C694    1.512   1_554 S
C322   C693    1.512   .     S
C323   C325    1.400   .     S
C323   O363    1.281   .     A
C323   O361    1.269   .     A
C324   O362    1.269   .     A
C324   O364    1.281   .     A
C324   C326    1.399   .     S
C326   C201    1.358   1_655 S
C326   N246    1.444   1_655 S
C327   H339    1.083   .     S
C327   C337    1.399   .     A
C327   C329    1.380   .     A
C328   H340    1.083   .     S
C328   C338    1.399   .     A
C328   C330    1.380   .     A
C329   H341    1.084   .     S
C329   C331    1.399   .     A
C330   H342    1.083   .     S
C330   C332    1.399   .     A
C331   C333    1.399   .     A
C332   C334    1.399   .     A
C333   C335    1.380   .     A
C333   H343    1.084   .     S
C334   C336    1.380   .     A
C334   H344    1.083   .     S
C335   H345    1.083   .     S
C335   C337    1.399   .     A
C336   C338    1.399   .     A
C336   H346    1.083   .     S
C338   C151    1.444   1_565 S
N355   Zn366   2.003   .     S
N356   Zn365   2.003   .     S
O357   Zn365   2.001   .     S
O358   Zn366   2.001   .     S
O359   Zn366   2.001   .     S
O360   Zn365   2.001   .     S
O361   Zn365   1.990   .     S
O362   Zn366   1.990   .     S
O363   Zn366   1.995   .     S
O364   Zn365   1.995   .     S
N367   H368    1.046   .     S
N367   H369    1.044   .     S
N367   C201    1.443   1_655 S
N370   H372    1.045   .     S
N370   H371    1.046   .     S
C373   C393    1.437   .     S
C373   O419    1.285   .     A
C373   O421    1.285   .     A
C374   C394    1.438   .     S
C374   O422    1.285   .     A
C374   O420    1.285   .     A
C375   C383    1.411   .     A
C375   C377    1.406   .     A
C375   H409    1.082   .     S
C376   C384    1.410   .     A
C376   C378    1.406   .     A
C376   H410    1.082   .     S
C377   H411    1.082   .     S
C377   N417    1.362   .     A
C378   N418    1.363   .     A
C378   H412    1.081   .     S
C379   N417    1.362   .     A
C379   H413    1.082   .     S
C379   C381    1.406   .     A
C380   H414    1.081   .     S
C380   N418    1.363   .     A
C380   C382    1.406   .     A
C381   C383    1.411   .     A
C381   H415    1.082   .     S
C382   C384    1.410   .     A
C382   H416    1.082   .     S
C384   C11     1.512   1_556 S
C385   C387    1.400   .     S
C385   O425    1.281   .     A
C385   O423    1.269   .     A
C386   O424    1.269   .     A
C386   O426    1.281   .     A
C386   C388    1.399   .     S
C387   C512    1.358   1_455 S
C387   N553    1.443   1_455 S
C388   C449    1.358   .     S
C388   N494    1.444   .     S
C389   H401    1.083   .     S
C389   C399    1.399   .     A
C389   C391    1.380   .     A
C390   H402    1.083   .     S
C390   C400    1.399   .     A
C390   C392    1.380   .     A
C391   H403    1.084   .     S
C391   C393    1.399   .     A
C392   H404    1.083   .     S
C392   C394    1.399   .     A
C393   C395    1.399   .     A
C394   C396    1.399   .     A
C395   C397    1.380   .     A
C395   H405    1.084   .     S
C396   C398    1.380   .     A
C396   H406    1.083   .     S
C397   H407    1.083   .     S
C397   C399    1.399   .     A
C398   C400    1.399   .     A
C398   H408    1.083   .     S
C399   C586    1.444   1_545 S
C400   C585    1.444   .     S
N417   Zn428   2.003   .     S
N418   Zn427   2.003   .     S
O419   Zn427   2.001   .     S
O420   Zn428   2.001   .     S
O421   Zn428   2.001   .     S
O422   Zn427   2.001   .     S
O423   Zn427   1.990   .     S
O424   Zn428   1.990   .     S
O425   Zn428   1.995   .     S
O426   Zn427   1.995   .     S
N429   H430    1.046   .     S
N429   H431    1.044   .     S
N429   C449    1.443   .     S
N432   H434    1.045   .     S
N432   H433    1.046   .     S
N432   C512    1.444   1_455 S
C435   C455    1.437   .     S
C435   O481    1.285   .     A
C435   O483    1.285   .     A
C436   C456    1.438   .     S
C436   O484    1.285   .     A
C436   O482    1.285   .     A
C437   C445    1.411   .     A
C437   C439    1.406   .     A
C437   H471    1.082   .     S
C438   C446    1.410   .     A
C438   C440    1.406   .     A
C438   H472    1.082   .     S
C439   H473    1.082   .     S
C439   N479    1.362   .     A
C440   N480    1.363   .     A
C440   H474    1.081   .     S
C441   N479    1.362   .     A
C441   H475    1.082   .     S
C441   C443    1.406   .     A
C442   H476    1.081   .     S
C442   N480    1.363   .     A
C442   C444    1.406   .     A
C443   C445    1.411   .     A
C443   H477    1.082   .     S
C444   C446    1.410   .     A
C444   H478    1.082   .     S
C446   C73     1.512   1_556 S
C447   C449    1.400   .     S
C447   O487    1.281   .     A
C447   O485    1.269   .     A
C448   O486    1.269   .     A
C448   O488    1.281   .     A
C448   C450    1.399   .     S
C450   C511    1.358   .     S
C450   N556    1.444   .     S
C451   H463    1.083   .     S
C451   C461    1.399   .     A
C451   C453    1.380   .     A
C452   H464    1.083   .     S
C452   C462    1.399   .     A
C452   C454    1.380   .     A
C453   H465    1.084   .     S
C453   C455    1.399   .     A
C454   H466    1.083   .     S
C454   C456    1.399   .     A
C455   C457    1.399   .     A
C456   C458    1.399   .     A
C457   C459    1.380   .     A
C457   H467    1.084   .     S
C458   C460    1.380   .     A
C458   H468    1.083   .     S
C459   H469    1.083   .     S
C459   C461    1.399   .     A
C460   C462    1.399   .     A
C460   H470    1.083   .     S
C461   C648    1.444   1_545 S
C462   C647    1.444   .     S
N479   Zn490   2.003   .     S
N480   Zn489   2.003   .     S
O481   Zn489   2.001   .     S
O482   Zn490   2.001   .     S
O483   Zn490   2.001   .     S
O484   Zn489   2.001   .     S
O485   Zn489   1.990   .     S
O486   Zn490   1.990   .     S
O487   Zn490   1.995   .     S
O488   Zn489   1.995   .     S
N491   H492    1.046   .     S
N491   H493    1.044   .     S
N491   C511    1.443   .     S
N494   H496    1.045   .     S
N494   H495    1.046   .     S
C497   C517    1.437   .     S
C497   O543    1.285   .     A
C497   O545    1.285   .     A
C498   C518    1.438   .     S
C498   O546    1.285   .     A
C498   O544    1.285   .     A
C499   C507    1.411   .     A
C499   C501    1.406   .     A
C499   H533    1.082   .     S
C500   C508    1.410   .     A
C500   C502    1.406   .     A
C500   H534    1.082   .     S
C501   H535    1.082   .     S
C501   N541    1.362   .     A
C502   N542    1.363   .     A
C502   H536    1.081   .     S
C503   N541    1.362   .     A
C503   H537    1.082   .     S
C503   C505    1.406   .     A
C504   H538    1.081   .     S
C504   N542    1.363   .     A
C504   C506    1.406   .     A
C505   C507    1.411   .     A
C505   H539    1.082   .     S
C506   C508    1.410   .     A
C506   H540    1.082   .     S
C508   C135    1.512   1_556 S
C509   C511    1.400   .     S
C509   O549    1.281   .     A
C509   O547    1.269   .     A
C510   O548    1.269   .     A
C510   O550    1.281   .     A
C510   C512    1.399   .     S
C512   C387    1.358   1_655 S
C512   N432    1.444   1_655 S
C513   H525    1.083   .     S
C513   C523    1.399   .     A
C513   C515    1.380   .     A
C514   H526    1.083   .     S
C514   C524    1.399   .     A
C514   C516    1.380   .     A
C515   H527    1.084   .     S
C515   C517    1.399   .     A
C516   H528    1.083   .     S
C516   C518    1.399   .     A
C517   C519    1.399   .     A
C518   C520    1.399   .     A
C519   C521    1.380   .     A
C519   H529    1.084   .     S
C520   C522    1.380   .     A
C520   H530    1.083   .     S
C521   H531    1.083   .     S
C521   C523    1.399   .     A
C522   C524    1.399   .     A
C522   H532    1.083   .     S
C523   C710    1.444   1_545 S
C524   C709    1.444   .     S
N541   Zn552   2.003   .     S
N542   Zn551   2.003   .     S
O543   Zn551   2.001   .     S
O544   Zn552   2.001   .     S
O545   Zn552   2.001   .     S
O546   Zn551   2.001   .     S
O547   Zn551   1.990   .     S
O548   Zn552   1.990   .     S
O549   Zn552   1.995   .     S
O550   Zn551   1.995   .     S
N553   H554    1.046   .     S
N553   H555    1.044   .     S
N553   C387    1.443   1_655 S
N556   H558    1.045   .     S
N556   H557    1.046   .     S
C559   C579    1.437   .     S
C559   O605    1.285   .     A
C559   O607    1.285   .     A
C560   C580    1.438   .     S
C560   O608    1.285   .     A
C560   O606    1.285   .     A
C561   C569    1.411   .     A
C561   C563    1.406   .     A
C561   H595    1.082   .     S
C562   C570    1.410   .     A
C562   C564    1.406   .     A
C562   H596    1.082   .     S
C563   H597    1.082   .     S
C563   N603    1.362   .     A
C564   N604    1.363   .     A
C564   H598    1.081   .     S
C565   N603    1.362   .     A
C565   H599    1.082   .     S
C565   C567    1.406   .     A
C566   H600    1.081   .     S
C566   N604    1.363   .     A
C566   C568    1.406   .     A
C567   C569    1.411   .     A
C567   H601    1.082   .     S
C568   C570    1.410   .     A
C568   H602    1.082   .     S
C570   C197    1.512   1_556 S
C571   C573    1.400   .     S
C571   O611    1.281   .     A
C571   O609    1.269   .     A
C572   O610    1.269   .     A
C572   O612    1.281   .     A
C572   C574    1.399   .     S
C573   C698    1.358   1_455 S
C573   N739    1.443   1_455 S
C574   C635    1.358   .     S
C574   N680    1.444   .     S
C575   H587    1.083   .     S
C575   C585    1.399   .     A
C575   C577    1.380   .     A
C576   H588    1.083   .     S
C576   C586    1.399   .     A
C576   C578    1.380   .     A
C577   H589    1.084   .     S
C577   C579    1.399   .     A
C578   H590    1.083   .     S
C578   C580    1.399   .     A
C579   C581    1.399   .     A
C580   C582    1.399   .     A
C581   C583    1.380   .     A
C581   H591    1.084   .     S
C582   C584    1.380   .     A
C582   H592    1.083   .     S
C583   H593    1.083   .     S
C583   C585    1.399   .     A
C584   C586    1.399   .     A
C584   H594    1.083   .     S
C586   C399    1.444   1_565 S
N603   Zn614   2.003   .     S
N604   Zn613   2.003   .     S
O605   Zn613   2.001   .     S
O606   Zn614   2.001   .     S
O607   Zn614   2.001   .     S
O608   Zn613   2.001   .     S
O609   Zn613   1.990   .     S
O610   Zn614   1.990   .     S
O611   Zn614   1.995   .     S
O612   Zn613   1.995   .     S
N615   H616    1.046   .     S
N615   H617    1.044   .     S
N615   C635    1.443   .     S
N618   H620    1.045   .     S
N618   H619    1.046   .     S
N618   C698    1.444   1_455 S
C621   C641    1.437   .     S
C621   O667    1.285   .     A
C621   O669    1.285   .     A
C622   C642    1.438   .     S
C622   O670    1.285   .     A
C622   O668    1.285   .     A
C623   C631    1.411   .     A
C623   C625    1.406   .     A
C623   H657    1.082   .     S
C624   C632    1.410   .     A
C624   C626    1.406   .     A
C624   H658    1.082   .     S
C625   H659    1.082   .     S
C625   N665    1.362   .     A
C626   N666    1.363   .     A
C626   H660    1.081   .     S
C627   N665    1.362   .     A
C627   H661    1.082   .     S
C627   C629    1.406   .     A
C628   H662    1.081   .     S
C628   N666    1.363   .     A
C628   C630    1.406   .     A
C629   C631    1.411   .     A
C629   H663    1.082   .     S
C630   C632    1.410   .     A
C630   H664    1.082   .     S
C632   C259    1.512   1_556 S
C633   C635    1.400   .     S
C633   O673    1.281   .     A
C633   O671    1.269   .     A
C634   O672    1.269   .     A
C634   O674    1.281   .     A
C634   C636    1.399   .     S
C636   C697    1.358   .     S
C636   N742    1.444   .     S
C637   H649    1.083   .     S
C637   C647    1.399   .     A
C637   C639    1.380   .     A
C638   H650    1.083   .     S
C638   C648    1.399   .     A
C638   C640    1.380   .     A
C639   H651    1.084   .     S
C639   C641    1.399   .     A
C640   H652    1.083   .     S
C640   C642    1.399   .     A
C641   C643    1.399   .     A
C642   C644    1.399   .     A
C643   C645    1.380   .     A
C643   H653    1.084   .     S
C644   C646    1.380   .     A
C644   H654    1.083   .     S
C645   H655    1.083   .     S
C645   C647    1.399   .     A
C646   C648    1.399   .     A
C646   H656    1.083   .     S
C648   C461    1.444   1_565 S
N665   Zn676   2.003   .     S
N666   Zn675   2.003   .     S
O667   Zn675   2.001   .     S
O668   Zn676   2.001   .     S
O669   Zn676   2.001   .     S
O670   Zn675   2.001   .     S
O671   Zn675   1.990   .     S
O672   Zn676   1.990   .     S
O673   Zn676   1.995   .     S
O674   Zn675   1.995   .     S
N677   H678    1.046   .     S
N677   H679    1.044   .     S
N677   C697    1.443   .     S
N680   H682    1.045   .     S
N680   H681    1.046   .     S
C683   C703    1.437   .     S
C683   O729    1.285   .     A
C683   O731    1.285   .     A
C684   C704    1.438   .     S
C684   O732    1.285   .     A
C684   O730    1.285   .     A
C685   C693    1.411   .     A
C685   C687    1.406   .     A
C685   H719    1.082   .     S
C686   C694    1.410   .     A
C686   C688    1.406   .     A
C686   H720    1.082   .     S
C687   H721    1.082   .     S
C687   N727    1.362   .     A
C688   N728    1.363   .     A
C688   H722    1.081   .     S
C689   N727    1.362   .     A
C689   H723    1.082   .     S
C689   C691    1.406   .     A
C690   H724    1.081   .     S
C690   N728    1.363   .     A
C690   C692    1.406   .     A
C691   C693    1.411   .     A
C691   H725    1.082   .     S
C692   C694    1.410   .     A
C692   H726    1.082   .     S
C694   C321    1.512   1_556 S
C695   C697    1.400   .     S
C695   O735    1.281   .     A
C695   O733    1.269   .     A
C696   O734    1.269   .     A
C696   O736    1.281   .     A
C696   C698    1.399   .     S
C698   C573    1.358   1_655 S
C698   N618    1.444   1_655 S
C699   H711    1.083   .     S
C699   C709    1.399   .     A
C699   C701    1.380   .     A
C700   H712    1.083   .     S
C700   C710    1.399   .     A
C700   C702    1.380   .     A
C701   H713    1.084   .     S
C701   C703    1.399   .     A
C702   H714    1.083   .     S
C702   C704    1.399   .     A
C703   C705    1.399   .     A
C704   C706    1.399   .     A
C705   C707    1.380   .     A
C705   H715    1.084   .     S
C706   C708    1.380   .     A
C706   H716    1.083   .     S
C707   H717    1.083   .     S
C707   C709    1.399   .     A
C708   C710    1.399   .     A
C708   H718    1.083   .     S
C710   C523    1.444   1_565 S
N727   Zn738   2.003   .     S
N728   Zn737   2.003   .     S
O729   Zn737   2.001   .     S
O730   Zn738   2.001   .     S
O731   Zn738   2.001   .     S
O732   Zn737   2.001   .     S
O733   Zn737   1.990   .     S
O734   Zn738   1.990   .     S
O735   Zn738   1.995   .     S
O736   Zn737   1.995   .     S
N739   H740    1.046   .     S
N739   H741    1.044   .     S
N739   C573    1.443   1_655 S
N742   H744    1.045   .     S
N742   H743    1.046   .     S
