data_str_m2_o1_o17_pcu_sym.132
_audit_creation_date              2020-01-03
_audit_creation_method            'Materials Studio'
_symmetry_space_group_name_H-M    'P1'
_symmetry_Int_Tables_number       1
_symmetry_cell_setting            triclinic
loop_
_symmetry_equiv_pos_as_xyz
  x,y,z
_cell_length_a                    32.3553
_cell_length_b                    28.6078
_cell_length_c                    30.2182
_cell_angle_alpha                 90.2132
_cell_angle_beta                  90.4682
_cell_angle_gamma                 89.9841
loop_
_atom_site_label
_atom_site_type_symbol
_atom_site_fract_x
_atom_site_fract_y
_atom_site_fract_z
_atom_site_U_iso_or_equiv
_atom_site_adp_type
_atom_site_occupancy
C1     C     0.08755   0.16667   0.24998   0.00000  Uiso   1.00
C2     C     0.24579   0.16667   0.25002   0.00000  Uiso   1.00
C3     C     0.12584   0.09508   0.02284   0.00000  Uiso   1.00
C4     C     0.20749   0.23825   0.47716   0.00000  Uiso   1.00
C5     C     0.02175   0.14755   0.28646   0.00000  Uiso   1.00
C6     C     0.31158   0.18579   0.21355   0.00000  Uiso   1.00
C7     C     0.31215   0.14756   0.28647   0.00000  Uiso   1.00
C8     C     0.02118   0.18577   0.21353   0.00000  Uiso   1.00
C9     C     0.29036   0.16667   0.25001   0.00000  Uiso   1.00
C10    C     0.04297   0.16667   0.24999   0.00000  Uiso   1.00
C11    C     0.14017   0.02466   0.22321   0.00000  Uiso   1.00
C12    C     0.19316   0.30867   0.27679   0.00000  Uiso   1.00
C13    C     0.19311   0.02488   0.27685   0.00000  Uiso   1.00
C14    C     0.14022   0.30846   0.22315   0.00000  Uiso   1.00
C15    C     0.16674   0.16660   0.16437   0.00000  Uiso   1.00
C16    C     0.16659   0.16673   0.33563   0.00000  Uiso   1.00
C17    C     0.18545   0.20327   0.40731   0.00000  Uiso   1.00
C18    C     0.14789   0.13006   0.09269   0.00000  Uiso   1.00
C19    C     0.16607   0.16692   0.38400   0.00000  Uiso   1.00
C20    C     0.16727   0.16641   0.11600   0.00000  Uiso   1.00
C21    C     0.14633   0.13069   0.40668   0.00000  Uiso   1.00
C22    C     0.18700   0.20264   0.09332   0.00000  Uiso   1.00
C23    C     0.14472   0.13115   0.45314   0.00000  Uiso   1.00
C24    C     0.18861   0.20219   0.04686   0.00000  Uiso   1.00
C25    C     0.16605   0.16691   0.47668   0.00000  Uiso   1.00
C26    C     0.16728   0.16642   0.02332   0.00000  Uiso   1.00
C27    C     0.18619   0.20322   0.45360   0.00000  Uiso   1.00
C28    C     0.14714   0.13011   0.04640   0.00000  Uiso   1.00
C29    C     0.12333   0.09618   0.47688   0.00000  Uiso   1.00
C30    C     0.21001   0.23715   0.02312   0.00000  Uiso   1.00
Cu31   Cu    0.16667   0.21355   0.25000   0.00000  Uiso   1.00
Cu32   Cu    0.16667   0.11978   0.25000   0.00000  Uiso   1.00
N33    N     0.16667   0.28402   0.25000   0.00000  Uiso   1.00
N34    N     0.16667   0.04931   0.25000   0.00000  Uiso   1.00
O35    O     0.10655   0.20625   0.25000   0.00000  Uiso   1.00
O36    O     0.22679   0.12709   0.25001   0.00000  Uiso   1.00
O37    O     0.22679   0.20625   0.25001   0.00000  Uiso   1.00
O38    O     0.10655   0.12709   0.25000   0.00000  Uiso   1.00
O39    O     0.16666   0.20627   0.18513   0.00000  Uiso   1.00
O40    O     0.16668   0.12707   0.31487   0.00000  Uiso   1.00
O41    O     0.16668   0.20627   0.31487   0.00000  Uiso   1.00
O42    O     0.16666   0.12707   0.18513   0.00000  Uiso   1.00
F43    F     0.20527   0.23743   0.38464   0.00000  Uiso   1.00
F44    F     0.12806   0.09590   0.11536   0.00000  Uiso   1.00
F45    F     0.12955   0.09477   0.38309   0.00000  Uiso   1.00
F46    F     0.20378   0.23857   0.11691   0.00000  Uiso   1.00
O47    O     0.09896   0.06290   0.45649   0.00000  Uiso   1.00
H48    H     0.08032   0.07963   0.43572   0.00000  Uiso   1.00
O49    O     0.23437   0.27044   0.04351   0.00000  Uiso   1.00
H50    H     0.25301   0.25371   0.06428   0.00000  Uiso   1.00
F51    F     0.10572   0.06025   0.04425   0.00000  Uiso   1.00
F52    F     0.22761   0.27309   0.45575   0.00000  Uiso   1.00
O53    O     0.04153   0.12959   0.32350   0.00000  Uiso   1.00
H54    H     0.07083   0.13933   0.32431   0.00000  Uiso   1.00
O55    O     0.29180   0.20375   0.17650   0.00000  Uiso   1.00
H56    H     0.26251   0.19401   0.17569   0.00000  Uiso   1.00
O57    O     0.29294   0.12965   0.32354   0.00000  Uiso   1.00
H58    H     0.26366   0.13943   0.32438   0.00000  Uiso   1.00
O59    O     0.04039   0.20369   0.17647   0.00000  Uiso   1.00
H60    H     0.06967   0.19390   0.17562   0.00000  Uiso   1.00
F61    F     0.11338   0.04773   0.19642   0.00000  Uiso   1.00
F62    F     0.21996   0.28560   0.30358   0.00000  Uiso   1.00
F63    F     0.21964   0.04817   0.30396   0.00000  Uiso   1.00
F64    F     0.11369   0.28517   0.19604   0.00000  Uiso   1.00
C65    C     0.42088   0.16667   0.24998   0.00000  Uiso   1.00
C66    C     0.57912   0.16667   0.25002   0.00000  Uiso   1.00
C67    C     0.45918   0.09508   0.02284   0.00000  Uiso   1.00
C68    C     0.54082   0.23825   0.47716   0.00000  Uiso   1.00
C69    C     0.35508   0.14755   0.28646   0.00000  Uiso   1.00
C70    C     0.64492   0.18579   0.21355   0.00000  Uiso   1.00
C71    C     0.64548   0.14756   0.28647   0.00000  Uiso   1.00
C72    C     0.35452   0.18577   0.21353   0.00000  Uiso   1.00
C73    C     0.62369   0.16667   0.25001   0.00000  Uiso   1.00
C74    C     0.37631   0.16667   0.24999   0.00000  Uiso   1.00
C75    C     0.47351   0.02466   0.22321   0.00000  Uiso   1.00
C76    C     0.52649   0.30867   0.27679   0.00000  Uiso   1.00
C77    C     0.52645   0.02488   0.27685   0.00000  Uiso   1.00
C78    C     0.47355   0.30846   0.22315   0.00000  Uiso   1.00
C79    C     0.50007   0.16660   0.16437   0.00000  Uiso   1.00
C80    C     0.49993   0.16673   0.33563   0.00000  Uiso   1.00
C81    C     0.51878   0.20327   0.40731   0.00000  Uiso   1.00
C82    C     0.48122   0.13006   0.09269   0.00000  Uiso   1.00
C83    C     0.49940   0.16692   0.38400   0.00000  Uiso   1.00
C84    C     0.50060   0.16641   0.11600   0.00000  Uiso   1.00
C85    C     0.47967   0.13069   0.40668   0.00000  Uiso   1.00
C86    C     0.52033   0.20264   0.09332   0.00000  Uiso   1.00
C87    C     0.47806   0.13115   0.45314   0.00000  Uiso   1.00
C88    C     0.52194   0.20219   0.04686   0.00000  Uiso   1.00
C89    C     0.49939   0.16691   0.47668   0.00000  Uiso   1.00
C90    C     0.50061   0.16642   0.02332   0.00000  Uiso   1.00
C91    C     0.51953   0.20322   0.45360   0.00000  Uiso   1.00
C92    C     0.48048   0.13011   0.04640   0.00000  Uiso   1.00
C93    C     0.45666   0.09618   0.47688   0.00000  Uiso   1.00
C94    C     0.54334   0.23715   0.02312   0.00000  Uiso   1.00
Cu95   Cu    0.50000   0.21355   0.25000   0.00000  Uiso   1.00
Cu96   Cu    0.50000   0.11978   0.25000   0.00000  Uiso   1.00
N97    N     0.50000   0.28402   0.25000   0.00000  Uiso   1.00
N98    N     0.50000   0.04931   0.25000   0.00000  Uiso   1.00
O99    O     0.43988   0.20625   0.25000   0.00000  Uiso   1.00
O100   O     0.56012   0.12709   0.25001   0.00000  Uiso   1.00
O101   O     0.56012   0.20625   0.25001   0.00000  Uiso   1.00
O102   O     0.43988   0.12709   0.25000   0.00000  Uiso   1.00
O103   O     0.49999   0.20627   0.18513   0.00000  Uiso   1.00
O104   O     0.50001   0.12707   0.31487   0.00000  Uiso   1.00
O105   O     0.50001   0.20627   0.31487   0.00000  Uiso   1.00
O106   O     0.49999   0.12707   0.18513   0.00000  Uiso   1.00
F107   F     0.53861   0.23743   0.38464   0.00000  Uiso   1.00
F108   F     0.46140   0.09590   0.11536   0.00000  Uiso   1.00
F109   F     0.46289   0.09477   0.38309   0.00000  Uiso   1.00
F110   F     0.53711   0.23857   0.11691   0.00000  Uiso   1.00
O111   O     0.43229   0.06290   0.45649   0.00000  Uiso   1.00
H112   H     0.41365   0.07963   0.43572   0.00000  Uiso   1.00
O113   O     0.56770   0.27044   0.04351   0.00000  Uiso   1.00
H114   H     0.58635   0.25371   0.06428   0.00000  Uiso   1.00
F115   F     0.43906   0.06025   0.04425   0.00000  Uiso   1.00
F116   F     0.56094   0.27309   0.45575   0.00000  Uiso   1.00
O117   O     0.37486   0.12959   0.32350   0.00000  Uiso   1.00
H118   H     0.40416   0.13933   0.32431   0.00000  Uiso   1.00
O119   O     0.62514   0.20375   0.17650   0.00000  Uiso   1.00
H120   H     0.59584   0.19401   0.17569   0.00000  Uiso   1.00
O121   O     0.62628   0.12965   0.32354   0.00000  Uiso   1.00
H122   H     0.59700   0.13943   0.32438   0.00000  Uiso   1.00
O123   O     0.37372   0.20369   0.17647   0.00000  Uiso   1.00
H124   H     0.40300   0.19390   0.17562   0.00000  Uiso   1.00
F125   F     0.44671   0.04773   0.19642   0.00000  Uiso   1.00
F126   F     0.55329   0.28560   0.30358   0.00000  Uiso   1.00
F127   F     0.55297   0.04817   0.30396   0.00000  Uiso   1.00
F128   F     0.44703   0.28517   0.19604   0.00000  Uiso   1.00
C129   C     0.75421   0.16667   0.24998   0.00000  Uiso   1.00
C130   C     0.91245   0.16667   0.25002   0.00000  Uiso   1.00
C131   C     0.79251   0.09508   0.02284   0.00000  Uiso   1.00
C132   C     0.87416   0.23825   0.47716   0.00000  Uiso   1.00
C133   C     0.68842   0.14755   0.28646   0.00000  Uiso   1.00
C134   C     0.97825   0.18579   0.21355   0.00000  Uiso   1.00
C135   C     0.97882   0.14756   0.28647   0.00000  Uiso   1.00
C136   C     0.68785   0.18577   0.21353   0.00000  Uiso   1.00
C137   C     0.95703   0.16667   0.25001   0.00000  Uiso   1.00
C138   C     0.70964   0.16667   0.24999   0.00000  Uiso   1.00
C139   C     0.80684   0.02466   0.22321   0.00000  Uiso   1.00
C140   C     0.85983   0.30867   0.27679   0.00000  Uiso   1.00
C141   C     0.85978   0.02488   0.27685   0.00000  Uiso   1.00
C142   C     0.80689   0.30846   0.22315   0.00000  Uiso   1.00
C143   C     0.83341   0.16660   0.16437   0.00000  Uiso   1.00
C144   C     0.83326   0.16673   0.33563   0.00000  Uiso   1.00
C145   C     0.85211   0.20327   0.40731   0.00000  Uiso   1.00
C146   C     0.81456   0.13006   0.09269   0.00000  Uiso   1.00
C147   C     0.83273   0.16692   0.38400   0.00000  Uiso   1.00
C148   C     0.83393   0.16641   0.11600   0.00000  Uiso   1.00
C149   C     0.81300   0.13069   0.40668   0.00000  Uiso   1.00
C150   C     0.85367   0.20264   0.09332   0.00000  Uiso   1.00
C151   C     0.81139   0.13115   0.45314   0.00000  Uiso   1.00
C152   C     0.85528   0.20219   0.04686   0.00000  Uiso   1.00
C153   C     0.83272   0.16691   0.47668   0.00000  Uiso   1.00
C154   C     0.83395   0.16642   0.02332   0.00000  Uiso   1.00
C155   C     0.85286   0.20322   0.45360   0.00000  Uiso   1.00
C156   C     0.81381   0.13011   0.04640   0.00000  Uiso   1.00
C157   C     0.78999   0.09618   0.47688   0.00000  Uiso   1.00
C158   C     0.87667   0.23715   0.02312   0.00000  Uiso   1.00
Cu159  Cu    0.83333   0.21355   0.25000   0.00000  Uiso   1.00
Cu160  Cu    0.83333   0.11978   0.25000   0.00000  Uiso   1.00
N161   N     0.83333   0.28402   0.25000   0.00000  Uiso   1.00
N162   N     0.83333   0.04931   0.25000   0.00000  Uiso   1.00
O163   O     0.77321   0.20625   0.25000   0.00000  Uiso   1.00
O164   O     0.89345   0.12709   0.25001   0.00000  Uiso   1.00
O165   O     0.89345   0.20625   0.25001   0.00000  Uiso   1.00
O166   O     0.77321   0.12709   0.25000   0.00000  Uiso   1.00
O167   O     0.83332   0.20627   0.18513   0.00000  Uiso   1.00
O168   O     0.83334   0.12707   0.31487   0.00000  Uiso   1.00
O169   O     0.83334   0.20627   0.31487   0.00000  Uiso   1.00
O170   O     0.83332   0.12707   0.18513   0.00000  Uiso   1.00
F171   F     0.87194   0.23743   0.38464   0.00000  Uiso   1.00
F172   F     0.79473   0.09590   0.11536   0.00000  Uiso   1.00
F173   F     0.79622   0.09477   0.38309   0.00000  Uiso   1.00
F174   F     0.87044   0.23857   0.11691   0.00000  Uiso   1.00
O175   O     0.76563   0.06290   0.45649   0.00000  Uiso   1.00
H176   H     0.74699   0.07963   0.43572   0.00000  Uiso   1.00
O177   O     0.90104   0.27044   0.04351   0.00000  Uiso   1.00
H178   H     0.91968   0.25371   0.06428   0.00000  Uiso   1.00
F179   F     0.77239   0.06025   0.04425   0.00000  Uiso   1.00
F180   F     0.89428   0.27309   0.45575   0.00000  Uiso   1.00
O181   O     0.70820   0.12959   0.32350   0.00000  Uiso   1.00
H182   H     0.73749   0.13933   0.32431   0.00000  Uiso   1.00
O183   O     0.95847   0.20375   0.17650   0.00000  Uiso   1.00
H184   H     0.92917   0.19401   0.17569   0.00000  Uiso   1.00
O185   O     0.95961   0.12965   0.32354   0.00000  Uiso   1.00
H186   H     0.93033   0.13943   0.32438   0.00000  Uiso   1.00
O187   O     0.70706   0.20369   0.17647   0.00000  Uiso   1.00
H188   H     0.73633   0.19390   0.17562   0.00000  Uiso   1.00
F189   F     0.78004   0.04773   0.19642   0.00000  Uiso   1.00
F190   F     0.88662   0.28560   0.30358   0.00000  Uiso   1.00
F191   F     0.88631   0.04817   0.30396   0.00000  Uiso   1.00
F192   F     0.78036   0.28517   0.19604   0.00000  Uiso   1.00
C193   C     0.08755   0.50000   0.24998   0.00000  Uiso   1.00
C194   C     0.24579   0.50000   0.25002   0.00000  Uiso   1.00
C195   C     0.12584   0.42841   0.02284   0.00000  Uiso   1.00
C196   C     0.20749   0.57159   0.47716   0.00000  Uiso   1.00
C197   C     0.02175   0.48088   0.28646   0.00000  Uiso   1.00
C198   C     0.31158   0.51912   0.21355   0.00000  Uiso   1.00
C199   C     0.31215   0.48089   0.28647   0.00000  Uiso   1.00
C200   C     0.02118   0.51911   0.21353   0.00000  Uiso   1.00
C201   C     0.29036   0.50000   0.25001   0.00000  Uiso   1.00
C202   C     0.04297   0.50000   0.24999   0.00000  Uiso   1.00
C203   C     0.14017   0.35800   0.22321   0.00000  Uiso   1.00
C204   C     0.19316   0.64200   0.27679   0.00000  Uiso   1.00
C205   C     0.19311   0.35821   0.27685   0.00000  Uiso   1.00
C206   C     0.14022   0.64179   0.22315   0.00000  Uiso   1.00
C207   C     0.16674   0.49993   0.16437   0.00000  Uiso   1.00
C208   C     0.16659   0.50007   0.33563   0.00000  Uiso   1.00
C209   C     0.18545   0.53660   0.40731   0.00000  Uiso   1.00
C210   C     0.14789   0.46340   0.09269   0.00000  Uiso   1.00
C211   C     0.16607   0.50026   0.38400   0.00000  Uiso   1.00
C212   C     0.16727   0.49974   0.11600   0.00000  Uiso   1.00
C213   C     0.14633   0.46402   0.40668   0.00000  Uiso   1.00
C214   C     0.18700   0.53598   0.09332   0.00000  Uiso   1.00
C215   C     0.14472   0.46448   0.45314   0.00000  Uiso   1.00
C216   C     0.18861   0.53552   0.04686   0.00000  Uiso   1.00
C217   C     0.16605   0.50025   0.47668   0.00000  Uiso   1.00
C218   C     0.16728   0.49975   0.02332   0.00000  Uiso   1.00
C219   C     0.18619   0.53655   0.45360   0.00000  Uiso   1.00
C220   C     0.14714   0.46345   0.04640   0.00000  Uiso   1.00
C221   C     0.12333   0.42951   0.47688   0.00000  Uiso   1.00
C222   C     0.21001   0.57049   0.02312   0.00000  Uiso   1.00
Cu223  Cu    0.16667   0.54689   0.25000   0.00000  Uiso   1.00
Cu224  Cu    0.16667   0.45311   0.25000   0.00000  Uiso   1.00
N225   N     0.16667   0.61736   0.25000   0.00000  Uiso   1.00
N226   N     0.16667   0.38264   0.25000   0.00000  Uiso   1.00
O227   O     0.10655   0.53958   0.25000   0.00000  Uiso   1.00
O228   O     0.22679   0.46042   0.25001   0.00000  Uiso   1.00
O229   O     0.22679   0.53958   0.25001   0.00000  Uiso   1.00
O230   O     0.10655   0.46042   0.25000   0.00000  Uiso   1.00
O231   O     0.16666   0.53960   0.18513   0.00000  Uiso   1.00
O232   O     0.16668   0.46040   0.31487   0.00000  Uiso   1.00
O233   O     0.16668   0.53960   0.31487   0.00000  Uiso   1.00
O234   O     0.16666   0.46040   0.18513   0.00000  Uiso   1.00
F235   F     0.20527   0.57076   0.38464   0.00000  Uiso   1.00
F236   F     0.12806   0.42923   0.11536   0.00000  Uiso   1.00
F237   F     0.12955   0.42810   0.38309   0.00000  Uiso   1.00
F238   F     0.20378   0.57190   0.11691   0.00000  Uiso   1.00
O239   O     0.09896   0.39623   0.45649   0.00000  Uiso   1.00
H240   H     0.08032   0.41296   0.43572   0.00000  Uiso   1.00
O241   O     0.23437   0.60377   0.04351   0.00000  Uiso   1.00
H242   H     0.25301   0.58704   0.06428   0.00000  Uiso   1.00
F243   F     0.10572   0.39358   0.04425   0.00000  Uiso   1.00
F244   F     0.22761   0.60642   0.45575   0.00000  Uiso   1.00
O245   O     0.04153   0.46292   0.32350   0.00000  Uiso   1.00
H246   H     0.07083   0.47266   0.32431   0.00000  Uiso   1.00
O247   O     0.29180   0.53708   0.17650   0.00000  Uiso   1.00
H248   H     0.26251   0.52734   0.17569   0.00000  Uiso   1.00
O249   O     0.29294   0.46298   0.32354   0.00000  Uiso   1.00
H250   H     0.26366   0.47277   0.32438   0.00000  Uiso   1.00
O251   O     0.04039   0.53702   0.17647   0.00000  Uiso   1.00
H252   H     0.06967   0.52723   0.17562   0.00000  Uiso   1.00
F253   F     0.11338   0.38106   0.19642   0.00000  Uiso   1.00
F254   F     0.21996   0.61894   0.30358   0.00000  Uiso   1.00
F255   F     0.21964   0.38150   0.30396   0.00000  Uiso   1.00
F256   F     0.11369   0.61850   0.19604   0.00000  Uiso   1.00
C257   C     0.42088   0.50000   0.24998   0.00000  Uiso   1.00
C258   C     0.57912   0.50000   0.25002   0.00000  Uiso   1.00
C259   C     0.45918   0.42841   0.02284   0.00000  Uiso   1.00
C260   C     0.54082   0.57159   0.47716   0.00000  Uiso   1.00
C261   C     0.35508   0.48088   0.28646   0.00000  Uiso   1.00
C262   C     0.64492   0.51912   0.21355   0.00000  Uiso   1.00
C263   C     0.64548   0.48089   0.28647   0.00000  Uiso   1.00
C264   C     0.35452   0.51911   0.21353   0.00000  Uiso   1.00
C265   C     0.62369   0.50000   0.25001   0.00000  Uiso   1.00
C266   C     0.37631   0.50000   0.24999   0.00000  Uiso   1.00
C267   C     0.47351   0.35800   0.22321   0.00000  Uiso   1.00
C268   C     0.52649   0.64200   0.27679   0.00000  Uiso   1.00
C269   C     0.52645   0.35821   0.27685   0.00000  Uiso   1.00
C270   C     0.47355   0.64179   0.22315   0.00000  Uiso   1.00
C271   C     0.50007   0.49993   0.16437   0.00000  Uiso   1.00
C272   C     0.49993   0.50007   0.33563   0.00000  Uiso   1.00
C273   C     0.51878   0.53660   0.40731   0.00000  Uiso   1.00
C274   C     0.48122   0.46340   0.09269   0.00000  Uiso   1.00
C275   C     0.49940   0.50026   0.38400   0.00000  Uiso   1.00
C276   C     0.50060   0.49974   0.11600   0.00000  Uiso   1.00
C277   C     0.47967   0.46402   0.40668   0.00000  Uiso   1.00
C278   C     0.52033   0.53598   0.09332   0.00000  Uiso   1.00
C279   C     0.47806   0.46448   0.45314   0.00000  Uiso   1.00
C280   C     0.52194   0.53552   0.04686   0.00000  Uiso   1.00
C281   C     0.49939   0.50025   0.47668   0.00000  Uiso   1.00
C282   C     0.50061   0.49975   0.02332   0.00000  Uiso   1.00
C283   C     0.51953   0.53655   0.45360   0.00000  Uiso   1.00
C284   C     0.48048   0.46345   0.04640   0.00000  Uiso   1.00
C285   C     0.45666   0.42951   0.47688   0.00000  Uiso   1.00
C286   C     0.54334   0.57049   0.02312   0.00000  Uiso   1.00
Cu287  Cu    0.50000   0.54689   0.25000   0.00000  Uiso   1.00
Cu288  Cu    0.50000   0.45311   0.25000   0.00000  Uiso   1.00
N289   N     0.50000   0.61736   0.25000   0.00000  Uiso   1.00
N290   N     0.50000   0.38264   0.25000   0.00000  Uiso   1.00
O291   O     0.43988   0.53958   0.25000   0.00000  Uiso   1.00
O292   O     0.56012   0.46042   0.25001   0.00000  Uiso   1.00
O293   O     0.56012   0.53958   0.25001   0.00000  Uiso   1.00
O294   O     0.43988   0.46042   0.25000   0.00000  Uiso   1.00
O295   O     0.49999   0.53960   0.18513   0.00000  Uiso   1.00
O296   O     0.50001   0.46040   0.31487   0.00000  Uiso   1.00
O297   O     0.50001   0.53960   0.31487   0.00000  Uiso   1.00
O298   O     0.49999   0.46040   0.18513   0.00000  Uiso   1.00
F299   F     0.53861   0.57076   0.38464   0.00000  Uiso   1.00
F300   F     0.46140   0.42923   0.11536   0.00000  Uiso   1.00
F301   F     0.46289   0.42810   0.38309   0.00000  Uiso   1.00
F302   F     0.53711   0.57190   0.11691   0.00000  Uiso   1.00
O303   O     0.43229   0.39623   0.45649   0.00000  Uiso   1.00
H304   H     0.41365   0.41296   0.43572   0.00000  Uiso   1.00
O305   O     0.56770   0.60377   0.04351   0.00000  Uiso   1.00
H306   H     0.58635   0.58704   0.06428   0.00000  Uiso   1.00
F307   F     0.43906   0.39358   0.04425   0.00000  Uiso   1.00
F308   F     0.56094   0.60642   0.45575   0.00000  Uiso   1.00
O309   O     0.37486   0.46292   0.32350   0.00000  Uiso   1.00
H310   H     0.40416   0.47266   0.32431   0.00000  Uiso   1.00
O311   O     0.62514   0.53708   0.17650   0.00000  Uiso   1.00
H312   H     0.59584   0.52734   0.17569   0.00000  Uiso   1.00
O313   O     0.62628   0.46298   0.32354   0.00000  Uiso   1.00
H314   H     0.59700   0.47277   0.32438   0.00000  Uiso   1.00
O315   O     0.37372   0.53702   0.17647   0.00000  Uiso   1.00
H316   H     0.40300   0.52723   0.17562   0.00000  Uiso   1.00
F317   F     0.44671   0.38106   0.19642   0.00000  Uiso   1.00
F318   F     0.55329   0.61894   0.30358   0.00000  Uiso   1.00
F319   F     0.55297   0.38150   0.30396   0.00000  Uiso   1.00
F320   F     0.44703   0.61850   0.19604   0.00000  Uiso   1.00
C321   C     0.75421   0.50000   0.24998   0.00000  Uiso   1.00
C322   C     0.91245   0.50000   0.25002   0.00000  Uiso   1.00
C323   C     0.79251   0.42841   0.02284   0.00000  Uiso   1.00
C324   C     0.87416   0.57159   0.47716   0.00000  Uiso   1.00
C325   C     0.68842   0.48088   0.28646   0.00000  Uiso   1.00
C326   C     0.97825   0.51912   0.21355   0.00000  Uiso   1.00
C327   C     0.97882   0.48089   0.28647   0.00000  Uiso   1.00
C328   C     0.68785   0.51911   0.21353   0.00000  Uiso   1.00
C329   C     0.95703   0.50000   0.25001   0.00000  Uiso   1.00
C330   C     0.70964   0.50000   0.24999   0.00000  Uiso   1.00
C331   C     0.80684   0.35800   0.22321   0.00000  Uiso   1.00
C332   C     0.85983   0.64200   0.27679   0.00000  Uiso   1.00
C333   C     0.85978   0.35821   0.27685   0.00000  Uiso   1.00
C334   C     0.80689   0.64179   0.22315   0.00000  Uiso   1.00
C335   C     0.83341   0.49993   0.16437   0.00000  Uiso   1.00
C336   C     0.83326   0.50007   0.33563   0.00000  Uiso   1.00
C337   C     0.85211   0.53660   0.40731   0.00000  Uiso   1.00
C338   C     0.81456   0.46340   0.09269   0.00000  Uiso   1.00
C339   C     0.83273   0.50026   0.38400   0.00000  Uiso   1.00
C340   C     0.83393   0.49974   0.11600   0.00000  Uiso   1.00
C341   C     0.81300   0.46402   0.40668   0.00000  Uiso   1.00
C342   C     0.85367   0.53598   0.09332   0.00000  Uiso   1.00
C343   C     0.81139   0.46448   0.45314   0.00000  Uiso   1.00
C344   C     0.85528   0.53552   0.04686   0.00000  Uiso   1.00
C345   C     0.83272   0.50025   0.47668   0.00000  Uiso   1.00
C346   C     0.83395   0.49975   0.02332   0.00000  Uiso   1.00
C347   C     0.85286   0.53655   0.45360   0.00000  Uiso   1.00
C348   C     0.81381   0.46345   0.04640   0.00000  Uiso   1.00
C349   C     0.78999   0.42951   0.47688   0.00000  Uiso   1.00
C350   C     0.87667   0.57049   0.02312   0.00000  Uiso   1.00
Cu351  Cu    0.83333   0.54689   0.25000   0.00000  Uiso   1.00
Cu352  Cu    0.83333   0.45311   0.25000   0.00000  Uiso   1.00
N353   N     0.83333   0.61736   0.25000   0.00000  Uiso   1.00
N354   N     0.83333   0.38264   0.25000   0.00000  Uiso   1.00
O355   O     0.77321   0.53958   0.25000   0.00000  Uiso   1.00
O356   O     0.89345   0.46042   0.25001   0.00000  Uiso   1.00
O357   O     0.89345   0.53958   0.25001   0.00000  Uiso   1.00
O358   O     0.77321   0.46042   0.25000   0.00000  Uiso   1.00
O359   O     0.83332   0.53960   0.18513   0.00000  Uiso   1.00
O360   O     0.83334   0.46040   0.31487   0.00000  Uiso   1.00
O361   O     0.83334   0.53960   0.31487   0.00000  Uiso   1.00
O362   O     0.83332   0.46040   0.18513   0.00000  Uiso   1.00
F363   F     0.87194   0.57076   0.38464   0.00000  Uiso   1.00
F364   F     0.79473   0.42923   0.11536   0.00000  Uiso   1.00
F365   F     0.79622   0.42810   0.38309   0.00000  Uiso   1.00
F366   F     0.87044   0.57190   0.11691   0.00000  Uiso   1.00
O367   O     0.76563   0.39623   0.45649   0.00000  Uiso   1.00
H368   H     0.74699   0.41296   0.43572   0.00000  Uiso   1.00
O369   O     0.90104   0.60377   0.04351   0.00000  Uiso   1.00
H370   H     0.91968   0.58704   0.06428   0.00000  Uiso   1.00
F371   F     0.77239   0.39358   0.04425   0.00000  Uiso   1.00
F372   F     0.89428   0.60642   0.45575   0.00000  Uiso   1.00
O373   O     0.70820   0.46292   0.32350   0.00000  Uiso   1.00
H374   H     0.73749   0.47266   0.32431   0.00000  Uiso   1.00
O375   O     0.95847   0.53708   0.17650   0.00000  Uiso   1.00
H376   H     0.92917   0.52734   0.17569   0.00000  Uiso   1.00
O377   O     0.95961   0.46298   0.32354   0.00000  Uiso   1.00
H378   H     0.93033   0.47277   0.32438   0.00000  Uiso   1.00
O379   O     0.70706   0.53702   0.17647   0.00000  Uiso   1.00
H380   H     0.73633   0.52723   0.17562   0.00000  Uiso   1.00
F381   F     0.78004   0.38106   0.19642   0.00000  Uiso   1.00
F382   F     0.88662   0.61894   0.30358   0.00000  Uiso   1.00
F383   F     0.88631   0.38150   0.30396   0.00000  Uiso   1.00
F384   F     0.78036   0.61850   0.19604   0.00000  Uiso   1.00
C385   C     0.08755   0.83334   0.24998   0.00000  Uiso   1.00
C386   C     0.24579   0.83333   0.25002   0.00000  Uiso   1.00
C387   C     0.12584   0.76175   0.02284   0.00000  Uiso   1.00
C388   C     0.20749   0.90492   0.47716   0.00000  Uiso   1.00
C389   C     0.02175   0.81421   0.28646   0.00000  Uiso   1.00
C390   C     0.31158   0.85245   0.21355   0.00000  Uiso   1.00
C391   C     0.31215   0.81423   0.28647   0.00000  Uiso   1.00
C392   C     0.02118   0.85244   0.21353   0.00000  Uiso   1.00
C393   C     0.29036   0.83333   0.25001   0.00000  Uiso   1.00
C394   C     0.04297   0.83333   0.24999   0.00000  Uiso   1.00
C395   C     0.14017   0.69133   0.22321   0.00000  Uiso   1.00
C396   C     0.19316   0.97534   0.27679   0.00000  Uiso   1.00
C397   C     0.19311   0.69154   0.27685   0.00000  Uiso   1.00
C398   C     0.14022   0.97512   0.22315   0.00000  Uiso   1.00
C399   C     0.16674   0.83327   0.16437   0.00000  Uiso   1.00
C400   C     0.16659   0.83340   0.33563   0.00000  Uiso   1.00
C401   C     0.18545   0.86994   0.40731   0.00000  Uiso   1.00
C402   C     0.14789   0.79673   0.09269   0.00000  Uiso   1.00
C403   C     0.16607   0.83359   0.38400   0.00000  Uiso   1.00
C404   C     0.16727   0.83308   0.11600   0.00000  Uiso   1.00
C405   C     0.14633   0.79736   0.40668   0.00000  Uiso   1.00
C406   C     0.18700   0.86931   0.09332   0.00000  Uiso   1.00
C407   C     0.14472   0.79781   0.45314   0.00000  Uiso   1.00
C408   C     0.18861   0.86885   0.04686   0.00000  Uiso   1.00
C409   C     0.16605   0.83358   0.47668   0.00000  Uiso   1.00
C410   C     0.16728   0.83309   0.02332   0.00000  Uiso   1.00
C411   C     0.18619   0.86988   0.45360   0.00000  Uiso   1.00
C412   C     0.14714   0.79678   0.04640   0.00000  Uiso   1.00
C413   C     0.12333   0.76285   0.47688   0.00000  Uiso   1.00
C414   C     0.21001   0.90382   0.02312   0.00000  Uiso   1.00
Cu415  Cu    0.16667   0.88022   0.25000   0.00000  Uiso   1.00
Cu416  Cu    0.16667   0.78645   0.25000   0.00000  Uiso   1.00
N417   N     0.16667   0.95069   0.25000   0.00000  Uiso   1.00
N418   N     0.16667   0.71598   0.25000   0.00000  Uiso   1.00
O419   O     0.10655   0.87291   0.25000   0.00000  Uiso   1.00
O420   O     0.22679   0.79375   0.25001   0.00000  Uiso   1.00
O421   O     0.22679   0.87291   0.25001   0.00000  Uiso   1.00
O422   O     0.10655   0.79375   0.25000   0.00000  Uiso   1.00
O423   O     0.16666   0.87293   0.18513   0.00000  Uiso   1.00
O424   O     0.16668   0.79373   0.31487   0.00000  Uiso   1.00
O425   O     0.16668   0.87293   0.31487   0.00000  Uiso   1.00
O426   O     0.16666   0.79373   0.18513   0.00000  Uiso   1.00
F427   F     0.20527   0.90410   0.38464   0.00000  Uiso   1.00
F428   F     0.12806   0.76257   0.11536   0.00000  Uiso   1.00
F429   F     0.12955   0.76143   0.38309   0.00000  Uiso   1.00
F430   F     0.20378   0.90524   0.11691   0.00000  Uiso   1.00
O431   O     0.09896   0.72957   0.45649   0.00000  Uiso   1.00
H432   H     0.08032   0.74630   0.43572   0.00000  Uiso   1.00
O433   O     0.23437   0.93710   0.04351   0.00000  Uiso   1.00
H434   H     0.25301   0.92037   0.06428   0.00000  Uiso   1.00
F435   F     0.10572   0.72691   0.04425   0.00000  Uiso   1.00
F436   F     0.22761   0.93975   0.45575   0.00000  Uiso   1.00
O437   O     0.04153   0.79625   0.32350   0.00000  Uiso   1.00
H438   H     0.07083   0.80599   0.32431   0.00000  Uiso   1.00
O439   O     0.29180   0.87042   0.17650   0.00000  Uiso   1.00
H440   H     0.26251   0.86068   0.17569   0.00000  Uiso   1.00
O441   O     0.29294   0.79631   0.32354   0.00000  Uiso   1.00
H442   H     0.26366   0.80610   0.32438   0.00000  Uiso   1.00
O443   O     0.04039   0.87036   0.17647   0.00000  Uiso   1.00
H444   H     0.06967   0.86056   0.17562   0.00000  Uiso   1.00
F445   F     0.11338   0.71440   0.19642   0.00000  Uiso   1.00
F446   F     0.21996   0.95227   0.30358   0.00000  Uiso   1.00
F447   F     0.21964   0.71483   0.30396   0.00000  Uiso   1.00
F448   F     0.11369   0.95183   0.19604   0.00000  Uiso   1.00
C449   C     0.42088   0.83334   0.24998   0.00000  Uiso   1.00
C450   C     0.57912   0.83333   0.25002   0.00000  Uiso   1.00
C451   C     0.45918   0.76175   0.02284   0.00000  Uiso   1.00
C452   C     0.54082   0.90492   0.47716   0.00000  Uiso   1.00
C453   C     0.35508   0.81421   0.28646   0.00000  Uiso   1.00
C454   C     0.64492   0.85245   0.21355   0.00000  Uiso   1.00
C455   C     0.64548   0.81423   0.28647   0.00000  Uiso   1.00
C456   C     0.35452   0.85244   0.21353   0.00000  Uiso   1.00
C457   C     0.62369   0.83333   0.25001   0.00000  Uiso   1.00
C458   C     0.37631   0.83333   0.24999   0.00000  Uiso   1.00
C459   C     0.47351   0.69133   0.22321   0.00000  Uiso   1.00
C460   C     0.52649   0.97534   0.27679   0.00000  Uiso   1.00
C461   C     0.52645   0.69154   0.27685   0.00000  Uiso   1.00
C462   C     0.47355   0.97512   0.22315   0.00000  Uiso   1.00
C463   C     0.50007   0.83327   0.16437   0.00000  Uiso   1.00
C464   C     0.49993   0.83340   0.33563   0.00000  Uiso   1.00
C465   C     0.51878   0.86994   0.40731   0.00000  Uiso   1.00
C466   C     0.48122   0.79673   0.09269   0.00000  Uiso   1.00
C467   C     0.49940   0.83359   0.38400   0.00000  Uiso   1.00
C468   C     0.50060   0.83308   0.11600   0.00000  Uiso   1.00
C469   C     0.47967   0.79736   0.40668   0.00000  Uiso   1.00
C470   C     0.52033   0.86931   0.09332   0.00000  Uiso   1.00
C471   C     0.47806   0.79781   0.45314   0.00000  Uiso   1.00
C472   C     0.52194   0.86885   0.04686   0.00000  Uiso   1.00
C473   C     0.49939   0.83358   0.47668   0.00000  Uiso   1.00
C474   C     0.50061   0.83309   0.02332   0.00000  Uiso   1.00
C475   C     0.51953   0.86988   0.45360   0.00000  Uiso   1.00
C476   C     0.48048   0.79678   0.04640   0.00000  Uiso   1.00
C477   C     0.45666   0.76285   0.47688   0.00000  Uiso   1.00
C478   C     0.54334   0.90382   0.02312   0.00000  Uiso   1.00
Cu479  Cu    0.50000   0.88022   0.25000   0.00000  Uiso   1.00
Cu480  Cu    0.50000   0.78645   0.25000   0.00000  Uiso   1.00
N481   N     0.50000   0.95069   0.25000   0.00000  Uiso   1.00
N482   N     0.50000   0.71598   0.25000   0.00000  Uiso   1.00
O483   O     0.43988   0.87291   0.25000   0.00000  Uiso   1.00
O484   O     0.56012   0.79375   0.25001   0.00000  Uiso   1.00
O485   O     0.56012   0.87291   0.25001   0.00000  Uiso   1.00
O486   O     0.43988   0.79375   0.25000   0.00000  Uiso   1.00
O487   O     0.49999   0.87293   0.18513   0.00000  Uiso   1.00
O488   O     0.50001   0.79373   0.31487   0.00000  Uiso   1.00
O489   O     0.50001   0.87293   0.31487   0.00000  Uiso   1.00
O490   O     0.49999   0.79373   0.18513   0.00000  Uiso   1.00
F491   F     0.53861   0.90410   0.38464   0.00000  Uiso   1.00
F492   F     0.46140   0.76257   0.11536   0.00000  Uiso   1.00
F493   F     0.46289   0.76143   0.38309   0.00000  Uiso   1.00
F494   F     0.53711   0.90524   0.11691   0.00000  Uiso   1.00
O495   O     0.43229   0.72957   0.45649   0.00000  Uiso   1.00
H496   H     0.41365   0.74630   0.43572   0.00000  Uiso   1.00
O497   O     0.56770   0.93710   0.04351   0.00000  Uiso   1.00
H498   H     0.58635   0.92037   0.06428   0.00000  Uiso   1.00
F499   F     0.43906   0.72691   0.04425   0.00000  Uiso   1.00
F500   F     0.56094   0.93975   0.45575   0.00000  Uiso   1.00
O501   O     0.37486   0.79625   0.32350   0.00000  Uiso   1.00
H502   H     0.40416   0.80599   0.32431   0.00000  Uiso   1.00
O503   O     0.62514   0.87042   0.17650   0.00000  Uiso   1.00
H504   H     0.59584   0.86068   0.17569   0.00000  Uiso   1.00
O505   O     0.62628   0.79631   0.32354   0.00000  Uiso   1.00
H506   H     0.59700   0.80610   0.32438   0.00000  Uiso   1.00
O507   O     0.37372   0.87036   0.17647   0.00000  Uiso   1.00
H508   H     0.40300   0.86056   0.17562   0.00000  Uiso   1.00
F509   F     0.44671   0.71440   0.19642   0.00000  Uiso   1.00
F510   F     0.55329   0.95227   0.30358   0.00000  Uiso   1.00
F511   F     0.55297   0.71483   0.30396   0.00000  Uiso   1.00
F512   F     0.44703   0.95183   0.19604   0.00000  Uiso   1.00
C513   C     0.75421   0.83334   0.24998   0.00000  Uiso   1.00
C514   C     0.91245   0.83333   0.25002   0.00000  Uiso   1.00
C515   C     0.79251   0.76175   0.02284   0.00000  Uiso   1.00
C516   C     0.87416   0.90492   0.47716   0.00000  Uiso   1.00
C517   C     0.68842   0.81421   0.28646   0.00000  Uiso   1.00
C518   C     0.97825   0.85245   0.21355   0.00000  Uiso   1.00
C519   C     0.97882   0.81423   0.28647   0.00000  Uiso   1.00
C520   C     0.68785   0.85244   0.21353   0.00000  Uiso   1.00
C521   C     0.95703   0.83333   0.25001   0.00000  Uiso   1.00
C522   C     0.70964   0.83333   0.24999   0.00000  Uiso   1.00
C523   C     0.80684   0.69133   0.22321   0.00000  Uiso   1.00
C524   C     0.85983   0.97534   0.27679   0.00000  Uiso   1.00
C525   C     0.85978   0.69154   0.27685   0.00000  Uiso   1.00
C526   C     0.80689   0.97512   0.22315   0.00000  Uiso   1.00
C527   C     0.83341   0.83327   0.16437   0.00000  Uiso   1.00
C528   C     0.83326   0.83340   0.33563   0.00000  Uiso   1.00
C529   C     0.85211   0.86994   0.40731   0.00000  Uiso   1.00
C530   C     0.81456   0.79673   0.09269   0.00000  Uiso   1.00
C531   C     0.83273   0.83359   0.38400   0.00000  Uiso   1.00
C532   C     0.83393   0.83308   0.11600   0.00000  Uiso   1.00
C533   C     0.81300   0.79736   0.40668   0.00000  Uiso   1.00
C534   C     0.85367   0.86931   0.09332   0.00000  Uiso   1.00
C535   C     0.81139   0.79781   0.45314   0.00000  Uiso   1.00
C536   C     0.85528   0.86885   0.04686   0.00000  Uiso   1.00
C537   C     0.83272   0.83358   0.47668   0.00000  Uiso   1.00
C538   C     0.83395   0.83309   0.02332   0.00000  Uiso   1.00
C539   C     0.85286   0.86988   0.45360   0.00000  Uiso   1.00
C540   C     0.81381   0.79678   0.04640   0.00000  Uiso   1.00
C541   C     0.78999   0.76285   0.47688   0.00000  Uiso   1.00
C542   C     0.87667   0.90382   0.02312   0.00000  Uiso   1.00
Cu543  Cu    0.83333   0.88022   0.25000   0.00000  Uiso   1.00
Cu544  Cu    0.83333   0.78645   0.25000   0.00000  Uiso   1.00
N545   N     0.83333   0.95069   0.25000   0.00000  Uiso   1.00
N546   N     0.83333   0.71598   0.25000   0.00000  Uiso   1.00
O547   O     0.77321   0.87291   0.25000   0.00000  Uiso   1.00
O548   O     0.89345   0.79375   0.25001   0.00000  Uiso   1.00
O549   O     0.89345   0.87291   0.25001   0.00000  Uiso   1.00
O550   O     0.77321   0.79375   0.25000   0.00000  Uiso   1.00
O551   O     0.83332   0.87293   0.18513   0.00000  Uiso   1.00
O552   O     0.83334   0.79373   0.31487   0.00000  Uiso   1.00
O553   O     0.83334   0.87293   0.31487   0.00000  Uiso   1.00
O554   O     0.83332   0.79373   0.18513   0.00000  Uiso   1.00
F555   F     0.87194   0.90410   0.38464   0.00000  Uiso   1.00
F556   F     0.79473   0.76257   0.11536   0.00000  Uiso   1.00
F557   F     0.79622   0.76143   0.38309   0.00000  Uiso   1.00
F558   F     0.87044   0.90524   0.11691   0.00000  Uiso   1.00
O559   O     0.76563   0.72957   0.45649   0.00000  Uiso   1.00
H560   H     0.74699   0.74630   0.43572   0.00000  Uiso   1.00
O561   O     0.90104   0.93710   0.04351   0.00000  Uiso   1.00
H562   H     0.91968   0.92037   0.06428   0.00000  Uiso   1.00
F563   F     0.77239   0.72691   0.04425   0.00000  Uiso   1.00
F564   F     0.89428   0.93975   0.45575   0.00000  Uiso   1.00
O565   O     0.70820   0.79625   0.32350   0.00000  Uiso   1.00
H566   H     0.73749   0.80599   0.32431   0.00000  Uiso   1.00
O567   O     0.95847   0.87042   0.17650   0.00000  Uiso   1.00
H568   H     0.92917   0.86068   0.17569   0.00000  Uiso   1.00
O569   O     0.95961   0.79631   0.32354   0.00000  Uiso   1.00
H570   H     0.93033   0.80610   0.32438   0.00000  Uiso   1.00
O571   O     0.70706   0.87036   0.17647   0.00000  Uiso   1.00
H572   H     0.73633   0.86056   0.17562   0.00000  Uiso   1.00
F573   F     0.78004   0.71440   0.19642   0.00000  Uiso   1.00
F574   F     0.88662   0.95227   0.30358   0.00000  Uiso   1.00
F575   F     0.88631   0.71483   0.30396   0.00000  Uiso   1.00
F576   F     0.78036   0.95183   0.19604   0.00000  Uiso   1.00
C577   C     0.08755   0.16667   0.74998   0.00000  Uiso   1.00
C578   C     0.24579   0.16667   0.75002   0.00000  Uiso   1.00
C579   C     0.12584   0.09508   0.52284   0.00000  Uiso   1.00
C580   C     0.20749   0.23825   0.97716   0.00000  Uiso   1.00
C581   C     0.02175   0.14755   0.78646   0.00000  Uiso   1.00
C582   C     0.31158   0.18579   0.71355   0.00000  Uiso   1.00
C583   C     0.31215   0.14756   0.78647   0.00000  Uiso   1.00
C584   C     0.02118   0.18577   0.71353   0.00000  Uiso   1.00
C585   C     0.29036   0.16667   0.75001   0.00000  Uiso   1.00
C586   C     0.04297   0.16667   0.74999   0.00000  Uiso   1.00
C587   C     0.14017   0.02466   0.72321   0.00000  Uiso   1.00
C588   C     0.19316   0.30867   0.77679   0.00000  Uiso   1.00
C589   C     0.19311   0.02488   0.77685   0.00000  Uiso   1.00
C590   C     0.14022   0.30846   0.72315   0.00000  Uiso   1.00
C591   C     0.16674   0.16660   0.66437   0.00000  Uiso   1.00
C592   C     0.16659   0.16673   0.83563   0.00000  Uiso   1.00
C593   C     0.18545   0.20327   0.90731   0.00000  Uiso   1.00
C594   C     0.14789   0.13006   0.59269   0.00000  Uiso   1.00
C595   C     0.16607   0.16692   0.88400   0.00000  Uiso   1.00
C596   C     0.16727   0.16641   0.61600   0.00000  Uiso   1.00
C597   C     0.14633   0.13069   0.90668   0.00000  Uiso   1.00
C598   C     0.18700   0.20264   0.59332   0.00000  Uiso   1.00
C599   C     0.14472   0.13115   0.95314   0.00000  Uiso   1.00
C600   C     0.18861   0.20219   0.54686   0.00000  Uiso   1.00
C601   C     0.16605   0.16691   0.97668   0.00000  Uiso   1.00
C602   C     0.16728   0.16642   0.52332   0.00000  Uiso   1.00
C603   C     0.18619   0.20322   0.95360   0.00000  Uiso   1.00
C604   C     0.14714   0.13011   0.54640   0.00000  Uiso   1.00
C605   C     0.12333   0.09618   0.97688   0.00000  Uiso   1.00
C606   C     0.21001   0.23715   0.52312   0.00000  Uiso   1.00
Cu607  Cu    0.16667   0.21355   0.75000   0.00000  Uiso   1.00
Cu608  Cu    0.16667   0.11978   0.75000   0.00000  Uiso   1.00
N609   N     0.16667   0.28402   0.75000   0.00000  Uiso   1.00
N610   N     0.16667   0.04931   0.75000   0.00000  Uiso   1.00
O611   O     0.10655   0.20625   0.75000   0.00000  Uiso   1.00
O612   O     0.22679   0.12709   0.75001   0.00000  Uiso   1.00
O613   O     0.22679   0.20625   0.75001   0.00000  Uiso   1.00
O614   O     0.10655   0.12709   0.75000   0.00000  Uiso   1.00
O615   O     0.16666   0.20627   0.68513   0.00000  Uiso   1.00
O616   O     0.16668   0.12707   0.81487   0.00000  Uiso   1.00
O617   O     0.16668   0.20627   0.81487   0.00000  Uiso   1.00
O618   O     0.16666   0.12707   0.68513   0.00000  Uiso   1.00
F619   F     0.20527   0.23743   0.88464   0.00000  Uiso   1.00
F620   F     0.12806   0.09590   0.61536   0.00000  Uiso   1.00
F621   F     0.12955   0.09477   0.88309   0.00000  Uiso   1.00
F622   F     0.20378   0.23857   0.61691   0.00000  Uiso   1.00
O623   O     0.09896   0.06290   0.95649   0.00000  Uiso   1.00
H624   H     0.08032   0.07963   0.93572   0.00000  Uiso   1.00
O625   O     0.23437   0.27044   0.54351   0.00000  Uiso   1.00
H626   H     0.25301   0.25371   0.56428   0.00000  Uiso   1.00
F627   F     0.10572   0.06025   0.54425   0.00000  Uiso   1.00
F628   F     0.22761   0.27309   0.95575   0.00000  Uiso   1.00
O629   O     0.04153   0.12959   0.82350   0.00000  Uiso   1.00
H630   H     0.07083   0.13933   0.82431   0.00000  Uiso   1.00
O631   O     0.29180   0.20375   0.67650   0.00000  Uiso   1.00
H632   H     0.26251   0.19401   0.67569   0.00000  Uiso   1.00
O633   O     0.29294   0.12965   0.82354   0.00000  Uiso   1.00
H634   H     0.26366   0.13943   0.82438   0.00000  Uiso   1.00
O635   O     0.04039   0.20369   0.67647   0.00000  Uiso   1.00
H636   H     0.06967   0.19390   0.67562   0.00000  Uiso   1.00
F637   F     0.11338   0.04773   0.69642   0.00000  Uiso   1.00
F638   F     0.21996   0.28560   0.80358   0.00000  Uiso   1.00
F639   F     0.21964   0.04817   0.80396   0.00000  Uiso   1.00
F640   F     0.11369   0.28517   0.69604   0.00000  Uiso   1.00
C641   C     0.42088   0.16667   0.74998   0.00000  Uiso   1.00
C642   C     0.57912   0.16667   0.75002   0.00000  Uiso   1.00
C643   C     0.45918   0.09508   0.52284   0.00000  Uiso   1.00
C644   C     0.54082   0.23825   0.97716   0.00000  Uiso   1.00
C645   C     0.35508   0.14755   0.78646   0.00000  Uiso   1.00
C646   C     0.64492   0.18579   0.71355   0.00000  Uiso   1.00
C647   C     0.64548   0.14756   0.78647   0.00000  Uiso   1.00
C648   C     0.35452   0.18577   0.71353   0.00000  Uiso   1.00
C649   C     0.62369   0.16667   0.75001   0.00000  Uiso   1.00
C650   C     0.37631   0.16667   0.74999   0.00000  Uiso   1.00
C651   C     0.47351   0.02466   0.72321   0.00000  Uiso   1.00
C652   C     0.52649   0.30867   0.77679   0.00000  Uiso   1.00
C653   C     0.52645   0.02488   0.77685   0.00000  Uiso   1.00
C654   C     0.47355   0.30846   0.72315   0.00000  Uiso   1.00
C655   C     0.50007   0.16660   0.66437   0.00000  Uiso   1.00
C656   C     0.49993   0.16673   0.83563   0.00000  Uiso   1.00
C657   C     0.51878   0.20327   0.90731   0.00000  Uiso   1.00
C658   C     0.48122   0.13006   0.59269   0.00000  Uiso   1.00
C659   C     0.49940   0.16692   0.88400   0.00000  Uiso   1.00
C660   C     0.50060   0.16641   0.61600   0.00000  Uiso   1.00
C661   C     0.47967   0.13069   0.90668   0.00000  Uiso   1.00
C662   C     0.52033   0.20264   0.59332   0.00000  Uiso   1.00
C663   C     0.47806   0.13115   0.95314   0.00000  Uiso   1.00
C664   C     0.52194   0.20219   0.54686   0.00000  Uiso   1.00
C665   C     0.49939   0.16691   0.97668   0.00000  Uiso   1.00
C666   C     0.50061   0.16642   0.52332   0.00000  Uiso   1.00
C667   C     0.51953   0.20322   0.95360   0.00000  Uiso   1.00
C668   C     0.48048   0.13011   0.54640   0.00000  Uiso   1.00
C669   C     0.45666   0.09618   0.97688   0.00000  Uiso   1.00
C670   C     0.54334   0.23715   0.52312   0.00000  Uiso   1.00
Cu671  Cu    0.50000   0.21355   0.75000   0.00000  Uiso   1.00
Cu672  Cu    0.50000   0.11978   0.75000   0.00000  Uiso   1.00
N673   N     0.50000   0.28402   0.75000   0.00000  Uiso   1.00
N674   N     0.50000   0.04931   0.75000   0.00000  Uiso   1.00
O675   O     0.43988   0.20625   0.75000   0.00000  Uiso   1.00
O676   O     0.56012   0.12709   0.75001   0.00000  Uiso   1.00
O677   O     0.56012   0.20625   0.75001   0.00000  Uiso   1.00
O678   O     0.43988   0.12709   0.75000   0.00000  Uiso   1.00
O679   O     0.49999   0.20627   0.68513   0.00000  Uiso   1.00
O680   O     0.50001   0.12707   0.81487   0.00000  Uiso   1.00
O681   O     0.50001   0.20627   0.81487   0.00000  Uiso   1.00
O682   O     0.49999   0.12707   0.68513   0.00000  Uiso   1.00
F683   F     0.53861   0.23743   0.88464   0.00000  Uiso   1.00
F684   F     0.46140   0.09590   0.61536   0.00000  Uiso   1.00
F685   F     0.46289   0.09477   0.88309   0.00000  Uiso   1.00
F686   F     0.53711   0.23857   0.61691   0.00000  Uiso   1.00
O687   O     0.43229   0.06290   0.95649   0.00000  Uiso   1.00
H688   H     0.41365   0.07963   0.93572   0.00000  Uiso   1.00
O689   O     0.56770   0.27044   0.54351   0.00000  Uiso   1.00
H690   H     0.58635   0.25371   0.56428   0.00000  Uiso   1.00
F691   F     0.43906   0.06025   0.54425   0.00000  Uiso   1.00
F692   F     0.56094   0.27309   0.95575   0.00000  Uiso   1.00
O693   O     0.37486   0.12959   0.82350   0.00000  Uiso   1.00
H694   H     0.40416   0.13933   0.82431   0.00000  Uiso   1.00
O695   O     0.62514   0.20375   0.67650   0.00000  Uiso   1.00
H696   H     0.59584   0.19401   0.67569   0.00000  Uiso   1.00
O697   O     0.62628   0.12965   0.82354   0.00000  Uiso   1.00
H698   H     0.59700   0.13943   0.82438   0.00000  Uiso   1.00
O699   O     0.37372   0.20369   0.67647   0.00000  Uiso   1.00
H700   H     0.40300   0.19390   0.67562   0.00000  Uiso   1.00
F701   F     0.44671   0.04773   0.69642   0.00000  Uiso   1.00
F702   F     0.55329   0.28560   0.80358   0.00000  Uiso   1.00
F703   F     0.55297   0.04817   0.80396   0.00000  Uiso   1.00
F704   F     0.44703   0.28517   0.69604   0.00000  Uiso   1.00
C705   C     0.75421   0.16667   0.74998   0.00000  Uiso   1.00
C706   C     0.91245   0.16667   0.75002   0.00000  Uiso   1.00
C707   C     0.79251   0.09508   0.52284   0.00000  Uiso   1.00
C708   C     0.87416   0.23825   0.97716   0.00000  Uiso   1.00
C709   C     0.68842   0.14755   0.78646   0.00000  Uiso   1.00
C710   C     0.97825   0.18579   0.71355   0.00000  Uiso   1.00
C711   C     0.97882   0.14756   0.78647   0.00000  Uiso   1.00
C712   C     0.68785   0.18577   0.71353   0.00000  Uiso   1.00
C713   C     0.95703   0.16667   0.75001   0.00000  Uiso   1.00
C714   C     0.70964   0.16667   0.74999   0.00000  Uiso   1.00
C715   C     0.80684   0.02466   0.72321   0.00000  Uiso   1.00
C716   C     0.85983   0.30867   0.77679   0.00000  Uiso   1.00
C717   C     0.85978   0.02488   0.77685   0.00000  Uiso   1.00
C718   C     0.80689   0.30846   0.72315   0.00000  Uiso   1.00
C719   C     0.83341   0.16660   0.66437   0.00000  Uiso   1.00
C720   C     0.83326   0.16673   0.83563   0.00000  Uiso   1.00
C721   C     0.85211   0.20327   0.90731   0.00000  Uiso   1.00
C722   C     0.81456   0.13006   0.59269   0.00000  Uiso   1.00
C723   C     0.83273   0.16692   0.88400   0.00000  Uiso   1.00
C724   C     0.83393   0.16641   0.61600   0.00000  Uiso   1.00
C725   C     0.81300   0.13069   0.90668   0.00000  Uiso   1.00
C726   C     0.85367   0.20264   0.59332   0.00000  Uiso   1.00
C727   C     0.81139   0.13115   0.95314   0.00000  Uiso   1.00
C728   C     0.85528   0.20219   0.54686   0.00000  Uiso   1.00
C729   C     0.83272   0.16691   0.97668   0.00000  Uiso   1.00
C730   C     0.83395   0.16642   0.52332   0.00000  Uiso   1.00
C731   C     0.85286   0.20322   0.95360   0.00000  Uiso   1.00
C732   C     0.81381   0.13011   0.54640   0.00000  Uiso   1.00
C733   C     0.78999   0.09618   0.97688   0.00000  Uiso   1.00
C734   C     0.87667   0.23715   0.52312   0.00000  Uiso   1.00
Cu735  Cu    0.83333   0.21355   0.75000   0.00000  Uiso   1.00
Cu736  Cu    0.83333   0.11978   0.75000   0.00000  Uiso   1.00
N737   N     0.83333   0.28402   0.75000   0.00000  Uiso   1.00
N738   N     0.83333   0.04931   0.75000   0.00000  Uiso   1.00
O739   O     0.77321   0.20625   0.75000   0.00000  Uiso   1.00
O740   O     0.89345   0.12709   0.75001   0.00000  Uiso   1.00
O741   O     0.89345   0.20625   0.75001   0.00000  Uiso   1.00
O742   O     0.77321   0.12709   0.75000   0.00000  Uiso   1.00
O743   O     0.83332   0.20627   0.68513   0.00000  Uiso   1.00
O744   O     0.83334   0.12707   0.81487   0.00000  Uiso   1.00
O745   O     0.83334   0.20627   0.81487   0.00000  Uiso   1.00
O746   O     0.83332   0.12707   0.68513   0.00000  Uiso   1.00
F747   F     0.87194   0.23743   0.88464   0.00000  Uiso   1.00
F748   F     0.79473   0.09590   0.61536   0.00000  Uiso   1.00
F749   F     0.79622   0.09477   0.88309   0.00000  Uiso   1.00
F750   F     0.87044   0.23857   0.61691   0.00000  Uiso   1.00
O751   O     0.76563   0.06290   0.95649   0.00000  Uiso   1.00
H752   H     0.74699   0.07963   0.93572   0.00000  Uiso   1.00
O753   O     0.90104   0.27044   0.54351   0.00000  Uiso   1.00
H754   H     0.91968   0.25371   0.56428   0.00000  Uiso   1.00
F755   F     0.77239   0.06025   0.54425   0.00000  Uiso   1.00
F756   F     0.89428   0.27309   0.95575   0.00000  Uiso   1.00
O757   O     0.70820   0.12959   0.82350   0.00000  Uiso   1.00
H758   H     0.73749   0.13933   0.82431   0.00000  Uiso   1.00
O759   O     0.95847   0.20375   0.67650   0.00000  Uiso   1.00
H760   H     0.92917   0.19401   0.67569   0.00000  Uiso   1.00
O761   O     0.95961   0.12965   0.82354   0.00000  Uiso   1.00
H762   H     0.93033   0.13943   0.82438   0.00000  Uiso   1.00
O763   O     0.70706   0.20369   0.67647   0.00000  Uiso   1.00
H764   H     0.73633   0.19390   0.67562   0.00000  Uiso   1.00
F765   F     0.78004   0.04773   0.69642   0.00000  Uiso   1.00
F766   F     0.88662   0.28560   0.80358   0.00000  Uiso   1.00
F767   F     0.88631   0.04817   0.80396   0.00000  Uiso   1.00
F768   F     0.78036   0.28517   0.69604   0.00000  Uiso   1.00
C769   C     0.08755   0.50000   0.74998   0.00000  Uiso   1.00
C770   C     0.24579   0.50000   0.75002   0.00000  Uiso   1.00
C771   C     0.12584   0.42841   0.52284   0.00000  Uiso   1.00
C772   C     0.20749   0.57159   0.97716   0.00000  Uiso   1.00
C773   C     0.02175   0.48088   0.78646   0.00000  Uiso   1.00
C774   C     0.31158   0.51912   0.71355   0.00000  Uiso   1.00
C775   C     0.31215   0.48089   0.78647   0.00000  Uiso   1.00
C776   C     0.02118   0.51911   0.71353   0.00000  Uiso   1.00
C777   C     0.29036   0.50000   0.75001   0.00000  Uiso   1.00
C778   C     0.04297   0.50000   0.74999   0.00000  Uiso   1.00
C779   C     0.14017   0.35800   0.72321   0.00000  Uiso   1.00
C780   C     0.19316   0.64200   0.77679   0.00000  Uiso   1.00
C781   C     0.19311   0.35821   0.77685   0.00000  Uiso   1.00
C782   C     0.14022   0.64179   0.72315   0.00000  Uiso   1.00
C783   C     0.16674   0.49993   0.66437   0.00000  Uiso   1.00
C784   C     0.16659   0.50007   0.83563   0.00000  Uiso   1.00
C785   C     0.18545   0.53660   0.90731   0.00000  Uiso   1.00
C786   C     0.14789   0.46340   0.59269   0.00000  Uiso   1.00
C787   C     0.16607   0.50026   0.88400   0.00000  Uiso   1.00
C788   C     0.16727   0.49974   0.61600   0.00000  Uiso   1.00
C789   C     0.14633   0.46402   0.90668   0.00000  Uiso   1.00
C790   C     0.18700   0.53598   0.59332   0.00000  Uiso   1.00
C791   C     0.14472   0.46448   0.95314   0.00000  Uiso   1.00
C792   C     0.18861   0.53552   0.54686   0.00000  Uiso   1.00
C793   C     0.16605   0.50025   0.97668   0.00000  Uiso   1.00
C794   C     0.16728   0.49975   0.52332   0.00000  Uiso   1.00
C795   C     0.18619   0.53655   0.95360   0.00000  Uiso   1.00
C796   C     0.14714   0.46345   0.54640   0.00000  Uiso   1.00
C797   C     0.12333   0.42951   0.97688   0.00000  Uiso   1.00
C798   C     0.21001   0.57049   0.52312   0.00000  Uiso   1.00
Cu799  Cu    0.16667   0.54689   0.75000   0.00000  Uiso   1.00
Cu800  Cu    0.16667   0.45311   0.75000   0.00000  Uiso   1.00
N801   N     0.16667   0.61736   0.75000   0.00000  Uiso   1.00
N802   N     0.16667   0.38264   0.75000   0.00000  Uiso   1.00
O803   O     0.10655   0.53958   0.75000   0.00000  Uiso   1.00
O804   O     0.22679   0.46042   0.75001   0.00000  Uiso   1.00
O805   O     0.22679   0.53958   0.75001   0.00000  Uiso   1.00
O806   O     0.10655   0.46042   0.75000   0.00000  Uiso   1.00
O807   O     0.16666   0.53960   0.68513   0.00000  Uiso   1.00
O808   O     0.16668   0.46040   0.81487   0.00000  Uiso   1.00
O809   O     0.16668   0.53960   0.81487   0.00000  Uiso   1.00
O810   O     0.16666   0.46040   0.68513   0.00000  Uiso   1.00
F811   F     0.20527   0.57076   0.88464   0.00000  Uiso   1.00
F812   F     0.12806   0.42923   0.61536   0.00000  Uiso   1.00
F813   F     0.12955   0.42810   0.88309   0.00000  Uiso   1.00
F814   F     0.20378   0.57190   0.61691   0.00000  Uiso   1.00
O815   O     0.09896   0.39623   0.95649   0.00000  Uiso   1.00
H816   H     0.08032   0.41296   0.93572   0.00000  Uiso   1.00
O817   O     0.23437   0.60377   0.54351   0.00000  Uiso   1.00
H818   H     0.25301   0.58704   0.56428   0.00000  Uiso   1.00
F819   F     0.10572   0.39358   0.54425   0.00000  Uiso   1.00
F820   F     0.22761   0.60642   0.95575   0.00000  Uiso   1.00
O821   O     0.04153   0.46292   0.82350   0.00000  Uiso   1.00
H822   H     0.07083   0.47266   0.82431   0.00000  Uiso   1.00
O823   O     0.29180   0.53708   0.67650   0.00000  Uiso   1.00
H824   H     0.26251   0.52734   0.67569   0.00000  Uiso   1.00
O825   O     0.29294   0.46298   0.82354   0.00000  Uiso   1.00
H826   H     0.26366   0.47277   0.82438   0.00000  Uiso   1.00
O827   O     0.04039   0.53702   0.67647   0.00000  Uiso   1.00
H828   H     0.06967   0.52723   0.67562   0.00000  Uiso   1.00
F829   F     0.11338   0.38106   0.69642   0.00000  Uiso   1.00
F830   F     0.21996   0.61894   0.80358   0.00000  Uiso   1.00
F831   F     0.21964   0.38150   0.80396   0.00000  Uiso   1.00
F832   F     0.11369   0.61850   0.69604   0.00000  Uiso   1.00
C833   C     0.42088   0.50000   0.74998   0.00000  Uiso   1.00
C834   C     0.57912   0.50000   0.75002   0.00000  Uiso   1.00
C835   C     0.45918   0.42841   0.52284   0.00000  Uiso   1.00
C836   C     0.54082   0.57159   0.97716   0.00000  Uiso   1.00
C837   C     0.35508   0.48088   0.78646   0.00000  Uiso   1.00
C838   C     0.64492   0.51912   0.71355   0.00000  Uiso   1.00
C839   C     0.64548   0.48089   0.78647   0.00000  Uiso   1.00
C840   C     0.35452   0.51911   0.71353   0.00000  Uiso   1.00
C841   C     0.62369   0.50000   0.75001   0.00000  Uiso   1.00
C842   C     0.37631   0.50000   0.74999   0.00000  Uiso   1.00
C843   C     0.47351   0.35800   0.72321   0.00000  Uiso   1.00
C844   C     0.52649   0.64200   0.77679   0.00000  Uiso   1.00
C845   C     0.52645   0.35821   0.77685   0.00000  Uiso   1.00
C846   C     0.47355   0.64179   0.72315   0.00000  Uiso   1.00
C847   C     0.50007   0.49993   0.66437   0.00000  Uiso   1.00
C848   C     0.49993   0.50007   0.83563   0.00000  Uiso   1.00
C849   C     0.51878   0.53660   0.90731   0.00000  Uiso   1.00
C850   C     0.48122   0.46340   0.59269   0.00000  Uiso   1.00
C851   C     0.49940   0.50026   0.88400   0.00000  Uiso   1.00
C852   C     0.50060   0.49974   0.61600   0.00000  Uiso   1.00
C853   C     0.47967   0.46402   0.90668   0.00000  Uiso   1.00
C854   C     0.52033   0.53598   0.59332   0.00000  Uiso   1.00
C855   C     0.47806   0.46448   0.95314   0.00000  Uiso   1.00
C856   C     0.52194   0.53552   0.54686   0.00000  Uiso   1.00
C857   C     0.49939   0.50025   0.97668   0.00000  Uiso   1.00
C858   C     0.50061   0.49975   0.52332   0.00000  Uiso   1.00
C859   C     0.51953   0.53655   0.95360   0.00000  Uiso   1.00
C860   C     0.48048   0.46345   0.54640   0.00000  Uiso   1.00
C861   C     0.45666   0.42951   0.97688   0.00000  Uiso   1.00
C862   C     0.54334   0.57049   0.52312   0.00000  Uiso   1.00
Cu863  Cu    0.50000   0.54689   0.75000   0.00000  Uiso   1.00
Cu864  Cu    0.50000   0.45311   0.75000   0.00000  Uiso   1.00
N865   N     0.50000   0.61736   0.75000   0.00000  Uiso   1.00
N866   N     0.50000   0.38264   0.75000   0.00000  Uiso   1.00
O867   O     0.43988   0.53958   0.75000   0.00000  Uiso   1.00
O868   O     0.56012   0.46042   0.75001   0.00000  Uiso   1.00
O869   O     0.56012   0.53958   0.75001   0.00000  Uiso   1.00
O870   O     0.43988   0.46042   0.75000   0.00000  Uiso   1.00
O871   O     0.49999   0.53960   0.68513   0.00000  Uiso   1.00
O872   O     0.50001   0.46040   0.81487   0.00000  Uiso   1.00
O873   O     0.50001   0.53960   0.81487   0.00000  Uiso   1.00
O874   O     0.49999   0.46040   0.68513   0.00000  Uiso   1.00
F875   F     0.53861   0.57076   0.88464   0.00000  Uiso   1.00
F876   F     0.46140   0.42923   0.61536   0.00000  Uiso   1.00
F877   F     0.46289   0.42810   0.88309   0.00000  Uiso   1.00
F878   F     0.53711   0.57190   0.61691   0.00000  Uiso   1.00
O879   O     0.43229   0.39623   0.95649   0.00000  Uiso   1.00
H880   H     0.41365   0.41296   0.93572   0.00000  Uiso   1.00
O881   O     0.56770   0.60377   0.54351   0.00000  Uiso   1.00
H882   H     0.58635   0.58704   0.56428   0.00000  Uiso   1.00
F883   F     0.43906   0.39358   0.54425   0.00000  Uiso   1.00
F884   F     0.56094   0.60642   0.95575   0.00000  Uiso   1.00
O885   O     0.37486   0.46292   0.82350   0.00000  Uiso   1.00
H886   H     0.40416   0.47266   0.82431   0.00000  Uiso   1.00
O887   O     0.62514   0.53708   0.67650   0.00000  Uiso   1.00
H888   H     0.59584   0.52734   0.67569   0.00000  Uiso   1.00
O889   O     0.62628   0.46298   0.82354   0.00000  Uiso   1.00
H890   H     0.59700   0.47277   0.82438   0.00000  Uiso   1.00
O891   O     0.37372   0.53702   0.67647   0.00000  Uiso   1.00
H892   H     0.40300   0.52723   0.67562   0.00000  Uiso   1.00
F893   F     0.44671   0.38106   0.69642   0.00000  Uiso   1.00
F894   F     0.55329   0.61894   0.80358   0.00000  Uiso   1.00
F895   F     0.55297   0.38150   0.80396   0.00000  Uiso   1.00
F896   F     0.44703   0.61850   0.69604   0.00000  Uiso   1.00
C897   C     0.75421   0.50000   0.74998   0.00000  Uiso   1.00
C898   C     0.91245   0.50000   0.75002   0.00000  Uiso   1.00
C899   C     0.79251   0.42841   0.52284   0.00000  Uiso   1.00
C900   C     0.87416   0.57159   0.97716   0.00000  Uiso   1.00
C901   C     0.68842   0.48088   0.78646   0.00000  Uiso   1.00
C902   C     0.97825   0.51912   0.71355   0.00000  Uiso   1.00
C903   C     0.97882   0.48089   0.78647   0.00000  Uiso   1.00
C904   C     0.68785   0.51911   0.71353   0.00000  Uiso   1.00
C905   C     0.95703   0.50000   0.75001   0.00000  Uiso   1.00
C906   C     0.70964   0.50000   0.74999   0.00000  Uiso   1.00
C907   C     0.80684   0.35800   0.72321   0.00000  Uiso   1.00
C908   C     0.85983   0.64200   0.77679   0.00000  Uiso   1.00
C909   C     0.85978   0.35821   0.77685   0.00000  Uiso   1.00
C910   C     0.80689   0.64179   0.72315   0.00000  Uiso   1.00
C911   C     0.83341   0.49993   0.66437   0.00000  Uiso   1.00
C912   C     0.83326   0.50007   0.83563   0.00000  Uiso   1.00
C913   C     0.85211   0.53660   0.90731   0.00000  Uiso   1.00
C914   C     0.81456   0.46340   0.59269   0.00000  Uiso   1.00
C915   C     0.83273   0.50026   0.88400   0.00000  Uiso   1.00
C916   C     0.83393   0.49974   0.61600   0.00000  Uiso   1.00
C917   C     0.81300   0.46402   0.90668   0.00000  Uiso   1.00
C918   C     0.85367   0.53598   0.59332   0.00000  Uiso   1.00
C919   C     0.81139   0.46448   0.95314   0.00000  Uiso   1.00
C920   C     0.85528   0.53552   0.54686   0.00000  Uiso   1.00
C921   C     0.83272   0.50025   0.97668   0.00000  Uiso   1.00
C922   C     0.83395   0.49975   0.52332   0.00000  Uiso   1.00
C923   C     0.85286   0.53655   0.95360   0.00000  Uiso   1.00
C924   C     0.81381   0.46345   0.54640   0.00000  Uiso   1.00
C925   C     0.78999   0.42951   0.97688   0.00000  Uiso   1.00
C926   C     0.87667   0.57049   0.52312   0.00000  Uiso   1.00
Cu927  Cu    0.83333   0.54689   0.75000   0.00000  Uiso   1.00
Cu928  Cu    0.83333   0.45311   0.75000   0.00000  Uiso   1.00
N929   N     0.83333   0.61736   0.75000   0.00000  Uiso   1.00
N930   N     0.83333   0.38264   0.75000   0.00000  Uiso   1.00
O931   O     0.77321   0.53958   0.75000   0.00000  Uiso   1.00
O932   O     0.89345   0.46042   0.75001   0.00000  Uiso   1.00
O933   O     0.89345   0.53958   0.75001   0.00000  Uiso   1.00
O934   O     0.77321   0.46042   0.75000   0.00000  Uiso   1.00
O935   O     0.83332   0.53960   0.68513   0.00000  Uiso   1.00
O936   O     0.83334   0.46040   0.81487   0.00000  Uiso   1.00
O937   O     0.83334   0.53960   0.81487   0.00000  Uiso   1.00
O938   O     0.83332   0.46040   0.68513   0.00000  Uiso   1.00
F939   F     0.87194   0.57076   0.88464   0.00000  Uiso   1.00
F940   F     0.79473   0.42923   0.61536   0.00000  Uiso   1.00
F941   F     0.79622   0.42810   0.88309   0.00000  Uiso   1.00
F942   F     0.87044   0.57190   0.61691   0.00000  Uiso   1.00
O943   O     0.76563   0.39623   0.95649   0.00000  Uiso   1.00
H944   H     0.74699   0.41296   0.93572   0.00000  Uiso   1.00
O945   O     0.90104   0.60377   0.54351   0.00000  Uiso   1.00
H946   H     0.91968   0.58704   0.56428   0.00000  Uiso   1.00
F947   F     0.77239   0.39358   0.54425   0.00000  Uiso   1.00
F948   F     0.89428   0.60642   0.95575   0.00000  Uiso   1.00
O949   O     0.70820   0.46292   0.82350   0.00000  Uiso   1.00
H950   H     0.73749   0.47266   0.82431   0.00000  Uiso   1.00
O951   O     0.95847   0.53708   0.67650   0.00000  Uiso   1.00
H952   H     0.92917   0.52734   0.67569   0.00000  Uiso   1.00
O953   O     0.95961   0.46298   0.82354   0.00000  Uiso   1.00
H954   H     0.93033   0.47277   0.82438   0.00000  Uiso   1.00
O955   O     0.70706   0.53702   0.67647   0.00000  Uiso   1.00
H956   H     0.73633   0.52723   0.67562   0.00000  Uiso   1.00
F957   F     0.78004   0.38106   0.69642   0.00000  Uiso   1.00
F958   F     0.88662   0.61894   0.80358   0.00000  Uiso   1.00
F959   F     0.88631   0.38150   0.80396   0.00000  Uiso   1.00
F960   F     0.78036   0.61850   0.69604   0.00000  Uiso   1.00
C961   C     0.08755   0.83334   0.74998   0.00000  Uiso   1.00
C962   C     0.24579   0.83333   0.75002   0.00000  Uiso   1.00
C963   C     0.12584   0.76175   0.52284   0.00000  Uiso   1.00
C964   C     0.20749   0.90492   0.97716   0.00000  Uiso   1.00
C965   C     0.02175   0.81421   0.78646   0.00000  Uiso   1.00
C966   C     0.31158   0.85245   0.71355   0.00000  Uiso   1.00
C967   C     0.31215   0.81423   0.78647   0.00000  Uiso   1.00
C968   C     0.02118   0.85244   0.71353   0.00000  Uiso   1.00
C969   C     0.29036   0.83333   0.75001   0.00000  Uiso   1.00
C970   C     0.04297   0.83333   0.74999   0.00000  Uiso   1.00
C971   C     0.14017   0.69133   0.72321   0.00000  Uiso   1.00
C972   C     0.19316   0.97534   0.77679   0.00000  Uiso   1.00
C973   C     0.19311   0.69154   0.77685   0.00000  Uiso   1.00
C974   C     0.14022   0.97512   0.72315   0.00000  Uiso   1.00
C975   C     0.16674   0.83327   0.66437   0.00000  Uiso   1.00
C976   C     0.16659   0.83340   0.83563   0.00000  Uiso   1.00
C977   C     0.18545   0.86994   0.90731   0.00000  Uiso   1.00
C978   C     0.14789   0.79673   0.59269   0.00000  Uiso   1.00
C979   C     0.16607   0.83359   0.88400   0.00000  Uiso   1.00
C980   C     0.16727   0.83308   0.61600   0.00000  Uiso   1.00
C981   C     0.14633   0.79736   0.90668   0.00000  Uiso   1.00
C982   C     0.18700   0.86931   0.59332   0.00000  Uiso   1.00
C983   C     0.14472   0.79781   0.95314   0.00000  Uiso   1.00
C984   C     0.18861   0.86885   0.54686   0.00000  Uiso   1.00
C985   C     0.16605   0.83358   0.97668   0.00000  Uiso   1.00
C986   C     0.16728   0.83309   0.52332   0.00000  Uiso   1.00
C987   C     0.18619   0.86988   0.95360   0.00000  Uiso   1.00
C988   C     0.14714   0.79678   0.54640   0.00000  Uiso   1.00
C989   C     0.12333   0.76285   0.97688   0.00000  Uiso   1.00
C990   C     0.21001   0.90382   0.52312   0.00000  Uiso   1.00
Cu991  Cu    0.16667   0.88022   0.75000   0.00000  Uiso   1.00
Cu992  Cu    0.16667   0.78645   0.75000   0.00000  Uiso   1.00
N993   N     0.16667   0.95069   0.75000   0.00000  Uiso   1.00
N994   N     0.16667   0.71598   0.75000   0.00000  Uiso   1.00
O995   O     0.10655   0.87291   0.75000   0.00000  Uiso   1.00
O996   O     0.22679   0.79375   0.75001   0.00000  Uiso   1.00
O997   O     0.22679   0.87291   0.75001   0.00000  Uiso   1.00
O998   O     0.10655   0.79375   0.75000   0.00000  Uiso   1.00
O999   O     0.16666   0.87293   0.68513   0.00000  Uiso   1.00
O1000  O     0.16668   0.79373   0.81487   0.00000  Uiso   1.00
O1001  O     0.16668   0.87293   0.81487   0.00000  Uiso   1.00
O1002  O     0.16666   0.79373   0.68513   0.00000  Uiso   1.00
F1003  F     0.20527   0.90410   0.88464   0.00000  Uiso   1.00
F1004  F     0.12806   0.76257   0.61536   0.00000  Uiso   1.00
F1005  F     0.12955   0.76143   0.88309   0.00000  Uiso   1.00
F1006  F     0.20378   0.90524   0.61691   0.00000  Uiso   1.00
O1007  O     0.09896   0.72957   0.95649   0.00000  Uiso   1.00
H1008  H     0.08032   0.74630   0.93572   0.00000  Uiso   1.00
O1009  O     0.23437   0.93710   0.54351   0.00000  Uiso   1.00
H1010  H     0.25301   0.92037   0.56428   0.00000  Uiso   1.00
F1011  F     0.10572   0.72691   0.54425   0.00000  Uiso   1.00
F1012  F     0.22761   0.93975   0.95575   0.00000  Uiso   1.00
O1013  O     0.04153   0.79625   0.82350   0.00000  Uiso   1.00
H1014  H     0.07083   0.80599   0.82431   0.00000  Uiso   1.00
O1015  O     0.29180   0.87042   0.67650   0.00000  Uiso   1.00
H1016  H     0.26251   0.86068   0.67569   0.00000  Uiso   1.00
O1017  O     0.29294   0.79631   0.82354   0.00000  Uiso   1.00
H1018  H     0.26366   0.80610   0.82438   0.00000  Uiso   1.00
O1019  O     0.04039   0.87036   0.67647   0.00000  Uiso   1.00
H1020  H     0.06967   0.86056   0.67562   0.00000  Uiso   1.00
F1021  F     0.11338   0.71440   0.69642   0.00000  Uiso   1.00
F1022  F     0.21996   0.95227   0.80358   0.00000  Uiso   1.00
F1023  F     0.21964   0.71483   0.80396   0.00000  Uiso   1.00
F1024  F     0.11369   0.95183   0.69604   0.00000  Uiso   1.00
C1025  C     0.42088   0.83334   0.74998   0.00000  Uiso   1.00
C1026  C     0.57912   0.83333   0.75002   0.00000  Uiso   1.00
C1027  C     0.45918   0.76175   0.52284   0.00000  Uiso   1.00
C1028  C     0.54082   0.90492   0.97716   0.00000  Uiso   1.00
C1029  C     0.35508   0.81421   0.78646   0.00000  Uiso   1.00
C1030  C     0.64492   0.85245   0.71355   0.00000  Uiso   1.00
C1031  C     0.64548   0.81423   0.78647   0.00000  Uiso   1.00
C1032  C     0.35452   0.85244   0.71353   0.00000  Uiso   1.00
C1033  C     0.62369   0.83333   0.75001   0.00000  Uiso   1.00
C1034  C     0.37631   0.83333   0.74999   0.00000  Uiso   1.00
C1035  C     0.47351   0.69133   0.72321   0.00000  Uiso   1.00
C1036  C     0.52649   0.97534   0.77679   0.00000  Uiso   1.00
C1037  C     0.52645   0.69154   0.77685   0.00000  Uiso   1.00
C1038  C     0.47355   0.97512   0.72315   0.00000  Uiso   1.00
C1039  C     0.50007   0.83327   0.66437   0.00000  Uiso   1.00
C1040  C     0.49993   0.83340   0.83563   0.00000  Uiso   1.00
C1041  C     0.51878   0.86994   0.90731   0.00000  Uiso   1.00
C1042  C     0.48122   0.79673   0.59269   0.00000  Uiso   1.00
C1043  C     0.49940   0.83359   0.88400   0.00000  Uiso   1.00
C1044  C     0.50060   0.83308   0.61600   0.00000  Uiso   1.00
C1045  C     0.47967   0.79736   0.90668   0.00000  Uiso   1.00
C1046  C     0.52033   0.86931   0.59332   0.00000  Uiso   1.00
C1047  C     0.47806   0.79781   0.95314   0.00000  Uiso   1.00
C1048  C     0.52194   0.86885   0.54686   0.00000  Uiso   1.00
C1049  C     0.49939   0.83358   0.97668   0.00000  Uiso   1.00
C1050  C     0.50061   0.83309   0.52332   0.00000  Uiso   1.00
C1051  C     0.51953   0.86988   0.95360   0.00000  Uiso   1.00
C1052  C     0.48048   0.79678   0.54640   0.00000  Uiso   1.00
C1053  C     0.45666   0.76285   0.97688   0.00000  Uiso   1.00
C1054  C     0.54334   0.90382   0.52312   0.00000  Uiso   1.00
Cu1055 Cu    0.50000   0.88022   0.75000   0.00000  Uiso   1.00
Cu1056 Cu    0.50000   0.78645   0.75000   0.00000  Uiso   1.00
N1057  N     0.50000   0.95069   0.75000   0.00000  Uiso   1.00
N1058  N     0.50000   0.71598   0.75000   0.00000  Uiso   1.00
O1059  O     0.43988   0.87291   0.75000   0.00000  Uiso   1.00
O1060  O     0.56012   0.79375   0.75001   0.00000  Uiso   1.00
O1061  O     0.56012   0.87291   0.75001   0.00000  Uiso   1.00
O1062  O     0.43988   0.79375   0.75000   0.00000  Uiso   1.00
O1063  O     0.49999   0.87293   0.68513   0.00000  Uiso   1.00
O1064  O     0.50001   0.79373   0.81487   0.00000  Uiso   1.00
O1065  O     0.50001   0.87293   0.81487   0.00000  Uiso   1.00
O1066  O     0.49999   0.79373   0.68513   0.00000  Uiso   1.00
F1067  F     0.53861   0.90410   0.88464   0.00000  Uiso   1.00
F1068  F     0.46140   0.76257   0.61536   0.00000  Uiso   1.00
F1069  F     0.46289   0.76143   0.88309   0.00000  Uiso   1.00
F1070  F     0.53711   0.90524   0.61691   0.00000  Uiso   1.00
O1071  O     0.43229   0.72957   0.95649   0.00000  Uiso   1.00
H1072  H     0.41365   0.74630   0.93572   0.00000  Uiso   1.00
O1073  O     0.56770   0.93710   0.54351   0.00000  Uiso   1.00
H1074  H     0.58635   0.92037   0.56428   0.00000  Uiso   1.00
F1075  F     0.43906   0.72691   0.54425   0.00000  Uiso   1.00
F1076  F     0.56094   0.93975   0.95575   0.00000  Uiso   1.00
O1077  O     0.37486   0.79625   0.82350   0.00000  Uiso   1.00
H1078  H     0.40416   0.80599   0.82431   0.00000  Uiso   1.00
O1079  O     0.62514   0.87042   0.67650   0.00000  Uiso   1.00
H1080  H     0.59584   0.86068   0.67569   0.00000  Uiso   1.00
O1081  O     0.62628   0.79631   0.82354   0.00000  Uiso   1.00
H1082  H     0.59700   0.80610   0.82438   0.00000  Uiso   1.00
O1083  O     0.37372   0.87036   0.67647   0.00000  Uiso   1.00
H1084  H     0.40300   0.86056   0.67562   0.00000  Uiso   1.00
F1085  F     0.44671   0.71440   0.69642   0.00000  Uiso   1.00
F1086  F     0.55329   0.95227   0.80358   0.00000  Uiso   1.00
F1087  F     0.55297   0.71483   0.80396   0.00000  Uiso   1.00
F1088  F     0.44703   0.95183   0.69604   0.00000  Uiso   1.00
C1089  C     0.75421   0.83334   0.74998   0.00000  Uiso   1.00
C1090  C     0.91245   0.83333   0.75002   0.00000  Uiso   1.00
C1091  C     0.79251   0.76175   0.52284   0.00000  Uiso   1.00
C1092  C     0.87416   0.90492   0.97716   0.00000  Uiso   1.00
C1093  C     0.68842   0.81421   0.78646   0.00000  Uiso   1.00
C1094  C     0.97825   0.85245   0.71355   0.00000  Uiso   1.00
C1095  C     0.97882   0.81423   0.78647   0.00000  Uiso   1.00
C1096  C     0.68785   0.85244   0.71353   0.00000  Uiso   1.00
C1097  C     0.95703   0.83333   0.75001   0.00000  Uiso   1.00
C1098  C     0.70964   0.83333   0.74999   0.00000  Uiso   1.00
C1099  C     0.80684   0.69133   0.72321   0.00000  Uiso   1.00
C1100  C     0.85983   0.97534   0.77679   0.00000  Uiso   1.00
C1101  C     0.85978   0.69154   0.77685   0.00000  Uiso   1.00
C1102  C     0.80689   0.97512   0.72315   0.00000  Uiso   1.00
C1103  C     0.83341   0.83327   0.66437   0.00000  Uiso   1.00
C1104  C     0.83326   0.83340   0.83563   0.00000  Uiso   1.00
C1105  C     0.85211   0.86994   0.90731   0.00000  Uiso   1.00
C1106  C     0.81456   0.79673   0.59269   0.00000  Uiso   1.00
C1107  C     0.83273   0.83359   0.88400   0.00000  Uiso   1.00
C1108  C     0.83393   0.83308   0.61600   0.00000  Uiso   1.00
C1109  C     0.81300   0.79736   0.90668   0.00000  Uiso   1.00
C1110  C     0.85367   0.86931   0.59332   0.00000  Uiso   1.00
C1111  C     0.81139   0.79781   0.95314   0.00000  Uiso   1.00
C1112  C     0.85528   0.86885   0.54686   0.00000  Uiso   1.00
C1113  C     0.83272   0.83358   0.97668   0.00000  Uiso   1.00
C1114  C     0.83395   0.83309   0.52332   0.00000  Uiso   1.00
C1115  C     0.85286   0.86988   0.95360   0.00000  Uiso   1.00
C1116  C     0.81381   0.79678   0.54640   0.00000  Uiso   1.00
C1117  C     0.78999   0.76285   0.97688   0.00000  Uiso   1.00
C1118  C     0.87667   0.90382   0.52312   0.00000  Uiso   1.00
Cu1119 Cu    0.83333   0.88022   0.75000   0.00000  Uiso   1.00
Cu1120 Cu    0.83333   0.78645   0.75000   0.00000  Uiso   1.00
N1121  N     0.83333   0.95069   0.75000   0.00000  Uiso   1.00
N1122  N     0.83333   0.71598   0.75000   0.00000  Uiso   1.00
O1123  O     0.77321   0.87291   0.75000   0.00000  Uiso   1.00
O1124  O     0.89345   0.79375   0.75001   0.00000  Uiso   1.00
O1125  O     0.89345   0.87291   0.75001   0.00000  Uiso   1.00
O1126  O     0.77321   0.79375   0.75000   0.00000  Uiso   1.00
O1127  O     0.83332   0.87293   0.68513   0.00000  Uiso   1.00
O1128  O     0.83334   0.79373   0.81487   0.00000  Uiso   1.00
O1129  O     0.83334   0.87293   0.81487   0.00000  Uiso   1.00
O1130  O     0.83332   0.79373   0.68513   0.00000  Uiso   1.00
F1131  F     0.87194   0.90410   0.88464   0.00000  Uiso   1.00
F1132  F     0.79473   0.76257   0.61536   0.00000  Uiso   1.00
F1133  F     0.79622   0.76143   0.88309   0.00000  Uiso   1.00
F1134  F     0.87044   0.90524   0.61691   0.00000  Uiso   1.00
O1135  O     0.76563   0.72957   0.95649   0.00000  Uiso   1.00
H1136  H     0.74699   0.74630   0.93572   0.00000  Uiso   1.00
O1137  O     0.90104   0.93710   0.54351   0.00000  Uiso   1.00
H1138  H     0.91968   0.92037   0.56428   0.00000  Uiso   1.00
F1139  F     0.77239   0.72691   0.54425   0.00000  Uiso   1.00
F1140  F     0.89428   0.93975   0.95575   0.00000  Uiso   1.00
O1141  O     0.70820   0.79625   0.82350   0.00000  Uiso   1.00
H1142  H     0.73749   0.80599   0.82431   0.00000  Uiso   1.00
O1143  O     0.95847   0.87042   0.67650   0.00000  Uiso   1.00
H1144  H     0.92917   0.86068   0.67569   0.00000  Uiso   1.00
O1145  O     0.95961   0.79631   0.82354   0.00000  Uiso   1.00
H1146  H     0.93033   0.80610   0.82438   0.00000  Uiso   1.00
O1147  O     0.70706   0.87036   0.67647   0.00000  Uiso   1.00
H1148  H     0.73633   0.86056   0.67562   0.00000  Uiso   1.00
F1149  F     0.78004   0.71440   0.69642   0.00000  Uiso   1.00
F1150  F     0.88662   0.95227   0.80358   0.00000  Uiso   1.00
F1151  F     0.88631   0.71483   0.80396   0.00000  Uiso   1.00
F1152  F     0.78036   0.95183   0.69604   0.00000  Uiso   1.00
loop_
_geom_bond_atom_site_label_1
_geom_bond_atom_site_label_2
_geom_bond_distance
_geom_bond_site_symmetry_2
_ccdc_geom_bond_type
C1     O38     1.288   .     A
C1     O35     1.289   .     A
C1     C10     1.442   .     S
C2     O37     1.288   .     A
C2     O36     1.289   .     A
C2     C9      1.442   .     S
C3     C28     1.405   .     A
C3     F51     1.359   .     S
C3     C605    1.391   1_554 S
C4     C27     1.405   .     A
C4     F52     1.359   .     S
C4     C606    1.391   .     S
C5     O53     1.385   .     S
C5     C10     1.415   .     A
C5     C135    1.389   1_455 S
C6     O55     1.385   .     S
C6     C9      1.415   .     A
C6     C72     1.389   .     S
C7     C9      1.415   .     A
C7     O57     1.385   .     S
C7     C69     1.389   .     S
C8     O59     1.385   .     S
C8     C10     1.415   .     A
C8     C134    1.389   1_455 S
C11    F61     1.355   .     S
C11    N34     1.368   .     A
C11    C398    1.417   1_545 S
C12    F62     1.355   .     S
C12    N33     1.368   .     A
C12    C205    1.417   .     S
C13    F63     1.355   .     S
C13    N34     1.368   .     A
C13    C396    1.417   1_545 S
C14    F64     1.355   .     S
C14    N33     1.368   .     A
C14    C203    1.417   .     S
C15    O39     1.295   .     A
C15    C20     1.462   .     S
C15    O42     1.295   .     A
C16    C19     1.462   .     S
C16    O40     1.295   .     A
C16    O41     1.295   .     A
C17    F43     1.360   .     S
C17    C27     1.399   .     A
C17    C19     1.399   .     A
C18    F44     1.360   .     S
C18    C20     1.399   .     A
C18    C28     1.399   .     A
C19    C21     1.402   .     A
C20    C22     1.402   .     A
C21    F45     1.359   .     S
C21    C23     1.405   .     A
C22    F46     1.359   .     S
C22    C24     1.405   .     A
C23    C29     1.417   .     A
C23    C25     1.420   .     A
C24    C30     1.417   .     A
C24    C26     1.420   .     A
C25    C27     1.415   .     A
C25    C602    1.410   .     S
C26    C28     1.415   .     A
C26    C601    1.410   1_554 S
C29    O47     1.377   .     S
C29    C579    1.391   .     S
C30    O49     1.377   .     S
C30    C580    1.391   1_554 S
Cu31   N33     2.016   .     S
Cu31   O35     1.956   .     S
Cu31   O37     1.956   .     S
Cu31   O39     1.971   .     S
Cu31   O41     1.972   .     S
Cu31   Cu32    2.683   .     S
Cu32   O38     1.956   .     S
Cu32   O36     1.956   .     S
Cu32   O40     1.971   .     S
Cu32   O42     1.972   .     S
Cu32   N34     2.016   .     S
O47    H48     0.991   .     S
O49    H50     0.991   .     S
O53    H54     0.988   .     S
O55    H56     0.988   .     S
O57    H58     0.988   .     S
O59    H60     0.988   .     S
C65    O102    1.288   .     A
C65    O99     1.289   .     A
C65    C74     1.442   .     S
C66    O101    1.288   .     A
C66    O100    1.289   .     A
C66    C73     1.442   .     S
C67    C92     1.405   .     A
C67    F115    1.359   .     S
C67    C669    1.391   1_554 S
C68    C91     1.405   .     A
C68    F116    1.359   .     S
C68    C670    1.391   .     S
C69    O117    1.385   .     S
C69    C74     1.415   .     A
C70    O119    1.385   .     S
C70    C73     1.415   .     A
C70    C136    1.389   .     S
C71    C73     1.415   .     A
C71    O121    1.385   .     S
C71    C133    1.389   .     S
C72    O123    1.385   .     S
C72    C74     1.415   .     A
C75    F125    1.355   .     S
C75    N98     1.368   .     A
C75    C462    1.417   1_545 S
C76    F126    1.355   .     S
C76    N97     1.368   .     A
C76    C269    1.417   .     S
C77    F127    1.355   .     S
C77    N98     1.368   .     A
C77    C460    1.417   1_545 S
C78    F128    1.355   .     S
C78    N97     1.368   .     A
C78    C267    1.417   .     S
C79    O103    1.295   .     A
C79    C84     1.462   .     S
C79    O106    1.295   .     A
C80    C83     1.462   .     S
C80    O104    1.295   .     A
C80    O105    1.295   .     A
C81    F107    1.360   .     S
C81    C91     1.399   .     A
C81    C83     1.399   .     A
C82    F108    1.360   .     S
C82    C84     1.399   .     A
C82    C92     1.399   .     A
C83    C85     1.402   .     A
C84    C86     1.402   .     A
C85    F109    1.359   .     S
C85    C87     1.405   .     A
C86    F110    1.359   .     S
C86    C88     1.405   .     A
C87    C93     1.417   .     A
C87    C89     1.420   .     A
C88    C94     1.417   .     A
C88    C90     1.420   .     A
C89    C91     1.415   .     A
C89    C666    1.410   .     S
C90    C92     1.415   .     A
C90    C665    1.410   1_554 S
C93    O111    1.377   .     S
C93    C643    1.391   .     S
C94    O113    1.377   .     S
C94    C644    1.391   1_554 S
Cu95   N97     2.016   .     S
Cu95   O99     1.956   .     S
Cu95   O101    1.956   .     S
Cu95   O103    1.971   .     S
Cu95   O105    1.972   .     S
Cu95   Cu96    2.683   .     S
Cu96   O102    1.956   .     S
Cu96   O100    1.956   .     S
Cu96   O104    1.971   .     S
Cu96   O106    1.972   .     S
Cu96   N98     2.016   .     S
O111   H112    0.991   .     S
O113   H114    0.991   .     S
O117   H118    0.988   .     S
O119   H120    0.988   .     S
O121   H122    0.988   .     S
O123   H124    0.988   .     S
C129   O166    1.288   .     A
C129   O163    1.289   .     A
C129   C138    1.442   .     S
C130   O165    1.288   .     A
C130   O164    1.289   .     A
C130   C137    1.442   .     S
C131   C156    1.405   .     A
C131   F179    1.359   .     S
C131   C733    1.391   1_554 S
C132   C155    1.405   .     A
C132   F180    1.359   .     S
C132   C734    1.391   .     S
C133   O181    1.385   .     S
C133   C138    1.415   .     A
C134   O183    1.385   .     S
C134   C137    1.415   .     A
C134   C8      1.389   1_655 S
C135   C137    1.415   .     A
C135   O185    1.385   .     S
C135   C5      1.389   1_655 S
C136   O187    1.385   .     S
C136   C138    1.415   .     A
C139   F189    1.355   .     S
C139   N162    1.368   .     A
C139   C526    1.417   1_545 S
C140   F190    1.355   .     S
C140   N161    1.368   .     A
C140   C333    1.417   .     S
C141   F191    1.355   .     S
C141   N162    1.368   .     A
C141   C524    1.417   1_545 S
C142   F192    1.355   .     S
C142   N161    1.368   .     A
C142   C331    1.417   .     S
C143   O167    1.295   .     A
C143   C148    1.462   .     S
C143   O170    1.295   .     A
C144   C147    1.462   .     S
C144   O168    1.295   .     A
C144   O169    1.295   .     A
C145   F171    1.360   .     S
C145   C155    1.399   .     A
C145   C147    1.399   .     A
C146   F172    1.360   .     S
C146   C148    1.399   .     A
C146   C156    1.399   .     A
C147   C149    1.402   .     A
C148   C150    1.402   .     A
C149   F173    1.359   .     S
C149   C151    1.405   .     A
C150   F174    1.359   .     S
C150   C152    1.405   .     A
C151   C157    1.417   .     A
C151   C153    1.420   .     A
C152   C158    1.417   .     A
C152   C154    1.420   .     A
C153   C155    1.415   .     A
C153   C730    1.410   .     S
C154   C156    1.415   .     A
C154   C729    1.410   1_554 S
C157   O175    1.377   .     S
C157   C707    1.391   .     S
C158   O177    1.377   .     S
C158   C708    1.391   1_554 S
Cu159  N161    2.016   .     S
Cu159  O163    1.956   .     S
Cu159  O165    1.956   .     S
Cu159  O167    1.971   .     S
Cu159  O169    1.972   .     S
Cu159  Cu160   2.683   .     S
Cu160  O166    1.956   .     S
Cu160  O164    1.956   .     S
Cu160  O168    1.971   .     S
Cu160  O170    1.972   .     S
Cu160  N162    2.016   .     S
O175   H176    0.991   .     S
O177   H178    0.991   .     S
O181   H182    0.988   .     S
O183   H184    0.988   .     S
O185   H186    0.988   .     S
O187   H188    0.988   .     S
C193   O230    1.288   .     A
C193   O227    1.289   .     A
C193   C202    1.442   .     S
C194   O229    1.288   .     A
C194   O228    1.289   .     A
C194   C201    1.442   .     S
C195   C220    1.405   .     A
C195   F243    1.359   .     S
C195   C797    1.391   1_554 S
C196   C219    1.405   .     A
C196   F244    1.359   .     S
C196   C798    1.391   .     S
C197   O245    1.385   .     S
C197   C202    1.415   .     A
C197   C327    1.389   1_455 S
C198   O247    1.385   .     S
C198   C201    1.415   .     A
C198   C264    1.389   .     S
C199   C201    1.415   .     A
C199   O249    1.385   .     S
C199   C261    1.389   .     S
C200   O251    1.385   .     S
C200   C202    1.415   .     A
C200   C326    1.389   1_455 S
C203   F253    1.355   .     S
C203   N226    1.368   .     A
C204   F254    1.355   .     S
C204   N225    1.368   .     A
C204   C397    1.417   .     S
C205   F255    1.355   .     S
C205   N226    1.368   .     A
C206   F256    1.355   .     S
C206   N225    1.368   .     A
C206   C395    1.417   .     S
C207   O231    1.295   .     A
C207   C212    1.462   .     S
C207   O234    1.295   .     A
C208   C211    1.462   .     S
C208   O232    1.295   .     A
C208   O233    1.295   .     A
C209   F235    1.360   .     S
C209   C219    1.399   .     A
C209   C211    1.399   .     A
C210   F236    1.360   .     S
C210   C212    1.399   .     A
C210   C220    1.399   .     A
C211   C213    1.402   .     A
C212   C214    1.402   .     A
C213   F237    1.359   .     S
C213   C215    1.405   .     A
C214   F238    1.359   .     S
C214   C216    1.405   .     A
C215   C221    1.417   .     A
C215   C217    1.420   .     A
C216   C222    1.417   .     A
C216   C218    1.420   .     A
C217   C219    1.415   .     A
C217   C794    1.410   .     S
C218   C220    1.415   .     A
C218   C793    1.410   1_554 S
C221   O239    1.377   .     S
C221   C771    1.391   .     S
C222   O241    1.377   .     S
C222   C772    1.391   1_554 S
Cu223  N225    2.016   .     S
Cu223  O227    1.956   .     S
Cu223  O229    1.956   .     S
Cu223  O231    1.971   .     S
Cu223  O233    1.972   .     S
Cu223  Cu224   2.683   .     S
Cu224  O230    1.956   .     S
Cu224  O228    1.956   .     S
Cu224  O232    1.971   .     S
Cu224  O234    1.972   .     S
Cu224  N226    2.016   .     S
O239   H240    0.991   .     S
O241   H242    0.991   .     S
O245   H246    0.988   .     S
O247   H248    0.988   .     S
O249   H250    0.988   .     S
O251   H252    0.988   .     S
C257   O294    1.288   .     A
C257   O291    1.289   .     A
C257   C266    1.442   .     S
C258   O293    1.288   .     A
C258   O292    1.289   .     A
C258   C265    1.442   .     S
C259   C284    1.405   .     A
C259   F307    1.359   .     S
C259   C861    1.391   1_554 S
C260   C283    1.405   .     A
C260   F308    1.359   .     S
C260   C862    1.391   .     S
C261   O309    1.385   .     S
C261   C266    1.415   .     A
C262   O311    1.385   .     S
C262   C265    1.415   .     A
C262   C328    1.389   .     S
C263   C265    1.415   .     A
C263   O313    1.385   .     S
C263   C325    1.389   .     S
C264   O315    1.385   .     S
C264   C266    1.415   .     A
C267   F317    1.355   .     S
C267   N290    1.368   .     A
C268   F318    1.355   .     S
C268   N289    1.368   .     A
C268   C461    1.417   .     S
C269   F319    1.355   .     S
C269   N290    1.368   .     A
C270   F320    1.355   .     S
C270   N289    1.368   .     A
C270   C459    1.417   .     S
C271   O295    1.295   .     A
C271   C276    1.462   .     S
C271   O298    1.295   .     A
C272   C275    1.462   .     S
C272   O296    1.295   .     A
C272   O297    1.295   .     A
C273   F299    1.360   .     S
C273   C283    1.399   .     A
C273   C275    1.399   .     A
C274   F300    1.360   .     S
C274   C276    1.399   .     A
C274   C284    1.399   .     A
C275   C277    1.402   .     A
C276   C278    1.402   .     A
C277   F301    1.359   .     S
C277   C279    1.405   .     A
C278   F302    1.359   .     S
C278   C280    1.405   .     A
C279   C285    1.417   .     A
C279   C281    1.420   .     A
C280   C286    1.417   .     A
C280   C282    1.420   .     A
C281   C283    1.415   .     A
C281   C858    1.410   .     S
C282   C284    1.415   .     A
C282   C857    1.410   1_554 S
C285   O303    1.377   .     S
C285   C835    1.391   .     S
C286   O305    1.377   .     S
C286   C836    1.391   1_554 S
Cu287  N289    2.016   .     S
Cu287  O291    1.956   .     S
Cu287  O293    1.956   .     S
Cu287  O295    1.971   .     S
Cu287  O297    1.972   .     S
Cu287  Cu288   2.683   .     S
Cu288  O294    1.956   .     S
Cu288  O292    1.956   .     S
Cu288  O296    1.971   .     S
Cu288  O298    1.972   .     S
Cu288  N290    2.016   .     S
O303   H304    0.991   .     S
O305   H306    0.991   .     S
O309   H310    0.988   .     S
O311   H312    0.988   .     S
O313   H314    0.988   .     S
O315   H316    0.988   .     S
C321   O358    1.288   .     A
C321   O355    1.289   .     A
C321   C330    1.442   .     S
C322   O357    1.288   .     A
C322   O356    1.289   .     A
C322   C329    1.442   .     S
C323   C348    1.405   .     A
C323   F371    1.359   .     S
C323   C925    1.391   1_554 S
C324   C347    1.405   .     A
C324   F372    1.359   .     S
C324   C926    1.391   .     S
C325   O373    1.385   .     S
C325   C330    1.415   .     A
C326   O375    1.385   .     S
C326   C329    1.415   .     A
C326   C200    1.389   1_655 S
C327   C329    1.415   .     A
C327   O377    1.385   .     S
C327   C197    1.389   1_655 S
C328   O379    1.385   .     S
C328   C330    1.415   .     A
C331   F381    1.355   .     S
C331   N354    1.368   .     A
C332   F382    1.355   .     S
C332   N353    1.368   .     A
C332   C525    1.417   .     S
C333   F383    1.355   .     S
C333   N354    1.368   .     A
C334   F384    1.355   .     S
C334   N353    1.368   .     A
C334   C523    1.417   .     S
C335   O359    1.295   .     A
C335   C340    1.462   .     S
C335   O362    1.295   .     A
C336   C339    1.462   .     S
C336   O360    1.295   .     A
C336   O361    1.295   .     A
C337   F363    1.360   .     S
C337   C347    1.399   .     A
C337   C339    1.399   .     A
C338   F364    1.360   .     S
C338   C340    1.399   .     A
C338   C348    1.399   .     A
C339   C341    1.402   .     A
C340   C342    1.402   .     A
C341   F365    1.359   .     S
C341   C343    1.405   .     A
C342   F366    1.359   .     S
C342   C344    1.405   .     A
C343   C349    1.417   .     A
C343   C345    1.420   .     A
C344   C350    1.417   .     A
C344   C346    1.420   .     A
C345   C347    1.415   .     A
C345   C922    1.410   .     S
C346   C348    1.415   .     A
C346   C921    1.410   1_554 S
C349   O367    1.377   .     S
C349   C899    1.391   .     S
C350   O369    1.377   .     S
C350   C900    1.391   1_554 S
Cu351  N353    2.016   .     S
Cu351  O355    1.956   .     S
Cu351  O357    1.956   .     S
Cu351  O359    1.971   .     S
Cu351  O361    1.972   .     S
Cu351  Cu352   2.683   .     S
Cu352  O358    1.956   .     S
Cu352  O356    1.956   .     S
Cu352  O360    1.971   .     S
Cu352  O362    1.972   .     S
Cu352  N354    2.016   .     S
O367   H368    0.991   .     S
O369   H370    0.991   .     S
O373   H374    0.988   .     S
O375   H376    0.988   .     S
O377   H378    0.988   .     S
O379   H380    0.988   .     S
C385   O422    1.288   .     A
C385   O419    1.289   .     A
C385   C394    1.442   .     S
C386   O421    1.288   .     A
C386   O420    1.289   .     A
C386   C393    1.442   .     S
C387   C412    1.405   .     A
C387   F435    1.359   .     S
C387   C989    1.391   1_554 S
C388   C411    1.405   .     A
C388   F436    1.359   .     S
C388   C990    1.391   .     S
C389   O437    1.385   .     S
C389   C394    1.415   .     A
C389   C519    1.389   1_455 S
C390   O439    1.385   .     S
C390   C393    1.415   .     A
C390   C456    1.389   .     S
C391   C393    1.415   .     A
C391   O441    1.385   .     S
C391   C453    1.389   .     S
C392   O443    1.385   .     S
C392   C394    1.415   .     A
C392   C518    1.389   1_455 S
C395   F445    1.355   .     S
C395   N418    1.368   .     A
C396   F446    1.355   .     S
C396   N417    1.368   .     A
C396   C13     1.417   1_565 S
C397   F447    1.355   .     S
C397   N418    1.368   .     A
C398   F448    1.355   .     S
C398   N417    1.368   .     A
C398   C11     1.417   1_565 S
C399   O423    1.295   .     A
C399   C404    1.462   .     S
C399   O426    1.295   .     A
C400   C403    1.462   .     S
C400   O424    1.295   .     A
C400   O425    1.295   .     A
C401   F427    1.360   .     S
C401   C411    1.399   .     A
C401   C403    1.399   .     A
C402   F428    1.360   .     S
C402   C404    1.399   .     A
C402   C412    1.399   .     A
C403   C405    1.402   .     A
C404   C406    1.402   .     A
C405   F429    1.359   .     S
C405   C407    1.405   .     A
C406   F430    1.359   .     S
C406   C408    1.405   .     A
C407   C413    1.417   .     A
C407   C409    1.420   .     A
C408   C414    1.417   .     A
C408   C410    1.420   .     A
C409   C411    1.415   .     A
C409   C986    1.410   .     S
C410   C412    1.415   .     A
C410   C985    1.410   1_554 S
C413   O431    1.377   .     S
C413   C963    1.391   .     S
C414   O433    1.377   .     S
C414   C964    1.391   1_554 S
Cu415  N417    2.016   .     S
Cu415  O419    1.956   .     S
Cu415  O421    1.956   .     S
Cu415  O423    1.971   .     S
Cu415  O425    1.972   .     S
Cu415  Cu416   2.683   .     S
Cu416  O422    1.956   .     S
Cu416  O420    1.956   .     S
Cu416  O424    1.971   .     S
Cu416  O426    1.972   .     S
Cu416  N418    2.016   .     S
O431   H432    0.991   .     S
O433   H434    0.991   .     S
O437   H438    0.988   .     S
O439   H440    0.988   .     S
O441   H442    0.988   .     S
O443   H444    0.988   .     S
C449   O486    1.288   .     A
C449   O483    1.289   .     A
C449   C458    1.442   .     S
C450   O485    1.288   .     A
C450   O484    1.289   .     A
C450   C457    1.442   .     S
C451   C476    1.405   .     A
C451   F499    1.359   .     S
C451   C1053   1.391   1_554 S
C452   C475    1.405   .     A
C452   F500    1.359   .     S
C452   C1054   1.391   .     S
C453   O501    1.385   .     S
C453   C458    1.415   .     A
C454   O503    1.385   .     S
C454   C457    1.415   .     A
C454   C520    1.389   .     S
C455   C457    1.415   .     A
C455   O505    1.385   .     S
C455   C517    1.389   .     S
C456   O507    1.385   .     S
C456   C458    1.415   .     A
C459   F509    1.355   .     S
C459   N482    1.368   .     A
C460   F510    1.355   .     S
C460   N481    1.368   .     A
C460   C77     1.417   1_565 S
C461   F511    1.355   .     S
C461   N482    1.368   .     A
C462   F512    1.355   .     S
C462   N481    1.368   .     A
C462   C75     1.417   1_565 S
C463   O487    1.295   .     A
C463   C468    1.462   .     S
C463   O490    1.295   .     A
C464   C467    1.462   .     S
C464   O488    1.295   .     A
C464   O489    1.295   .     A
C465   F491    1.360   .     S
C465   C475    1.399   .     A
C465   C467    1.399   .     A
C466   F492    1.360   .     S
C466   C468    1.399   .     A
C466   C476    1.399   .     A
C467   C469    1.402   .     A
C468   C470    1.402   .     A
C469   F493    1.359   .     S
C469   C471    1.405   .     A
C470   F494    1.359   .     S
C470   C472    1.405   .     A
C471   C477    1.417   .     A
C471   C473    1.420   .     A
C472   C478    1.417   .     A
C472   C474    1.420   .     A
C473   C475    1.415   .     A
C473   C1050   1.410   .     S
C474   C476    1.415   .     A
C474   C1049   1.410   1_554 S
C477   O495    1.377   .     S
C477   C1027   1.391   .     S
C478   O497    1.377   .     S
C478   C1028   1.391   1_554 S
Cu479  N481    2.016   .     S
Cu479  O483    1.956   .     S
Cu479  O485    1.956   .     S
Cu479  O487    1.971   .     S
Cu479  O489    1.972   .     S
Cu479  Cu480   2.683   .     S
Cu480  O486    1.956   .     S
Cu480  O484    1.956   .     S
Cu480  O488    1.971   .     S
Cu480  O490    1.972   .     S
Cu480  N482    2.016   .     S
O495   H496    0.991   .     S
O497   H498    0.991   .     S
O501   H502    0.988   .     S
O503   H504    0.988   .     S
O505   H506    0.988   .     S
O507   H508    0.988   .     S
C513   O550    1.288   .     A
C513   O547    1.289   .     A
C513   C522    1.442   .     S
C514   O549    1.288   .     A
C514   O548    1.289   .     A
C514   C521    1.442   .     S
C515   C540    1.405   .     A
C515   F563    1.359   .     S
C515   C1117   1.391   1_554 S
C516   C539    1.405   .     A
C516   F564    1.359   .     S
C516   C1118   1.391   .     S
C517   O565    1.385   .     S
C517   C522    1.415   .     A
C518   O567    1.385   .     S
C518   C521    1.415   .     A
C518   C392    1.389   1_655 S
C519   C521    1.415   .     A
C519   O569    1.385   .     S
C519   C389    1.389   1_655 S
C520   O571    1.385   .     S
C520   C522    1.415   .     A
C523   F573    1.355   .     S
C523   N546    1.368   .     A
C524   F574    1.355   .     S
C524   N545    1.368   .     A
C524   C141    1.417   1_565 S
C525   F575    1.355   .     S
C525   N546    1.368   .     A
C526   F576    1.355   .     S
C526   N545    1.368   .     A
C526   C139    1.417   1_565 S
C527   O551    1.295   .     A
C527   C532    1.462   .     S
C527   O554    1.295   .     A
C528   C531    1.462   .     S
C528   O552    1.295   .     A
C528   O553    1.295   .     A
C529   F555    1.360   .     S
C529   C539    1.399   .     A
C529   C531    1.399   .     A
C530   F556    1.360   .     S
C530   C532    1.399   .     A
C530   C540    1.399   .     A
C531   C533    1.402   .     A
C532   C534    1.402   .     A
C533   F557    1.359   .     S
C533   C535    1.405   .     A
C534   F558    1.359   .     S
C534   C536    1.405   .     A
C535   C541    1.417   .     A
C535   C537    1.420   .     A
C536   C542    1.417   .     A
C536   C538    1.420   .     A
C537   C539    1.415   .     A
C537   C1114   1.410   .     S
C538   C540    1.415   .     A
C538   C1113   1.410   1_554 S
C541   O559    1.377   .     S
C541   C1091   1.391   .     S
C542   O561    1.377   .     S
C542   C1092   1.391   1_554 S
Cu543  N545    2.016   .     S
Cu543  O547    1.956   .     S
Cu543  O549    1.956   .     S
Cu543  O551    1.971   .     S
Cu543  O553    1.972   .     S
Cu543  Cu544   2.683   .     S
Cu544  O550    1.956   .     S
Cu544  O548    1.956   .     S
Cu544  O552    1.971   .     S
Cu544  O554    1.972   .     S
Cu544  N546    2.016   .     S
O559   H560    0.991   .     S
O561   H562    0.991   .     S
O565   H566    0.988   .     S
O567   H568    0.988   .     S
O569   H570    0.988   .     S
O571   H572    0.988   .     S
C577   O614    1.288   .     A
C577   O611    1.289   .     A
C577   C586    1.442   .     S
C578   O613    1.288   .     A
C578   O612    1.289   .     A
C578   C585    1.442   .     S
C579   C604    1.405   .     A
C579   F627    1.359   .     S
C580   C603    1.405   .     A
C580   F628    1.359   .     S
C580   C30     1.391   1_556 S
C581   O629    1.385   .     S
C581   C586    1.415   .     A
C581   C711    1.389   1_455 S
C582   O631    1.385   .     S
C582   C585    1.415   .     A
C582   C648    1.389   .     S
C583   C585    1.415   .     A
C583   O633    1.385   .     S
C583   C645    1.389   .     S
C584   O635    1.385   .     S
C584   C586    1.415   .     A
C584   C710    1.389   1_455 S
C587   F637    1.355   .     S
C587   N610    1.368   .     A
C587   C974    1.417   1_545 S
C588   F638    1.355   .     S
C588   N609    1.368   .     A
C588   C781    1.417   .     S
C589   F639    1.355   .     S
C589   N610    1.368   .     A
C589   C972    1.417   1_545 S
C590   F640    1.355   .     S
C590   N609    1.368   .     A
C590   C779    1.417   .     S
C591   O615    1.295   .     A
C591   C596    1.462   .     S
C591   O618    1.295   .     A
C592   C595    1.462   .     S
C592   O616    1.295   .     A
C592   O617    1.295   .     A
C593   F619    1.360   .     S
C593   C603    1.399   .     A
C593   C595    1.399   .     A
C594   F620    1.360   .     S
C594   C596    1.399   .     A
C594   C604    1.399   .     A
C595   C597    1.402   .     A
C596   C598    1.402   .     A
C597   F621    1.359   .     S
C597   C599    1.405   .     A
C598   F622    1.359   .     S
C598   C600    1.405   .     A
C599   C605    1.417   .     A
C599   C601    1.420   .     A
C600   C606    1.417   .     A
C600   C602    1.420   .     A
C601   C603    1.415   .     A
C601   C26     1.410   1_556 S
C602   C604    1.415   .     A
C605   O623    1.377   .     S
C605   C3      1.391   1_556 S
C606   O625    1.377   .     S
Cu607  N609    2.016   .     S
Cu607  O611    1.956   .     S
Cu607  O613    1.956   .     S
Cu607  O615    1.971   .     S
Cu607  O617    1.972   .     S
Cu607  Cu608   2.683   .     S
Cu608  O614    1.956   .     S
Cu608  O612    1.956   .     S
Cu608  O616    1.971   .     S
Cu608  O618    1.972   .     S
Cu608  N610    2.016   .     S
O623   H624    0.991   .     S
O625   H626    0.991   .     S
O629   H630    0.988   .     S
O631   H632    0.988   .     S
O633   H634    0.988   .     S
O635   H636    0.988   .     S
C641   O678    1.288   .     A
C641   O675    1.289   .     A
C641   C650    1.442   .     S
C642   O677    1.288   .     A
C642   O676    1.289   .     A
C642   C649    1.442   .     S
C643   C668    1.405   .     A
C643   F691    1.359   .     S
C644   C667    1.405   .     A
C644   F692    1.359   .     S
C644   C94     1.391   1_556 S
C645   O693    1.385   .     S
C645   C650    1.415   .     A
C646   O695    1.385   .     S
C646   C649    1.415   .     A
C646   C712    1.389   .     S
C647   C649    1.415   .     A
C647   O697    1.385   .     S
C647   C709    1.389   .     S
C648   O699    1.385   .     S
C648   C650    1.415   .     A
C651   F701    1.355   .     S
C651   N674    1.368   .     A
C651   C1038   1.417   1_545 S
C652   F702    1.355   .     S
C652   N673    1.368   .     A
C652   C845    1.417   .     S
C653   F703    1.355   .     S
C653   N674    1.368   .     A
C653   C1036   1.417   1_545 S
C654   F704    1.355   .     S
C654   N673    1.368   .     A
C654   C843    1.417   .     S
C655   O679    1.295   .     A
C655   C660    1.462   .     S
C655   O682    1.295   .     A
C656   C659    1.462   .     S
C656   O680    1.295   .     A
C656   O681    1.295   .     A
C657   F683    1.360   .     S
C657   C667    1.399   .     A
C657   C659    1.399   .     A
C658   F684    1.360   .     S
C658   C660    1.399   .     A
C658   C668    1.399   .     A
C659   C661    1.402   .     A
C660   C662    1.402   .     A
C661   F685    1.359   .     S
C661   C663    1.405   .     A
C662   F686    1.359   .     S
C662   C664    1.405   .     A
C663   C669    1.417   .     A
C663   C665    1.420   .     A
C664   C670    1.417   .     A
C664   C666    1.420   .     A
C665   C667    1.415   .     A
C665   C90     1.410   1_556 S
C666   C668    1.415   .     A
C669   O687    1.377   .     S
C669   C67     1.391   1_556 S
C670   O689    1.377   .     S
Cu671  N673    2.016   .     S
Cu671  O675    1.956   .     S
Cu671  O677    1.956   .     S
Cu671  O679    1.971   .     S
Cu671  O681    1.972   .     S
Cu671  Cu672   2.683   .     S
Cu672  O678    1.956   .     S
Cu672  O676    1.956   .     S
Cu672  O680    1.971   .     S
Cu672  O682    1.972   .     S
Cu672  N674    2.016   .     S
O687   H688    0.991   .     S
O689   H690    0.991   .     S
O693   H694    0.988   .     S
O695   H696    0.988   .     S
O697   H698    0.988   .     S
O699   H700    0.988   .     S
C705   O742    1.288   .     A
C705   O739    1.289   .     A
C705   C714    1.442   .     S
C706   O741    1.288   .     A
C706   O740    1.289   .     A
C706   C713    1.442   .     S
C707   C732    1.405   .     A
C707   F755    1.359   .     S
C708   C731    1.405   .     A
C708   F756    1.359   .     S
C708   C158    1.391   1_556 S
C709   O757    1.385   .     S
C709   C714    1.415   .     A
C710   O759    1.385   .     S
C710   C713    1.415   .     A
C710   C584    1.389   1_655 S
C711   C713    1.415   .     A
C711   O761    1.385   .     S
C711   C581    1.389   1_655 S
C712   O763    1.385   .     S
C712   C714    1.415   .     A
C715   F765    1.355   .     S
C715   N738    1.368   .     A
C715   C1102   1.417   1_545 S
C716   F766    1.355   .     S
C716   N737    1.368   .     A
C716   C909    1.417   .     S
C717   F767    1.355   .     S
C717   N738    1.368   .     A
C717   C1100   1.417   1_545 S
C718   F768    1.355   .     S
C718   N737    1.368   .     A
C718   C907    1.417   .     S
C719   O743    1.295   .     A
C719   C724    1.462   .     S
C719   O746    1.295   .     A
C720   C723    1.462   .     S
C720   O744    1.295   .     A
C720   O745    1.295   .     A
C721   F747    1.360   .     S
C721   C731    1.399   .     A
C721   C723    1.399   .     A
C722   F748    1.360   .     S
C722   C724    1.399   .     A
C722   C732    1.399   .     A
C723   C725    1.402   .     A
C724   C726    1.402   .     A
C725   F749    1.359   .     S
C725   C727    1.405   .     A
C726   F750    1.359   .     S
C726   C728    1.405   .     A
C727   C733    1.417   .     A
C727   C729    1.420   .     A
C728   C734    1.417   .     A
C728   C730    1.420   .     A
C729   C731    1.415   .     A
C729   C154    1.410   1_556 S
C730   C732    1.415   .     A
C733   O751    1.377   .     S
C733   C131    1.391   1_556 S
C734   O753    1.377   .     S
Cu735  N737    2.016   .     S
Cu735  O739    1.956   .     S
Cu735  O741    1.956   .     S
Cu735  O743    1.971   .     S
Cu735  O745    1.972   .     S
Cu735  Cu736   2.683   .     S
Cu736  O742    1.956   .     S
Cu736  O740    1.956   .     S
Cu736  O744    1.971   .     S
Cu736  O746    1.972   .     S
Cu736  N738    2.016   .     S
O751   H752    0.991   .     S
O753   H754    0.991   .     S
O757   H758    0.988   .     S
O759   H760    0.988   .     S
O761   H762    0.988   .     S
O763   H764    0.988   .     S
C769   O806    1.288   .     A
C769   O803    1.289   .     A
C769   C778    1.442   .     S
C770   O805    1.288   .     A
C770   O804    1.289   .     A
C770   C777    1.442   .     S
C771   C796    1.405   .     A
C771   F819    1.359   .     S
C772   C795    1.405   .     A
C772   F820    1.359   .     S
C772   C222    1.391   1_556 S
C773   O821    1.385   .     S
C773   C778    1.415   .     A
C773   C903    1.389   1_455 S
C774   O823    1.385   .     S
C774   C777    1.415   .     A
C774   C840    1.389   .     S
C775   C777    1.415   .     A
C775   O825    1.385   .     S
C775   C837    1.389   .     S
C776   O827    1.385   .     S
C776   C778    1.415   .     A
C776   C902    1.389   1_455 S
C779   F829    1.355   .     S
C779   N802    1.368   .     A
C780   F830    1.355   .     S
C780   N801    1.368   .     A
C780   C973    1.417   .     S
C781   F831    1.355   .     S
C781   N802    1.368   .     A
C782   F832    1.355   .     S
C782   N801    1.368   .     A
C782   C971    1.417   .     S
C783   O807    1.295   .     A
C783   C788    1.462   .     S
C783   O810    1.295   .     A
C784   C787    1.462   .     S
C784   O808    1.295   .     A
C784   O809    1.295   .     A
C785   F811    1.360   .     S
C785   C795    1.399   .     A
C785   C787    1.399   .     A
C786   F812    1.360   .     S
C786   C788    1.399   .     A
C786   C796    1.399   .     A
C787   C789    1.402   .     A
C788   C790    1.402   .     A
C789   F813    1.359   .     S
C789   C791    1.405   .     A
C790   F814    1.359   .     S
C790   C792    1.405   .     A
C791   C797    1.417   .     A
C791   C793    1.420   .     A
C792   C798    1.417   .     A
C792   C794    1.420   .     A
C793   C795    1.415   .     A
C793   C218    1.410   1_556 S
C794   C796    1.415   .     A
C797   O815    1.377   .     S
C797   C195    1.391   1_556 S
C798   O817    1.377   .     S
Cu799  N801    2.016   .     S
Cu799  O803    1.956   .     S
Cu799  O805    1.956   .     S
Cu799  O807    1.971   .     S
Cu799  O809    1.972   .     S
Cu799  Cu800   2.683   .     S
Cu800  O806    1.956   .     S
Cu800  O804    1.956   .     S
Cu800  O808    1.971   .     S
Cu800  O810    1.972   .     S
Cu800  N802    2.016   .     S
O815   H816    0.991   .     S
O817   H818    0.991   .     S
O821   H822    0.988   .     S
O823   H824    0.988   .     S
O825   H826    0.988   .     S
O827   H828    0.988   .     S
C833   O870    1.288   .     A
C833   O867    1.289   .     A
C833   C842    1.442   .     S
C834   O869    1.288   .     A
C834   O868    1.289   .     A
C834   C841    1.442   .     S
C835   C860    1.405   .     A
C835   F883    1.359   .     S
C836   C859    1.405   .     A
C836   F884    1.359   .     S
C836   C286    1.391   1_556 S
C837   O885    1.385   .     S
C837   C842    1.415   .     A
C838   O887    1.385   .     S
C838   C841    1.415   .     A
C838   C904    1.389   .     S
C839   C841    1.415   .     A
C839   O889    1.385   .     S
C839   C901    1.389   .     S
C840   O891    1.385   .     S
C840   C842    1.415   .     A
C843   F893    1.355   .     S
C843   N866    1.368   .     A
C844   F894    1.355   .     S
C844   N865    1.368   .     A
C844   C1037   1.417   .     S
C845   F895    1.355   .     S
C845   N866    1.368   .     A
C846   F896    1.355   .     S
C846   N865    1.368   .     A
C846   C1035   1.417   .     S
C847   O871    1.295   .     A
C847   C852    1.462   .     S
C847   O874    1.295   .     A
C848   C851    1.462   .     S
C848   O872    1.295   .     A
C848   O873    1.295   .     A
C849   F875    1.360   .     S
C849   C859    1.399   .     A
C849   C851    1.399   .     A
C850   F876    1.360   .     S
C850   C852    1.399   .     A
C850   C860    1.399   .     A
C851   C853    1.402   .     A
C852   C854    1.402   .     A
C853   F877    1.359   .     S
C853   C855    1.405   .     A
C854   F878    1.359   .     S
C854   C856    1.405   .     A
C855   C861    1.417   .     A
C855   C857    1.420   .     A
C856   C862    1.417   .     A
C856   C858    1.420   .     A
C857   C859    1.415   .     A
C857   C282    1.410   1_556 S
C858   C860    1.415   .     A
C861   O879    1.377   .     S
C861   C259    1.391   1_556 S
C862   O881    1.377   .     S
Cu863  N865    2.016   .     S
Cu863  O867    1.956   .     S
Cu863  O869    1.956   .     S
Cu863  O871    1.971   .     S
Cu863  O873    1.972   .     S
Cu863  Cu864   2.683   .     S
Cu864  O870    1.956   .     S
Cu864  O868    1.956   .     S
Cu864  O872    1.971   .     S
Cu864  O874    1.972   .     S
Cu864  N866    2.016   .     S
O879   H880    0.991   .     S
O881   H882    0.991   .     S
O885   H886    0.988   .     S
O887   H888    0.988   .     S
O889   H890    0.988   .     S
O891   H892    0.988   .     S
C897   O934    1.288   .     A
C897   O931    1.289   .     A
C897   C906    1.442   .     S
C898   O933    1.288   .     A
C898   O932    1.289   .     A
C898   C905    1.442   .     S
C899   C924    1.405   .     A
C899   F947    1.359   .     S
C900   C923    1.405   .     A
C900   F948    1.359   .     S
C900   C350    1.391   1_556 S
C901   O949    1.385   .     S
C901   C906    1.415   .     A
C902   O951    1.385   .     S
C902   C905    1.415   .     A
C902   C776    1.389   1_655 S
C903   C905    1.415   .     A
C903   O953    1.385   .     S
C903   C773    1.389   1_655 S
C904   O955    1.385   .     S
C904   C906    1.415   .     A
C907   F957    1.355   .     S
C907   N930    1.368   .     A
C908   F958    1.355   .     S
C908   N929    1.368   .     A
C908   C1101   1.417   .     S
C909   F959    1.355   .     S
C909   N930    1.368   .     A
C910   F960    1.355   .     S
C910   N929    1.368   .     A
C910   C1099   1.417   .     S
C911   O935    1.295   .     A
C911   C916    1.462   .     S
C911   O938    1.295   .     A
C912   C915    1.462   .     S
C912   O936    1.295   .     A
C912   O937    1.295   .     A
C913   F939    1.360   .     S
C913   C923    1.399   .     A
C913   C915    1.399   .     A
C914   F940    1.360   .     S
C914   C916    1.399   .     A
C914   C924    1.399   .     A
C915   C917    1.402   .     A
C916   C918    1.402   .     A
C917   F941    1.359   .     S
C917   C919    1.405   .     A
C918   F942    1.359   .     S
C918   C920    1.405   .     A
C919   C925    1.417   .     A
C919   C921    1.420   .     A
C920   C926    1.417   .     A
C920   C922    1.420   .     A
C921   C923    1.415   .     A
C921   C346    1.410   1_556 S
C922   C924    1.415   .     A
C925   O943    1.377   .     S
C925   C323    1.391   1_556 S
C926   O945    1.377   .     S
Cu927  N929    2.016   .     S
Cu927  O931    1.956   .     S
Cu927  O933    1.956   .     S
Cu927  O935    1.971   .     S
Cu927  O937    1.972   .     S
Cu927  Cu928   2.683   .     S
Cu928  O934    1.956   .     S
Cu928  O932    1.956   .     S
Cu928  O936    1.971   .     S
Cu928  O938    1.972   .     S
Cu928  N930    2.016   .     S
O943   H944    0.991   .     S
O945   H946    0.991   .     S
O949   H950    0.988   .     S
O951   H952    0.988   .     S
O953   H954    0.988   .     S
O955   H956    0.988   .     S
C961   O998    1.288   .     A
C961   O995    1.289   .     A
C961   C970    1.442   .     S
C962   O997    1.288   .     A
C962   O996    1.289   .     A
C962   C969    1.442   .     S
C963   C988    1.405   .     A
C963   F1011   1.359   .     S
C964   C987    1.405   .     A
C964   F1012   1.359   .     S
C964   C414    1.391   1_556 S
C965   O1013   1.385   .     S
C965   C970    1.415   .     A
C965   C1095   1.389   1_455 S
C966   O1015   1.385   .     S
C966   C969    1.415   .     A
C966   C1032   1.389   .     S
C967   C969    1.415   .     A
C967   O1017   1.385   .     S
C967   C1029   1.389   .     S
C968   O1019   1.385   .     S
C968   C970    1.415   .     A
C968   C1094   1.389   1_455 S
C971   F1021   1.355   .     S
C971   N994    1.368   .     A
C972   F1022   1.355   .     S
C972   N993    1.368   .     A
C972   C589    1.417   1_565 S
C973   F1023   1.355   .     S
C973   N994    1.368   .     A
C974   F1024   1.355   .     S
C974   N993    1.368   .     A
C974   C587    1.417   1_565 S
C975   O999    1.295   .     A
C975   C980    1.462   .     S
C975   O1002   1.295   .     A
C976   C979    1.462   .     S
C976   O1000   1.295   .     A
C976   O1001   1.295   .     A
C977   F1003   1.360   .     S
C977   C987    1.399   .     A
C977   C979    1.399   .     A
C978   F1004   1.360   .     S
C978   C980    1.399   .     A
C978   C988    1.399   .     A
C979   C981    1.402   .     A
C980   C982    1.402   .     A
C981   F1005   1.359   .     S
C981   C983    1.405   .     A
C982   F1006   1.359   .     S
C982   C984    1.405   .     A
C983   C989    1.417   .     A
C983   C985    1.420   .     A
C984   C990    1.417   .     A
C984   C986    1.420   .     A
C985   C987    1.415   .     A
C985   C410    1.410   1_556 S
C986   C988    1.415   .     A
C989   O1007   1.377   .     S
C989   C387    1.391   1_556 S
C990   O1009   1.377   .     S
Cu991  N993    2.016   .     S
Cu991  O995    1.956   .     S
Cu991  O997    1.956   .     S
Cu991  O999    1.971   .     S
Cu991  O1001   1.972   .     S
Cu991  Cu992   2.683   .     S
Cu992  O998    1.956   .     S
Cu992  O996    1.956   .     S
Cu992  O1000   1.971   .     S
Cu992  O1002   1.972   .     S
Cu992  N994    2.016   .     S
O1007  H1008   0.991   .     S
O1009  H1010   0.991   .     S
O1013  H1014   0.988   .     S
O1015  H1016   0.988   .     S
O1017  H1018   0.988   .     S
O1019  H1020   0.988   .     S
C1025  O1062   1.288   .     A
C1025  O1059   1.289   .     A
C1025  C1034   1.442   .     S
C1026  O1061   1.288   .     A
C1026  O1060   1.289   .     A
C1026  C1033   1.442   .     S
C1027  C1052   1.405   .     A
C1027  F1075   1.359   .     S
C1028  C1051   1.405   .     A
C1028  F1076   1.359   .     S
C1028  C478    1.391   1_556 S
C1029  O1077   1.385   .     S
C1029  C1034   1.415   .     A
C1030  O1079   1.385   .     S
C1030  C1033   1.415   .     A
C1030  C1096   1.389   .     S
C1031  C1033   1.415   .     A
C1031  O1081   1.385   .     S
C1031  C1093   1.389   .     S
C1032  O1083   1.385   .     S
C1032  C1034   1.415   .     A
C1035  F1085   1.355   .     S
C1035  N1058   1.368   .     A
C1036  F1086   1.355   .     S
C1036  N1057   1.368   .     A
C1036  C653    1.417   1_565 S
C1037  F1087   1.355   .     S
C1037  N1058   1.368   .     A
C1038  F1088   1.355   .     S
C1038  N1057   1.368   .     A
C1038  C651    1.417   1_565 S
C1039  O1063   1.295   .     A
C1039  C1044   1.462   .     S
C1039  O1066   1.295   .     A
C1040  C1043   1.462   .     S
C1040  O1064   1.295   .     A
C1040  O1065   1.295   .     A
C1041  F1067   1.360   .     S
C1041  C1051   1.399   .     A
C1041  C1043   1.399   .     A
C1042  F1068   1.360   .     S
C1042  C1044   1.399   .     A
C1042  C1052   1.399   .     A
C1043  C1045   1.402   .     A
C1044  C1046   1.402   .     A
C1045  F1069   1.359   .     S
C1045  C1047   1.405   .     A
C1046  F1070   1.359   .     S
C1046  C1048   1.405   .     A
C1047  C1053   1.417   .     A
C1047  C1049   1.420   .     A
C1048  C1054   1.417   .     A
C1048  C1050   1.420   .     A
C1049  C1051   1.415   .     A
C1049  C474    1.410   1_556 S
C1050  C1052   1.415   .     A
C1053  O1071   1.377   .     S
C1053  C451    1.391   1_556 S
C1054  O1073   1.377   .     S
Cu1055 N1057   2.016   .     S
Cu1055 O1059   1.956   .     S
Cu1055 O1061   1.956   .     S
Cu1055 O1063   1.971   .     S
Cu1055 O1065   1.972   .     S
Cu1055 Cu1056  2.683   .     S
Cu1056 O1062   1.956   .     S
Cu1056 O1060   1.956   .     S
Cu1056 O1064   1.971   .     S
Cu1056 O1066   1.972   .     S
Cu1056 N1058   2.016   .     S
O1071  H1072   0.991   .     S
O1073  H1074   0.991   .     S
O1077  H1078   0.988   .     S
O1079  H1080   0.988   .     S
O1081  H1082   0.988   .     S
O1083  H1084   0.988   .     S
C1089  O1126   1.288   .     A
C1089  O1123   1.289   .     A
C1089  C1098   1.442   .     S
C1090  O1125   1.288   .     A
C1090  O1124   1.289   .     A
C1090  C1097   1.442   .     S
C1091  C1116   1.405   .     A
C1091  F1139   1.359   .     S
C1092  C1115   1.405   .     A
C1092  F1140   1.359   .     S
C1092  C542    1.391   1_556 S
C1093  O1141   1.385   .     S
C1093  C1098   1.415   .     A
C1094  O1143   1.385   .     S
C1094  C1097   1.415   .     A
C1094  C968    1.389   1_655 S
C1095  C1097   1.415   .     A
C1095  O1145   1.385   .     S
C1095  C965    1.389   1_655 S
C1096  O1147   1.385   .     S
C1096  C1098   1.415   .     A
C1099  F1149   1.355   .     S
C1099  N1122   1.368   .     A
C1100  F1150   1.355   .     S
C1100  N1121   1.368   .     A
C1100  C717    1.417   1_565 S
C1101  F1151   1.355   .     S
C1101  N1122   1.368   .     A
C1102  F1152   1.355   .     S
C1102  N1121   1.368   .     A
C1102  C715    1.417   1_565 S
C1103  O1127   1.295   .     A
C1103  C1108   1.462   .     S
C1103  O1130   1.295   .     A
C1104  C1107   1.462   .     S
C1104  O1128   1.295   .     A
C1104  O1129   1.295   .     A
C1105  F1131   1.360   .     S
C1105  C1115   1.399   .     A
C1105  C1107   1.399   .     A
C1106  F1132   1.360   .     S
C1106  C1108   1.399   .     A
C1106  C1116   1.399   .     A
C1107  C1109   1.402   .     A
C1108  C1110   1.402   .     A
C1109  F1133   1.359   .     S
C1109  C1111   1.405   .     A
C1110  F1134   1.359   .     S
C1110  C1112   1.405   .     A
C1111  C1117   1.417   .     A
C1111  C1113   1.420   .     A
C1112  C1118   1.417   .     A
C1112  C1114   1.420   .     A
C1113  C1115   1.415   .     A
C1113  C538    1.410   1_556 S
C1114  C1116   1.415   .     A
C1117  O1135   1.377   .     S
C1117  C515    1.391   1_556 S
C1118  O1137   1.377   .     S
Cu1119 N1121   2.016   .     S
Cu1119 O1123   1.956   .     S
Cu1119 O1125   1.956   .     S
Cu1119 O1127   1.971   .     S
Cu1119 O1129   1.972   .     S
Cu1119 Cu1120  2.683   .     S
Cu1120 O1126   1.956   .     S
Cu1120 O1124   1.956   .     S
Cu1120 O1128   1.971   .     S
Cu1120 O1130   1.972   .     S
Cu1120 N1122   2.016   .     S
O1135  H1136   0.991   .     S
O1137  H1138   0.991   .     S
O1141  H1142   0.988   .     S
O1143  H1144   0.988   .     S
O1145  H1146   0.988   .     S
O1147  H1148   0.988   .     S
