data_str_m2_o1_o16_pcu_sym.66
_audit_creation_date              2020-01-03
_audit_creation_method            'Materials Studio'
_symmetry_space_group_name_H-M    'P1'
_symmetry_Int_Tables_number       1
_symmetry_cell_setting            triclinic
loop_
_symmetry_equiv_pos_as_xyz
  x,y,z
_cell_length_a                    28.5204
_cell_length_b                    32.5029
_cell_length_c                    26.9044
_cell_angle_alpha                 90.1822
_cell_angle_beta                  71.9171
_cell_angle_gamma                 89.9915
loop_
_atom_site_label
_atom_site_type_symbol
_atom_site_fract_x
_atom_site_fract_y
_atom_site_fract_z
_atom_site_U_iso_or_equiv
_atom_site_adp_type
_atom_site_occupancy
C1     C     0.16665   0.24599   0.25010   0.00000  Uiso   1.00
C2     C     0.12234   0.16926   0.40890   0.00000  Uiso   1.00
C3     C     0.20909   0.31205   0.25065   0.00000  Uiso   1.00
C4     C     0.13981   0.16848   0.35055   0.00000  Uiso   1.00
C5     C     0.20911   0.02128   0.25058   0.00000  Uiso   1.00
C6     C     0.16663   0.04273   0.25012   0.00000  Uiso   1.00
C7     C     0.12412   0.02128   0.24979   0.00000  Uiso   1.00
C8     C     0.12410   0.31205   0.24985   0.00000  Uiso   1.00
C9     C     0.16661   0.29060   0.25022   0.00000  Uiso   1.00
C10    C     0.30005   0.19466   0.27914   0.00000  Uiso   1.00
C11    C     0.01626   0.19452   0.27935   0.00000  Uiso   1.00
C12    C     0.14562   0.16704   0.48970   0.00000  Uiso   1.00
C13    C     0.03345   0.13891   0.22043   0.00000  Uiso   1.00
C14    C     0.31713   0.13890   0.22049   0.00000  Uiso   1.00
C15    C     0.16665   0.08734   0.25002   0.00000  Uiso   1.00
C16    C     0.19320   0.16686   0.14985   0.00000  Uiso   1.00
C17    C     0.26296   0.20005   0.01329   0.00000  Uiso   1.00
C18    C     0.20879   0.17089   0.09289   0.00000  Uiso   1.00
C19    C     0.07417   0.15513   0.43747   0.00000  Uiso   1.00
C20    C     0.06356   0.14563   0.49031   0.00000  Uiso   1.00
C21    C     0.09875   0.15019   0.01559   0.00000  Uiso   1.00
C22    C     0.03311   0.15119   0.41474   0.00000  Uiso   1.00
C23    C     0.15592   0.17933   0.43680   0.00000  Uiso   1.00
C24    C     0.18208   0.17322   0.01516   0.00000  Uiso   1.00
C25    C     0.22695   0.19339   0.48846   0.00000  Uiso   1.00
C26    C     0.23444   0.20843   0.43822   0.00000  Uiso   1.00
C27    C     0.19888   0.20262   0.41350   0.00000  Uiso   1.00
C28    C     0.17485   0.16095   0.06697   0.00000  Uiso   1.00
C29    C     0.25375   0.18915   0.06549   0.00000  Uiso   1.00
Cu30   Cu    0.11978   0.16666   0.25000   0.00000  Uiso   1.00
Cu31   Cu    0.21355   0.16667   0.25000   0.00000  Uiso   1.00
H32    H     0.24233   0.03729   0.25087   0.00000  Uiso   1.00
H33    H     0.08681   0.14178   0.05623   0.00000  Uiso   1.00
H34    H     0.02727   0.13461   0.01265   0.00000  Uiso   1.00
H35    H     0.20468   0.21807   0.37666   0.00000  Uiso   1.00
H36    H     0.24229   0.29603   0.25102   0.00000  Uiso   1.00
H37    H     0.28061   0.19680   0.08501   0.00000  Uiso   1.00
H38    H     0.29736   0.21527   0.49298   0.00000  Uiso   1.00
H39    H     0.02872   0.17323   0.38640   0.00000  Uiso   1.00
H40    H     0.09091   0.03729   0.24944   0.00000  Uiso   1.00
H41    H     0.09088   0.29604   0.24956   0.00000  Uiso   1.00
H42    H     0.27475   0.21734   0.30210   0.00000  Uiso   1.00
H43    H     0.02811   0.21683   0.30286   0.00000  Uiso   1.00
H44    H     0.05910   0.11672   0.19670   0.00000  Uiso   1.00
H45    H     0.30531   0.11670   0.19682   0.00000  Uiso   1.00
H46    H     0.26745   0.22566   0.41834   0.00000  Uiso   1.00
H47    H     0.14233   0.14462   0.08909   0.00000  Uiso   1.00
N48    N     0.04931   0.16666   0.24998   0.00000  Uiso   1.00
N49    N     0.28402   0.16669   0.24999   0.00000  Uiso   1.00
O50    O     0.12708   0.22678   0.25000   0.00000  Uiso   1.00
O51    O     0.20627   0.22679   0.25000   0.00000  Uiso   1.00
O52    O     0.10775   0.16665   0.32549   0.00000  Uiso   1.00
O53    O     0.18694   0.16666   0.32549   0.00000  Uiso   1.00
O54    O     0.12706   0.10654   0.24999   0.00000  Uiso   1.00
O55    O     0.20625   0.10655   0.24999   0.00000  Uiso   1.00
O56    O     0.14640   0.16667   0.17451   0.00000  Uiso   1.00
O57    O     0.22559   0.16668   0.17451   0.00000  Uiso   1.00
O58    O     0.00235   0.12400   0.42916   0.00000  Uiso   1.00
C59    C     0.49998   0.24599   0.25010   0.00000  Uiso   1.00
C60    C     0.45567   0.16926   0.40890   0.00000  Uiso   1.00
C61    C     0.54242   0.31205   0.25065   0.00000  Uiso   1.00
C62    C     0.47314   0.16848   0.35055   0.00000  Uiso   1.00
C63    C     0.54244   0.02128   0.25058   0.00000  Uiso   1.00
C64    C     0.49996   0.04273   0.25012   0.00000  Uiso   1.00
C65    C     0.45745   0.02128   0.24979   0.00000  Uiso   1.00
C66    C     0.45744   0.31205   0.24985   0.00000  Uiso   1.00
C67    C     0.49994   0.29060   0.25022   0.00000  Uiso   1.00
C68    C     0.63338   0.19466   0.27914   0.00000  Uiso   1.00
C69    C     0.34959   0.19452   0.27935   0.00000  Uiso   1.00
C70    C     0.47895   0.16704   0.48970   0.00000  Uiso   1.00
C71    C     0.36678   0.13891   0.22043   0.00000  Uiso   1.00
C72    C     0.65046   0.13890   0.22049   0.00000  Uiso   1.00
C73    C     0.49998   0.08734   0.25002   0.00000  Uiso   1.00
C74    C     0.52654   0.16686   0.14985   0.00000  Uiso   1.00
C75    C     0.59629   0.20005   0.01329   0.00000  Uiso   1.00
C76    C     0.54212   0.17089   0.09289   0.00000  Uiso   1.00
C77    C     0.40750   0.15513   0.43747   0.00000  Uiso   1.00
C78    C     0.39689   0.14563   0.49031   0.00000  Uiso   1.00
C79    C     0.43208   0.15019   0.01559   0.00000  Uiso   1.00
C80    C     0.36645   0.15119   0.41474   0.00000  Uiso   1.00
C81    C     0.48925   0.17933   0.43680   0.00000  Uiso   1.00
C82    C     0.51542   0.17322   0.01516   0.00000  Uiso   1.00
C83    C     0.56028   0.19339   0.48846   0.00000  Uiso   1.00
C84    C     0.56777   0.20843   0.43822   0.00000  Uiso   1.00
C85    C     0.53222   0.20262   0.41350   0.00000  Uiso   1.00
C86    C     0.50818   0.16095   0.06697   0.00000  Uiso   1.00
C87    C     0.58708   0.18915   0.06549   0.00000  Uiso   1.00
Cu88   Cu    0.45311   0.16666   0.25000   0.00000  Uiso   1.00
Cu89   Cu    0.54689   0.16667   0.25000   0.00000  Uiso   1.00
H90    H     0.57567   0.03729   0.25087   0.00000  Uiso   1.00
H91    H     0.42015   0.14178   0.05623   0.00000  Uiso   1.00
H92    H     0.36060   0.13461   0.01265   0.00000  Uiso   1.00
H93    H     0.53802   0.21807   0.37666   0.00000  Uiso   1.00
H94    H     0.57563   0.29603   0.25102   0.00000  Uiso   1.00
H95    H     0.61394   0.19680   0.08501   0.00000  Uiso   1.00
H96    H     0.63069   0.21527   0.49298   0.00000  Uiso   1.00
H97    H     0.36205   0.17323   0.38640   0.00000  Uiso   1.00
H98    H     0.42424   0.03729   0.24944   0.00000  Uiso   1.00
H99    H     0.42421   0.29604   0.24956   0.00000  Uiso   1.00
H100   H     0.60808   0.21734   0.30210   0.00000  Uiso   1.00
H101   H     0.36144   0.21683   0.30286   0.00000  Uiso   1.00
H102   H     0.39243   0.11672   0.19670   0.00000  Uiso   1.00
H103   H     0.63865   0.11670   0.19682   0.00000  Uiso   1.00
H104   H     0.60078   0.22566   0.41834   0.00000  Uiso   1.00
H105   H     0.47566   0.14462   0.08909   0.00000  Uiso   1.00
N106   N     0.38265   0.16666   0.24998   0.00000  Uiso   1.00
N107   N     0.61735   0.16669   0.24999   0.00000  Uiso   1.00
O108   O     0.46042   0.22678   0.25000   0.00000  Uiso   1.00
O109   O     0.53961   0.22679   0.25000   0.00000  Uiso   1.00
O110   O     0.44108   0.16665   0.32549   0.00000  Uiso   1.00
O111   O     0.52027   0.16666   0.32549   0.00000  Uiso   1.00
O112   O     0.46039   0.10654   0.24999   0.00000  Uiso   1.00
O113   O     0.53958   0.10655   0.24999   0.00000  Uiso   1.00
O114   O     0.47973   0.16667   0.17451   0.00000  Uiso   1.00
O115   O     0.55892   0.16668   0.17451   0.00000  Uiso   1.00
O116   O     0.33569   0.12400   0.42916   0.00000  Uiso   1.00
C117   C     0.83331   0.24599   0.25010   0.00000  Uiso   1.00
C118   C     0.78901   0.16926   0.40890   0.00000  Uiso   1.00
C119   C     0.87576   0.31205   0.25065   0.00000  Uiso   1.00
C120   C     0.80647   0.16848   0.35055   0.00000  Uiso   1.00
C121   C     0.87577   0.02128   0.25058   0.00000  Uiso   1.00
C122   C     0.83330   0.04273   0.25012   0.00000  Uiso   1.00
C123   C     0.79079   0.02128   0.24979   0.00000  Uiso   1.00
C124   C     0.79077   0.31205   0.24985   0.00000  Uiso   1.00
C125   C     0.83327   0.29060   0.25022   0.00000  Uiso   1.00
C126   C     0.96672   0.19466   0.27914   0.00000  Uiso   1.00
C127   C     0.68293   0.19452   0.27935   0.00000  Uiso   1.00
C128   C     0.81229   0.16704   0.48970   0.00000  Uiso   1.00
C129   C     0.70012   0.13891   0.22043   0.00000  Uiso   1.00
C130   C     0.98379   0.13890   0.22049   0.00000  Uiso   1.00
C131   C     0.83332   0.08734   0.25002   0.00000  Uiso   1.00
C132   C     0.85987   0.16686   0.14985   0.00000  Uiso   1.00
C133   C     0.92963   0.20005   0.01329   0.00000  Uiso   1.00
C134   C     0.87545   0.17089   0.09289   0.00000  Uiso   1.00
C135   C     0.74083   0.15513   0.43747   0.00000  Uiso   1.00
C136   C     0.73022   0.14563   0.49031   0.00000  Uiso   1.00
C137   C     0.76542   0.15019   0.01559   0.00000  Uiso   1.00
C138   C     0.69978   0.15119   0.41474   0.00000  Uiso   1.00
C139   C     0.82258   0.17933   0.43680   0.00000  Uiso   1.00
C140   C     0.84875   0.17322   0.01516   0.00000  Uiso   1.00
C141   C     0.89362   0.19339   0.48846   0.00000  Uiso   1.00
C142   C     0.90110   0.20843   0.43822   0.00000  Uiso   1.00
C143   C     0.86555   0.20262   0.41350   0.00000  Uiso   1.00
C144   C     0.84151   0.16095   0.06697   0.00000  Uiso   1.00
C145   C     0.92042   0.18915   0.06549   0.00000  Uiso   1.00
Cu146  Cu    0.78645   0.16666   0.25000   0.00000  Uiso   1.00
Cu147  Cu    0.88022   0.16667   0.25000   0.00000  Uiso   1.00
H148   H     0.90900   0.03729   0.25087   0.00000  Uiso   1.00
H149   H     0.75348   0.14178   0.05623   0.00000  Uiso   1.00
H150   H     0.69394   0.13461   0.01265   0.00000  Uiso   1.00
H151   H     0.87135   0.21807   0.37666   0.00000  Uiso   1.00
H152   H     0.90896   0.29603   0.25102   0.00000  Uiso   1.00
H153   H     0.94728   0.19680   0.08501   0.00000  Uiso   1.00
H154   H     0.96402   0.21527   0.49298   0.00000  Uiso   1.00
H155   H     0.69539   0.17323   0.38640   0.00000  Uiso   1.00
H156   H     0.75757   0.03729   0.24944   0.00000  Uiso   1.00
H157   H     0.75755   0.29604   0.24956   0.00000  Uiso   1.00
H158   H     0.94142   0.21734   0.30210   0.00000  Uiso   1.00
H159   H     0.69477   0.21683   0.30286   0.00000  Uiso   1.00
H160   H     0.72577   0.11672   0.19670   0.00000  Uiso   1.00
H161   H     0.97198   0.11670   0.19682   0.00000  Uiso   1.00
H162   H     0.93412   0.22566   0.41834   0.00000  Uiso   1.00
H163   H     0.80899   0.14462   0.08909   0.00000  Uiso   1.00
N164   N     0.71598   0.16666   0.24998   0.00000  Uiso   1.00
N165   N     0.95069   0.16669   0.24999   0.00000  Uiso   1.00
O166   O     0.79375   0.22678   0.25000   0.00000  Uiso   1.00
O167   O     0.87294   0.22679   0.25000   0.00000  Uiso   1.00
O168   O     0.77441   0.16665   0.32549   0.00000  Uiso   1.00
O169   O     0.85360   0.16666   0.32549   0.00000  Uiso   1.00
O170   O     0.79373   0.10654   0.24999   0.00000  Uiso   1.00
O171   O     0.87292   0.10655   0.24999   0.00000  Uiso   1.00
O172   O     0.81306   0.16667   0.17451   0.00000  Uiso   1.00
O173   O     0.89225   0.16668   0.17451   0.00000  Uiso   1.00
O174   O     0.66902   0.12400   0.42916   0.00000  Uiso   1.00
C175   C     0.16665   0.57932   0.25010   0.00000  Uiso   1.00
C176   C     0.12234   0.50259   0.40890   0.00000  Uiso   1.00
C177   C     0.20909   0.64538   0.25065   0.00000  Uiso   1.00
C178   C     0.13981   0.50181   0.35055   0.00000  Uiso   1.00
C179   C     0.20911   0.35461   0.25058   0.00000  Uiso   1.00
C180   C     0.16663   0.37607   0.25012   0.00000  Uiso   1.00
C181   C     0.12412   0.35461   0.24979   0.00000  Uiso   1.00
C182   C     0.12410   0.64538   0.24985   0.00000  Uiso   1.00
C183   C     0.16661   0.62393   0.25022   0.00000  Uiso   1.00
C184   C     0.30005   0.52800   0.27914   0.00000  Uiso   1.00
C185   C     0.01626   0.52785   0.27935   0.00000  Uiso   1.00
C186   C     0.14562   0.50037   0.48970   0.00000  Uiso   1.00
C187   C     0.03345   0.47225   0.22043   0.00000  Uiso   1.00
C188   C     0.31713   0.47223   0.22049   0.00000  Uiso   1.00
C189   C     0.16665   0.42068   0.25002   0.00000  Uiso   1.00
C190   C     0.19320   0.50020   0.14985   0.00000  Uiso   1.00
C191   C     0.26296   0.53338   0.01329   0.00000  Uiso   1.00
C192   C     0.20879   0.50422   0.09289   0.00000  Uiso   1.00
C193   C     0.07417   0.48846   0.43747   0.00000  Uiso   1.00
C194   C     0.06356   0.47896   0.49031   0.00000  Uiso   1.00
C195   C     0.09875   0.48353   0.01559   0.00000  Uiso   1.00
C196   C     0.03311   0.48452   0.41474   0.00000  Uiso   1.00
C197   C     0.15592   0.51267   0.43680   0.00000  Uiso   1.00
C198   C     0.18208   0.50655   0.01516   0.00000  Uiso   1.00
C199   C     0.22695   0.52672   0.48846   0.00000  Uiso   1.00
C200   C     0.23444   0.54176   0.43822   0.00000  Uiso   1.00
C201   C     0.19888   0.53595   0.41350   0.00000  Uiso   1.00
C202   C     0.17485   0.49428   0.06697   0.00000  Uiso   1.00
C203   C     0.25375   0.52248   0.06549   0.00000  Uiso   1.00
Cu204  Cu    0.11978   0.49999   0.25000   0.00000  Uiso   1.00
Cu205  Cu    0.21355   0.50001   0.25000   0.00000  Uiso   1.00
H206   H     0.24233   0.37062   0.25087   0.00000  Uiso   1.00
H207   H     0.08681   0.47511   0.05623   0.00000  Uiso   1.00
H208   H     0.02727   0.46794   0.01265   0.00000  Uiso   1.00
H209   H     0.20468   0.55140   0.37666   0.00000  Uiso   1.00
H210   H     0.24229   0.62937   0.25102   0.00000  Uiso   1.00
H211   H     0.28061   0.53013   0.08501   0.00000  Uiso   1.00
H212   H     0.29736   0.54860   0.49298   0.00000  Uiso   1.00
H213   H     0.02872   0.50656   0.38640   0.00000  Uiso   1.00
H214   H     0.09091   0.37063   0.24944   0.00000  Uiso   1.00
H215   H     0.09088   0.62937   0.24956   0.00000  Uiso   1.00
H216   H     0.27475   0.55067   0.30210   0.00000  Uiso   1.00
H217   H     0.02811   0.55017   0.30286   0.00000  Uiso   1.00
H218   H     0.05910   0.45005   0.19670   0.00000  Uiso   1.00
H219   H     0.30531   0.45003   0.19682   0.00000  Uiso   1.00
H220   H     0.26745   0.55899   0.41834   0.00000  Uiso   1.00
H221   H     0.14233   0.47795   0.08909   0.00000  Uiso   1.00
N222   N     0.04931   0.49999   0.24998   0.00000  Uiso   1.00
N223   N     0.28402   0.50002   0.24999   0.00000  Uiso   1.00
O224   O     0.12708   0.56011   0.25000   0.00000  Uiso   1.00
O225   O     0.20627   0.56012   0.25000   0.00000  Uiso   1.00
O226   O     0.10775   0.49998   0.32549   0.00000  Uiso   1.00
O227   O     0.18694   0.49999   0.32549   0.00000  Uiso   1.00
O228   O     0.12706   0.43988   0.24999   0.00000  Uiso   1.00
O229   O     0.20625   0.43989   0.24999   0.00000  Uiso   1.00
O230   O     0.14640   0.50001   0.17451   0.00000  Uiso   1.00
O231   O     0.22559   0.50002   0.17451   0.00000  Uiso   1.00
O232   O     0.00235   0.45734   0.42916   0.00000  Uiso   1.00
C233   C     0.49998   0.57932   0.25010   0.00000  Uiso   1.00
C234   C     0.45567   0.50259   0.40890   0.00000  Uiso   1.00
C235   C     0.54242   0.64538   0.25065   0.00000  Uiso   1.00
C236   C     0.47314   0.50181   0.35055   0.00000  Uiso   1.00
C237   C     0.54244   0.35461   0.25058   0.00000  Uiso   1.00
C238   C     0.49996   0.37607   0.25012   0.00000  Uiso   1.00
C239   C     0.45745   0.35461   0.24979   0.00000  Uiso   1.00
C240   C     0.45744   0.64538   0.24985   0.00000  Uiso   1.00
C241   C     0.49994   0.62393   0.25022   0.00000  Uiso   1.00
C242   C     0.63338   0.52800   0.27914   0.00000  Uiso   1.00
C243   C     0.34959   0.52785   0.27935   0.00000  Uiso   1.00
C244   C     0.47895   0.50037   0.48970   0.00000  Uiso   1.00
C245   C     0.36678   0.47225   0.22043   0.00000  Uiso   1.00
C246   C     0.65046   0.47223   0.22049   0.00000  Uiso   1.00
C247   C     0.49998   0.42068   0.25002   0.00000  Uiso   1.00
C248   C     0.52654   0.50020   0.14985   0.00000  Uiso   1.00
C249   C     0.59629   0.53338   0.01329   0.00000  Uiso   1.00
C250   C     0.54212   0.50422   0.09289   0.00000  Uiso   1.00
C251   C     0.40750   0.48846   0.43747   0.00000  Uiso   1.00
C252   C     0.39689   0.47896   0.49031   0.00000  Uiso   1.00
C253   C     0.43208   0.48353   0.01559   0.00000  Uiso   1.00
C254   C     0.36645   0.48452   0.41474   0.00000  Uiso   1.00
C255   C     0.48925   0.51267   0.43680   0.00000  Uiso   1.00
C256   C     0.51542   0.50655   0.01516   0.00000  Uiso   1.00
C257   C     0.56028   0.52672   0.48846   0.00000  Uiso   1.00
C258   C     0.56777   0.54176   0.43822   0.00000  Uiso   1.00
C259   C     0.53222   0.53595   0.41350   0.00000  Uiso   1.00
C260   C     0.50818   0.49428   0.06697   0.00000  Uiso   1.00
C261   C     0.58708   0.52248   0.06549   0.00000  Uiso   1.00
Cu262  Cu    0.45311   0.49999   0.25000   0.00000  Uiso   1.00
Cu263  Cu    0.54689   0.50001   0.25000   0.00000  Uiso   1.00
H264   H     0.57567   0.37062   0.25087   0.00000  Uiso   1.00
H265   H     0.42015   0.47511   0.05623   0.00000  Uiso   1.00
H266   H     0.36060   0.46794   0.01265   0.00000  Uiso   1.00
H267   H     0.53802   0.55140   0.37666   0.00000  Uiso   1.00
H268   H     0.57563   0.62937   0.25102   0.00000  Uiso   1.00
H269   H     0.61394   0.53013   0.08501   0.00000  Uiso   1.00
H270   H     0.63069   0.54860   0.49298   0.00000  Uiso   1.00
H271   H     0.36205   0.50656   0.38640   0.00000  Uiso   1.00
H272   H     0.42424   0.37063   0.24944   0.00000  Uiso   1.00
H273   H     0.42421   0.62937   0.24956   0.00000  Uiso   1.00
H274   H     0.60808   0.55067   0.30210   0.00000  Uiso   1.00
H275   H     0.36144   0.55017   0.30286   0.00000  Uiso   1.00
H276   H     0.39243   0.45005   0.19670   0.00000  Uiso   1.00
H277   H     0.63865   0.45003   0.19682   0.00000  Uiso   1.00
H278   H     0.60078   0.55899   0.41834   0.00000  Uiso   1.00
H279   H     0.47566   0.47795   0.08909   0.00000  Uiso   1.00
N280   N     0.38265   0.49999   0.24998   0.00000  Uiso   1.00
N281   N     0.61735   0.50002   0.24999   0.00000  Uiso   1.00
O282   O     0.46042   0.56011   0.25000   0.00000  Uiso   1.00
O283   O     0.53961   0.56012   0.25000   0.00000  Uiso   1.00
O284   O     0.44108   0.49998   0.32549   0.00000  Uiso   1.00
O285   O     0.52027   0.49999   0.32549   0.00000  Uiso   1.00
O286   O     0.46039   0.43988   0.24999   0.00000  Uiso   1.00
O287   O     0.53958   0.43989   0.24999   0.00000  Uiso   1.00
O288   O     0.47973   0.50001   0.17451   0.00000  Uiso   1.00
O289   O     0.55892   0.50002   0.17451   0.00000  Uiso   1.00
O290   O     0.33569   0.45734   0.42916   0.00000  Uiso   1.00
C291   C     0.83331   0.57932   0.25010   0.00000  Uiso   1.00
C292   C     0.78901   0.50259   0.40890   0.00000  Uiso   1.00
C293   C     0.87576   0.64538   0.25065   0.00000  Uiso   1.00
C294   C     0.80647   0.50181   0.35055   0.00000  Uiso   1.00
C295   C     0.87577   0.35461   0.25058   0.00000  Uiso   1.00
C296   C     0.83330   0.37607   0.25012   0.00000  Uiso   1.00
C297   C     0.79079   0.35461   0.24979   0.00000  Uiso   1.00
C298   C     0.79077   0.64538   0.24985   0.00000  Uiso   1.00
C299   C     0.83327   0.62393   0.25022   0.00000  Uiso   1.00
C300   C     0.96672   0.52800   0.27914   0.00000  Uiso   1.00
C301   C     0.68293   0.52785   0.27935   0.00000  Uiso   1.00
C302   C     0.81229   0.50037   0.48970   0.00000  Uiso   1.00
C303   C     0.70012   0.47225   0.22043   0.00000  Uiso   1.00
C304   C     0.98379   0.47223   0.22049   0.00000  Uiso   1.00
C305   C     0.83332   0.42068   0.25002   0.00000  Uiso   1.00
C306   C     0.85987   0.50020   0.14985   0.00000  Uiso   1.00
C307   C     0.92963   0.53338   0.01329   0.00000  Uiso   1.00
C308   C     0.87545   0.50422   0.09289   0.00000  Uiso   1.00
C309   C     0.74083   0.48846   0.43747   0.00000  Uiso   1.00
C310   C     0.73022   0.47896   0.49031   0.00000  Uiso   1.00
C311   C     0.76542   0.48353   0.01559   0.00000  Uiso   1.00
C312   C     0.69978   0.48452   0.41474   0.00000  Uiso   1.00
C313   C     0.82258   0.51267   0.43680   0.00000  Uiso   1.00
C314   C     0.84875   0.50655   0.01516   0.00000  Uiso   1.00
C315   C     0.89362   0.52672   0.48846   0.00000  Uiso   1.00
C316   C     0.90110   0.54176   0.43822   0.00000  Uiso   1.00
C317   C     0.86555   0.53595   0.41350   0.00000  Uiso   1.00
C318   C     0.84151   0.49428   0.06697   0.00000  Uiso   1.00
C319   C     0.92042   0.52248   0.06549   0.00000  Uiso   1.00
Cu320  Cu    0.78645   0.49999   0.25000   0.00000  Uiso   1.00
Cu321  Cu    0.88022   0.50001   0.25000   0.00000  Uiso   1.00
H322   H     0.90900   0.37062   0.25087   0.00000  Uiso   1.00
H323   H     0.75348   0.47511   0.05623   0.00000  Uiso   1.00
H324   H     0.69394   0.46794   0.01265   0.00000  Uiso   1.00
H325   H     0.87135   0.55140   0.37666   0.00000  Uiso   1.00
H326   H     0.90896   0.62937   0.25102   0.00000  Uiso   1.00
H327   H     0.94728   0.53013   0.08501   0.00000  Uiso   1.00
H328   H     0.96402   0.54860   0.49298   0.00000  Uiso   1.00
H329   H     0.69539   0.50656   0.38640   0.00000  Uiso   1.00
H330   H     0.75757   0.37063   0.24944   0.00000  Uiso   1.00
H331   H     0.75755   0.62937   0.24956   0.00000  Uiso   1.00
H332   H     0.94142   0.55067   0.30210   0.00000  Uiso   1.00
H333   H     0.69477   0.55017   0.30286   0.00000  Uiso   1.00
H334   H     0.72577   0.45005   0.19670   0.00000  Uiso   1.00
H335   H     0.97198   0.45003   0.19682   0.00000  Uiso   1.00
H336   H     0.93412   0.55899   0.41834   0.00000  Uiso   1.00
H337   H     0.80899   0.47795   0.08909   0.00000  Uiso   1.00
N338   N     0.71598   0.49999   0.24998   0.00000  Uiso   1.00
N339   N     0.95069   0.50002   0.24999   0.00000  Uiso   1.00
O340   O     0.79375   0.56011   0.25000   0.00000  Uiso   1.00
O341   O     0.87294   0.56012   0.25000   0.00000  Uiso   1.00
O342   O     0.77441   0.49998   0.32549   0.00000  Uiso   1.00
O343   O     0.85360   0.49999   0.32549   0.00000  Uiso   1.00
O344   O     0.79373   0.43988   0.24999   0.00000  Uiso   1.00
O345   O     0.87292   0.43989   0.24999   0.00000  Uiso   1.00
O346   O     0.81306   0.50001   0.17451   0.00000  Uiso   1.00
O347   O     0.89225   0.50002   0.17451   0.00000  Uiso   1.00
O348   O     0.66902   0.45734   0.42916   0.00000  Uiso   1.00
C349   C     0.16665   0.91266   0.25010   0.00000  Uiso   1.00
C350   C     0.12234   0.83593   0.40890   0.00000  Uiso   1.00
C351   C     0.20909   0.97871   0.25065   0.00000  Uiso   1.00
C352   C     0.13981   0.83515   0.35055   0.00000  Uiso   1.00
C353   C     0.20911   0.68795   0.25058   0.00000  Uiso   1.00
C354   C     0.16663   0.70940   0.25012   0.00000  Uiso   1.00
C355   C     0.12412   0.68795   0.24979   0.00000  Uiso   1.00
C356   C     0.12410   0.97872   0.24985   0.00000  Uiso   1.00
C357   C     0.16661   0.95726   0.25022   0.00000  Uiso   1.00
C358   C     0.30005   0.86133   0.27914   0.00000  Uiso   1.00
C359   C     0.01626   0.86119   0.27935   0.00000  Uiso   1.00
C360   C     0.14562   0.83371   0.48970   0.00000  Uiso   1.00
C361   C     0.03345   0.80558   0.22043   0.00000  Uiso   1.00
C362   C     0.31713   0.80556   0.22049   0.00000  Uiso   1.00
C363   C     0.16665   0.75401   0.25002   0.00000  Uiso   1.00
C364   C     0.19320   0.83353   0.14985   0.00000  Uiso   1.00
C365   C     0.26296   0.86671   0.01329   0.00000  Uiso   1.00
C366   C     0.20879   0.83756   0.09289   0.00000  Uiso   1.00
C367   C     0.07417   0.82180   0.43747   0.00000  Uiso   1.00
C368   C     0.06356   0.81229   0.49031   0.00000  Uiso   1.00
C369   C     0.09875   0.81686   0.01559   0.00000  Uiso   1.00
C370   C     0.03311   0.81786   0.41474   0.00000  Uiso   1.00
C371   C     0.15592   0.84600   0.43680   0.00000  Uiso   1.00
C372   C     0.18208   0.83988   0.01516   0.00000  Uiso   1.00
C373   C     0.22695   0.86006   0.48846   0.00000  Uiso   1.00
C374   C     0.23444   0.87510   0.43822   0.00000  Uiso   1.00
C375   C     0.19888   0.86928   0.41350   0.00000  Uiso   1.00
C376   C     0.17485   0.82761   0.06697   0.00000  Uiso   1.00
C377   C     0.25375   0.85581   0.06549   0.00000  Uiso   1.00
Cu378  Cu    0.11978   0.83333   0.25000   0.00000  Uiso   1.00
Cu379  Cu    0.21355   0.83334   0.25000   0.00000  Uiso   1.00
H380   H     0.24233   0.70396   0.25087   0.00000  Uiso   1.00
H381   H     0.08681   0.80845   0.05623   0.00000  Uiso   1.00
H382   H     0.02727   0.80128   0.01265   0.00000  Uiso   1.00
H383   H     0.20468   0.88474   0.37666   0.00000  Uiso   1.00
H384   H     0.24229   0.96270   0.25102   0.00000  Uiso   1.00
H385   H     0.28061   0.86346   0.08501   0.00000  Uiso   1.00
H386   H     0.29736   0.88194   0.49298   0.00000  Uiso   1.00
H387   H     0.02872   0.83990   0.38640   0.00000  Uiso   1.00
H388   H     0.09091   0.70396   0.24944   0.00000  Uiso   1.00
H389   H     0.09088   0.96271   0.24956   0.00000  Uiso   1.00
H390   H     0.27475   0.88401   0.30210   0.00000  Uiso   1.00
H391   H     0.02811   0.88350   0.30286   0.00000  Uiso   1.00
H392   H     0.05910   0.78338   0.19670   0.00000  Uiso   1.00
H393   H     0.30531   0.78336   0.19682   0.00000  Uiso   1.00
H394   H     0.26745   0.89233   0.41834   0.00000  Uiso   1.00
H395   H     0.14233   0.81128   0.08909   0.00000  Uiso   1.00
N396   N     0.04931   0.83332   0.24998   0.00000  Uiso   1.00
N397   N     0.28402   0.83335   0.24999   0.00000  Uiso   1.00
O398   O     0.12708   0.89345   0.25000   0.00000  Uiso   1.00
O399   O     0.20627   0.89346   0.25000   0.00000  Uiso   1.00
O400   O     0.10775   0.83332   0.32549   0.00000  Uiso   1.00
O401   O     0.18694   0.83333   0.32549   0.00000  Uiso   1.00
O402   O     0.12706   0.77321   0.24999   0.00000  Uiso   1.00
O403   O     0.20625   0.77322   0.24999   0.00000  Uiso   1.00
O404   O     0.14640   0.83334   0.17451   0.00000  Uiso   1.00
O405   O     0.22559   0.83335   0.17451   0.00000  Uiso   1.00
O406   O     0.00235   0.79067   0.42916   0.00000  Uiso   1.00
C407   C     0.49998   0.91266   0.25010   0.00000  Uiso   1.00
C408   C     0.45567   0.83593   0.40890   0.00000  Uiso   1.00
C409   C     0.54242   0.97871   0.25065   0.00000  Uiso   1.00
C410   C     0.47314   0.83515   0.35055   0.00000  Uiso   1.00
C411   C     0.54244   0.68795   0.25058   0.00000  Uiso   1.00
C412   C     0.49996   0.70940   0.25012   0.00000  Uiso   1.00
C413   C     0.45745   0.68795   0.24979   0.00000  Uiso   1.00
C414   C     0.45744   0.97872   0.24985   0.00000  Uiso   1.00
C415   C     0.49994   0.95726   0.25022   0.00000  Uiso   1.00
C416   C     0.63338   0.86133   0.27914   0.00000  Uiso   1.00
C417   C     0.34959   0.86119   0.27935   0.00000  Uiso   1.00
C418   C     0.47895   0.83371   0.48970   0.00000  Uiso   1.00
C419   C     0.36678   0.80558   0.22043   0.00000  Uiso   1.00
C420   C     0.65046   0.80556   0.22049   0.00000  Uiso   1.00
C421   C     0.49998   0.75401   0.25002   0.00000  Uiso   1.00
C422   C     0.52654   0.83353   0.14985   0.00000  Uiso   1.00
C423   C     0.59629   0.86671   0.01329   0.00000  Uiso   1.00
C424   C     0.54212   0.83756   0.09289   0.00000  Uiso   1.00
C425   C     0.40750   0.82180   0.43747   0.00000  Uiso   1.00
C426   C     0.39689   0.81229   0.49031   0.00000  Uiso   1.00
C427   C     0.43208   0.81686   0.01559   0.00000  Uiso   1.00
C428   C     0.36645   0.81786   0.41474   0.00000  Uiso   1.00
C429   C     0.48925   0.84600   0.43680   0.00000  Uiso   1.00
C430   C     0.51542   0.83988   0.01516   0.00000  Uiso   1.00
C431   C     0.56028   0.86006   0.48846   0.00000  Uiso   1.00
C432   C     0.56777   0.87510   0.43822   0.00000  Uiso   1.00
C433   C     0.53222   0.86928   0.41350   0.00000  Uiso   1.00
C434   C     0.50818   0.82761   0.06697   0.00000  Uiso   1.00
C435   C     0.58708   0.85581   0.06549   0.00000  Uiso   1.00
Cu436  Cu    0.45311   0.83333   0.25000   0.00000  Uiso   1.00
Cu437  Cu    0.54689   0.83334   0.25000   0.00000  Uiso   1.00
H438   H     0.57567   0.70396   0.25087   0.00000  Uiso   1.00
H439   H     0.42015   0.80845   0.05623   0.00000  Uiso   1.00
H440   H     0.36060   0.80128   0.01265   0.00000  Uiso   1.00
H441   H     0.53802   0.88474   0.37666   0.00000  Uiso   1.00
H442   H     0.57563   0.96270   0.25102   0.00000  Uiso   1.00
H443   H     0.61394   0.86346   0.08501   0.00000  Uiso   1.00
H444   H     0.63069   0.88194   0.49298   0.00000  Uiso   1.00
H445   H     0.36205   0.83990   0.38640   0.00000  Uiso   1.00
H446   H     0.42424   0.70396   0.24944   0.00000  Uiso   1.00
H447   H     0.42421   0.96271   0.24956   0.00000  Uiso   1.00
H448   H     0.60808   0.88401   0.30210   0.00000  Uiso   1.00
H449   H     0.36144   0.88350   0.30286   0.00000  Uiso   1.00
H450   H     0.39243   0.78338   0.19670   0.00000  Uiso   1.00
H451   H     0.63865   0.78336   0.19682   0.00000  Uiso   1.00
H452   H     0.60078   0.89233   0.41834   0.00000  Uiso   1.00
H453   H     0.47566   0.81128   0.08909   0.00000  Uiso   1.00
N454   N     0.38265   0.83332   0.24998   0.00000  Uiso   1.00
N455   N     0.61735   0.83335   0.24999   0.00000  Uiso   1.00
O456   O     0.46042   0.89345   0.25000   0.00000  Uiso   1.00
O457   O     0.53961   0.89346   0.25000   0.00000  Uiso   1.00
O458   O     0.44108   0.83332   0.32549   0.00000  Uiso   1.00
O459   O     0.52027   0.83333   0.32549   0.00000  Uiso   1.00
O460   O     0.46039   0.77321   0.24999   0.00000  Uiso   1.00
O461   O     0.53958   0.77322   0.24999   0.00000  Uiso   1.00
O462   O     0.47973   0.83334   0.17451   0.00000  Uiso   1.00
O463   O     0.55892   0.83335   0.17451   0.00000  Uiso   1.00
O464   O     0.33569   0.79067   0.42916   0.00000  Uiso   1.00
C465   C     0.83331   0.91266   0.25010   0.00000  Uiso   1.00
C466   C     0.78901   0.83593   0.40890   0.00000  Uiso   1.00
C467   C     0.87576   0.97871   0.25065   0.00000  Uiso   1.00
C468   C     0.80647   0.83515   0.35055   0.00000  Uiso   1.00
C469   C     0.87577   0.68795   0.25058   0.00000  Uiso   1.00
C470   C     0.83330   0.70940   0.25012   0.00000  Uiso   1.00
C471   C     0.79079   0.68795   0.24979   0.00000  Uiso   1.00
C472   C     0.79077   0.97872   0.24985   0.00000  Uiso   1.00
C473   C     0.83327   0.95726   0.25022   0.00000  Uiso   1.00
C474   C     0.96672   0.86133   0.27914   0.00000  Uiso   1.00
C475   C     0.68293   0.86119   0.27935   0.00000  Uiso   1.00
C476   C     0.81229   0.83371   0.48970   0.00000  Uiso   1.00
C477   C     0.70012   0.80558   0.22043   0.00000  Uiso   1.00
C478   C     0.98379   0.80556   0.22049   0.00000  Uiso   1.00
C479   C     0.83332   0.75401   0.25002   0.00000  Uiso   1.00
C480   C     0.85987   0.83353   0.14985   0.00000  Uiso   1.00
C481   C     0.92963   0.86671   0.01329   0.00000  Uiso   1.00
C482   C     0.87545   0.83756   0.09289   0.00000  Uiso   1.00
C483   C     0.74083   0.82180   0.43747   0.00000  Uiso   1.00
C484   C     0.73022   0.81229   0.49031   0.00000  Uiso   1.00
C485   C     0.76542   0.81686   0.01559   0.00000  Uiso   1.00
C486   C     0.69978   0.81786   0.41474   0.00000  Uiso   1.00
C487   C     0.82258   0.84600   0.43680   0.00000  Uiso   1.00
C488   C     0.84875   0.83988   0.01516   0.00000  Uiso   1.00
C489   C     0.89362   0.86006   0.48846   0.00000  Uiso   1.00
C490   C     0.90110   0.87510   0.43822   0.00000  Uiso   1.00
C491   C     0.86555   0.86928   0.41350   0.00000  Uiso   1.00
C492   C     0.84151   0.82761   0.06697   0.00000  Uiso   1.00
C493   C     0.92042   0.85581   0.06549   0.00000  Uiso   1.00
Cu494  Cu    0.78645   0.83333   0.25000   0.00000  Uiso   1.00
Cu495  Cu    0.88022   0.83334   0.25000   0.00000  Uiso   1.00
H496   H     0.90900   0.70396   0.25087   0.00000  Uiso   1.00
H497   H     0.75348   0.80845   0.05623   0.00000  Uiso   1.00
H498   H     0.69394   0.80128   0.01265   0.00000  Uiso   1.00
H499   H     0.87135   0.88474   0.37666   0.00000  Uiso   1.00
H500   H     0.90896   0.96270   0.25102   0.00000  Uiso   1.00
H501   H     0.94728   0.86346   0.08501   0.00000  Uiso   1.00
H502   H     0.96402   0.88194   0.49298   0.00000  Uiso   1.00
H503   H     0.69539   0.83990   0.38640   0.00000  Uiso   1.00
H504   H     0.75757   0.70396   0.24944   0.00000  Uiso   1.00
H505   H     0.75755   0.96271   0.24956   0.00000  Uiso   1.00
H506   H     0.94142   0.88401   0.30210   0.00000  Uiso   1.00
H507   H     0.69477   0.88350   0.30286   0.00000  Uiso   1.00
H508   H     0.72577   0.78338   0.19670   0.00000  Uiso   1.00
H509   H     0.97198   0.78336   0.19682   0.00000  Uiso   1.00
H510   H     0.93412   0.89233   0.41834   0.00000  Uiso   1.00
H511   H     0.80899   0.81128   0.08909   0.00000  Uiso   1.00
N512   N     0.71598   0.83332   0.24998   0.00000  Uiso   1.00
N513   N     0.95069   0.83335   0.24999   0.00000  Uiso   1.00
O514   O     0.79375   0.89345   0.25000   0.00000  Uiso   1.00
O515   O     0.87294   0.89346   0.25000   0.00000  Uiso   1.00
O516   O     0.77441   0.83332   0.32549   0.00000  Uiso   1.00
O517   O     0.85360   0.83333   0.32549   0.00000  Uiso   1.00
O518   O     0.79373   0.77321   0.24999   0.00000  Uiso   1.00
O519   O     0.87292   0.77322   0.24999   0.00000  Uiso   1.00
O520   O     0.81306   0.83334   0.17451   0.00000  Uiso   1.00
O521   O     0.89225   0.83335   0.17451   0.00000  Uiso   1.00
O522   O     0.66902   0.79067   0.42916   0.00000  Uiso   1.00
C523   C     0.16665   0.24599   0.75010   0.00000  Uiso   1.00
C524   C     0.12234   0.16926   0.90890   0.00000  Uiso   1.00
C525   C     0.20909   0.31205   0.75065   0.00000  Uiso   1.00
C526   C     0.13981   0.16848   0.85055   0.00000  Uiso   1.00
C527   C     0.20911   0.02128   0.75058   0.00000  Uiso   1.00
C528   C     0.16663   0.04273   0.75012   0.00000  Uiso   1.00
C529   C     0.12412   0.02128   0.74979   0.00000  Uiso   1.00
C530   C     0.12410   0.31205   0.74985   0.00000  Uiso   1.00
C531   C     0.16661   0.29060   0.75022   0.00000  Uiso   1.00
C532   C     0.30005   0.19466   0.77914   0.00000  Uiso   1.00
C533   C     0.01626   0.19452   0.77935   0.00000  Uiso   1.00
C534   C     0.14562   0.16704   0.98970   0.00000  Uiso   1.00
C535   C     0.03345   0.13891   0.72043   0.00000  Uiso   1.00
C536   C     0.31713   0.13890   0.72049   0.00000  Uiso   1.00
C537   C     0.16665   0.08734   0.75002   0.00000  Uiso   1.00
C538   C     0.19320   0.16686   0.64985   0.00000  Uiso   1.00
C539   C     0.26296   0.20005   0.51329   0.00000  Uiso   1.00
C540   C     0.20879   0.17089   0.59289   0.00000  Uiso   1.00
C541   C     0.07417   0.15513   0.93747   0.00000  Uiso   1.00
C542   C     0.06356   0.14563   0.99031   0.00000  Uiso   1.00
C543   C     0.09875   0.15019   0.51559   0.00000  Uiso   1.00
C544   C     0.03311   0.15119   0.91474   0.00000  Uiso   1.00
C545   C     0.15592   0.17933   0.93680   0.00000  Uiso   1.00
C546   C     0.18208   0.17322   0.51516   0.00000  Uiso   1.00
C547   C     0.22695   0.19339   0.98846   0.00000  Uiso   1.00
C548   C     0.23444   0.20843   0.93822   0.00000  Uiso   1.00
C549   C     0.19888   0.20262   0.91350   0.00000  Uiso   1.00
C550   C     0.17485   0.16095   0.56697   0.00000  Uiso   1.00
C551   C     0.25375   0.18915   0.56549   0.00000  Uiso   1.00
Cu552  Cu    0.11978   0.16666   0.75000   0.00000  Uiso   1.00
Cu553  Cu    0.21355   0.16667   0.75000   0.00000  Uiso   1.00
H554   H     0.24233   0.03729   0.75087   0.00000  Uiso   1.00
H555   H     0.08681   0.14178   0.55623   0.00000  Uiso   1.00
H556   H     0.02727   0.13461   0.51265   0.00000  Uiso   1.00
H557   H     0.20468   0.21807   0.87666   0.00000  Uiso   1.00
H558   H     0.24229   0.29603   0.75102   0.00000  Uiso   1.00
H559   H     0.28061   0.19680   0.58501   0.00000  Uiso   1.00
H560   H     0.29736   0.21527   0.99298   0.00000  Uiso   1.00
H561   H     0.02872   0.17323   0.88640   0.00000  Uiso   1.00
H562   H     0.09091   0.03729   0.74944   0.00000  Uiso   1.00
H563   H     0.09088   0.29604   0.74956   0.00000  Uiso   1.00
H564   H     0.27475   0.21734   0.80210   0.00000  Uiso   1.00
H565   H     0.02811   0.21683   0.80286   0.00000  Uiso   1.00
H566   H     0.05910   0.11672   0.69670   0.00000  Uiso   1.00
H567   H     0.30531   0.11670   0.69682   0.00000  Uiso   1.00
H568   H     0.26745   0.22566   0.91834   0.00000  Uiso   1.00
H569   H     0.14233   0.14462   0.58909   0.00000  Uiso   1.00
N570   N     0.04931   0.16666   0.74998   0.00000  Uiso   1.00
N571   N     0.28402   0.16669   0.74999   0.00000  Uiso   1.00
O572   O     0.12708   0.22678   0.75000   0.00000  Uiso   1.00
O573   O     0.20627   0.22679   0.75000   0.00000  Uiso   1.00
O574   O     0.10775   0.16665   0.82549   0.00000  Uiso   1.00
O575   O     0.18694   0.16666   0.82549   0.00000  Uiso   1.00
O576   O     0.12706   0.10654   0.74999   0.00000  Uiso   1.00
O577   O     0.20625   0.10655   0.74999   0.00000  Uiso   1.00
O578   O     0.14640   0.16667   0.67451   0.00000  Uiso   1.00
O579   O     0.22559   0.16668   0.67451   0.00000  Uiso   1.00
O580   O     0.00235   0.12400   0.92916   0.00000  Uiso   1.00
C581   C     0.49998   0.24599   0.75010   0.00000  Uiso   1.00
C582   C     0.45567   0.16926   0.90890   0.00000  Uiso   1.00
C583   C     0.54242   0.31205   0.75065   0.00000  Uiso   1.00
C584   C     0.47314   0.16848   0.85055   0.00000  Uiso   1.00
C585   C     0.54244   0.02128   0.75058   0.00000  Uiso   1.00
C586   C     0.49996   0.04273   0.75012   0.00000  Uiso   1.00
C587   C     0.45745   0.02128   0.74979   0.00000  Uiso   1.00
C588   C     0.45744   0.31205   0.74985   0.00000  Uiso   1.00
C589   C     0.49994   0.29060   0.75022   0.00000  Uiso   1.00
C590   C     0.63338   0.19466   0.77914   0.00000  Uiso   1.00
C591   C     0.34959   0.19452   0.77935   0.00000  Uiso   1.00
C592   C     0.47895   0.16704   0.98970   0.00000  Uiso   1.00
C593   C     0.36678   0.13891   0.72043   0.00000  Uiso   1.00
C594   C     0.65046   0.13890   0.72049   0.00000  Uiso   1.00
C595   C     0.49998   0.08734   0.75002   0.00000  Uiso   1.00
C596   C     0.52654   0.16686   0.64985   0.00000  Uiso   1.00
C597   C     0.59629   0.20005   0.51329   0.00000  Uiso   1.00
C598   C     0.54212   0.17089   0.59289   0.00000  Uiso   1.00
C599   C     0.40750   0.15513   0.93747   0.00000  Uiso   1.00
C600   C     0.39689   0.14563   0.99031   0.00000  Uiso   1.00
C601   C     0.43208   0.15019   0.51559   0.00000  Uiso   1.00
C602   C     0.36645   0.15119   0.91474   0.00000  Uiso   1.00
C603   C     0.48925   0.17933   0.93680   0.00000  Uiso   1.00
C604   C     0.51542   0.17322   0.51516   0.00000  Uiso   1.00
C605   C     0.56028   0.19339   0.98846   0.00000  Uiso   1.00
C606   C     0.56777   0.20843   0.93822   0.00000  Uiso   1.00
C607   C     0.53222   0.20262   0.91350   0.00000  Uiso   1.00
C608   C     0.50818   0.16095   0.56697   0.00000  Uiso   1.00
C609   C     0.58708   0.18915   0.56549   0.00000  Uiso   1.00
Cu610  Cu    0.45311   0.16666   0.75000   0.00000  Uiso   1.00
Cu611  Cu    0.54689   0.16667   0.75000   0.00000  Uiso   1.00
H612   H     0.57567   0.03729   0.75087   0.00000  Uiso   1.00
H613   H     0.42015   0.14178   0.55623   0.00000  Uiso   1.00
H614   H     0.36060   0.13461   0.51265   0.00000  Uiso   1.00
H615   H     0.53802   0.21807   0.87666   0.00000  Uiso   1.00
H616   H     0.57563   0.29603   0.75102   0.00000  Uiso   1.00
H617   H     0.61394   0.19680   0.58501   0.00000  Uiso   1.00
H618   H     0.63069   0.21527   0.99298   0.00000  Uiso   1.00
H619   H     0.36205   0.17323   0.88640   0.00000  Uiso   1.00
H620   H     0.42424   0.03729   0.74944   0.00000  Uiso   1.00
H621   H     0.42421   0.29604   0.74956   0.00000  Uiso   1.00
H622   H     0.60808   0.21734   0.80210   0.00000  Uiso   1.00
H623   H     0.36144   0.21683   0.80286   0.00000  Uiso   1.00
H624   H     0.39243   0.11672   0.69670   0.00000  Uiso   1.00
H625   H     0.63865   0.11670   0.69682   0.00000  Uiso   1.00
H626   H     0.60078   0.22566   0.91834   0.00000  Uiso   1.00
H627   H     0.47566   0.14462   0.58909   0.00000  Uiso   1.00
N628   N     0.38265   0.16666   0.74998   0.00000  Uiso   1.00
N629   N     0.61735   0.16669   0.74999   0.00000  Uiso   1.00
O630   O     0.46042   0.22678   0.75000   0.00000  Uiso   1.00
O631   O     0.53961   0.22679   0.75000   0.00000  Uiso   1.00
O632   O     0.44108   0.16665   0.82549   0.00000  Uiso   1.00
O633   O     0.52027   0.16666   0.82549   0.00000  Uiso   1.00
O634   O     0.46039   0.10654   0.74999   0.00000  Uiso   1.00
O635   O     0.53958   0.10655   0.74999   0.00000  Uiso   1.00
O636   O     0.47973   0.16667   0.67451   0.00000  Uiso   1.00
O637   O     0.55892   0.16668   0.67451   0.00000  Uiso   1.00
O638   O     0.33569   0.12400   0.92916   0.00000  Uiso   1.00
C639   C     0.83331   0.24599   0.75010   0.00000  Uiso   1.00
C640   C     0.78901   0.16926   0.90890   0.00000  Uiso   1.00
C641   C     0.87576   0.31205   0.75065   0.00000  Uiso   1.00
C642   C     0.80647   0.16848   0.85055   0.00000  Uiso   1.00
C643   C     0.87577   0.02128   0.75058   0.00000  Uiso   1.00
C644   C     0.83330   0.04273   0.75012   0.00000  Uiso   1.00
C645   C     0.79079   0.02128   0.74979   0.00000  Uiso   1.00
C646   C     0.79077   0.31205   0.74985   0.00000  Uiso   1.00
C647   C     0.83327   0.29060   0.75022   0.00000  Uiso   1.00
C648   C     0.96672   0.19466   0.77914   0.00000  Uiso   1.00
C649   C     0.68293   0.19452   0.77935   0.00000  Uiso   1.00
C650   C     0.81229   0.16704   0.98970   0.00000  Uiso   1.00
C651   C     0.70012   0.13891   0.72043   0.00000  Uiso   1.00
C652   C     0.98379   0.13890   0.72049   0.00000  Uiso   1.00
C653   C     0.83332   0.08734   0.75002   0.00000  Uiso   1.00
C654   C     0.85987   0.16686   0.64985   0.00000  Uiso   1.00
C655   C     0.92963   0.20005   0.51329   0.00000  Uiso   1.00
C656   C     0.87545   0.17089   0.59289   0.00000  Uiso   1.00
C657   C     0.74083   0.15513   0.93747   0.00000  Uiso   1.00
C658   C     0.73022   0.14563   0.99031   0.00000  Uiso   1.00
C659   C     0.76542   0.15019   0.51559   0.00000  Uiso   1.00
C660   C     0.69978   0.15119   0.91474   0.00000  Uiso   1.00
C661   C     0.82258   0.17933   0.93680   0.00000  Uiso   1.00
C662   C     0.84875   0.17322   0.51516   0.00000  Uiso   1.00
C663   C     0.89362   0.19339   0.98846   0.00000  Uiso   1.00
C664   C     0.90110   0.20843   0.93822   0.00000  Uiso   1.00
C665   C     0.86555   0.20262   0.91350   0.00000  Uiso   1.00
C666   C     0.84151   0.16095   0.56697   0.00000  Uiso   1.00
C667   C     0.92042   0.18915   0.56549   0.00000  Uiso   1.00
Cu668  Cu    0.78645   0.16666   0.75000   0.00000  Uiso   1.00
Cu669  Cu    0.88022   0.16667   0.75000   0.00000  Uiso   1.00
H670   H     0.90900   0.03729   0.75087   0.00000  Uiso   1.00
H671   H     0.75348   0.14178   0.55623   0.00000  Uiso   1.00
H672   H     0.69394   0.13461   0.51265   0.00000  Uiso   1.00
H673   H     0.87135   0.21807   0.87666   0.00000  Uiso   1.00
H674   H     0.90896   0.29603   0.75102   0.00000  Uiso   1.00
H675   H     0.94728   0.19680   0.58501   0.00000  Uiso   1.00
H676   H     0.96402   0.21527   0.99298   0.00000  Uiso   1.00
H677   H     0.69539   0.17323   0.88640   0.00000  Uiso   1.00
H678   H     0.75757   0.03729   0.74944   0.00000  Uiso   1.00
H679   H     0.75755   0.29604   0.74956   0.00000  Uiso   1.00
H680   H     0.94142   0.21734   0.80210   0.00000  Uiso   1.00
H681   H     0.69477   0.21683   0.80286   0.00000  Uiso   1.00
H682   H     0.72577   0.11672   0.69670   0.00000  Uiso   1.00
H683   H     0.97198   0.11670   0.69682   0.00000  Uiso   1.00
H684   H     0.93412   0.22566   0.91834   0.00000  Uiso   1.00
H685   H     0.80899   0.14462   0.58909   0.00000  Uiso   1.00
N686   N     0.71598   0.16666   0.74998   0.00000  Uiso   1.00
N687   N     0.95069   0.16669   0.74999   0.00000  Uiso   1.00
O688   O     0.79375   0.22678   0.75000   0.00000  Uiso   1.00
O689   O     0.87294   0.22679   0.75000   0.00000  Uiso   1.00
O690   O     0.77441   0.16665   0.82549   0.00000  Uiso   1.00
O691   O     0.85360   0.16666   0.82549   0.00000  Uiso   1.00
O692   O     0.79373   0.10654   0.74999   0.00000  Uiso   1.00
O693   O     0.87292   0.10655   0.74999   0.00000  Uiso   1.00
O694   O     0.81306   0.16667   0.67451   0.00000  Uiso   1.00
O695   O     0.89225   0.16668   0.67451   0.00000  Uiso   1.00
O696   O     0.66902   0.12400   0.92916   0.00000  Uiso   1.00
C697   C     0.16665   0.57932   0.75010   0.00000  Uiso   1.00
C698   C     0.12234   0.50259   0.90890   0.00000  Uiso   1.00
C699   C     0.20909   0.64538   0.75065   0.00000  Uiso   1.00
C700   C     0.13981   0.50181   0.85055   0.00000  Uiso   1.00
C701   C     0.20911   0.35461   0.75058   0.00000  Uiso   1.00
C702   C     0.16663   0.37607   0.75012   0.00000  Uiso   1.00
C703   C     0.12412   0.35461   0.74979   0.00000  Uiso   1.00
C704   C     0.12410   0.64538   0.74985   0.00000  Uiso   1.00
C705   C     0.16661   0.62393   0.75022   0.00000  Uiso   1.00
C706   C     0.30005   0.52800   0.77914   0.00000  Uiso   1.00
C707   C     0.01626   0.52785   0.77935   0.00000  Uiso   1.00
C708   C     0.14562   0.50037   0.98970   0.00000  Uiso   1.00
C709   C     0.03345   0.47225   0.72043   0.00000  Uiso   1.00
C710   C     0.31713   0.47223   0.72049   0.00000  Uiso   1.00
C711   C     0.16665   0.42068   0.75002   0.00000  Uiso   1.00
C712   C     0.19320   0.50020   0.64985   0.00000  Uiso   1.00
C713   C     0.26296   0.53338   0.51329   0.00000  Uiso   1.00
C714   C     0.20879   0.50422   0.59289   0.00000  Uiso   1.00
C715   C     0.07417   0.48846   0.93747   0.00000  Uiso   1.00
C716   C     0.06356   0.47896   0.99031   0.00000  Uiso   1.00
C717   C     0.09875   0.48353   0.51559   0.00000  Uiso   1.00
C718   C     0.03311   0.48452   0.91474   0.00000  Uiso   1.00
C719   C     0.15592   0.51267   0.93680   0.00000  Uiso   1.00
C720   C     0.18208   0.50655   0.51516   0.00000  Uiso   1.00
C721   C     0.22695   0.52672   0.98846   0.00000  Uiso   1.00
C722   C     0.23444   0.54176   0.93822   0.00000  Uiso   1.00
C723   C     0.19888   0.53595   0.91350   0.00000  Uiso   1.00
C724   C     0.17485   0.49428   0.56697   0.00000  Uiso   1.00
C725   C     0.25375   0.52248   0.56549   0.00000  Uiso   1.00
Cu726  Cu    0.11978   0.49999   0.75000   0.00000  Uiso   1.00
Cu727  Cu    0.21355   0.50001   0.75000   0.00000  Uiso   1.00
H728   H     0.24233   0.37062   0.75087   0.00000  Uiso   1.00
H729   H     0.08681   0.47511   0.55623   0.00000  Uiso   1.00
H730   H     0.02727   0.46794   0.51265   0.00000  Uiso   1.00
H731   H     0.20468   0.55140   0.87666   0.00000  Uiso   1.00
H732   H     0.24229   0.62937   0.75102   0.00000  Uiso   1.00
H733   H     0.28061   0.53013   0.58501   0.00000  Uiso   1.00
H734   H     0.29736   0.54860   0.99298   0.00000  Uiso   1.00
H735   H     0.02872   0.50656   0.88640   0.00000  Uiso   1.00
H736   H     0.09091   0.37063   0.74944   0.00000  Uiso   1.00
H737   H     0.09088   0.62937   0.74956   0.00000  Uiso   1.00
H738   H     0.27475   0.55067   0.80210   0.00000  Uiso   1.00
H739   H     0.02811   0.55017   0.80286   0.00000  Uiso   1.00
H740   H     0.05910   0.45005   0.69670   0.00000  Uiso   1.00
H741   H     0.30531   0.45003   0.69682   0.00000  Uiso   1.00
H742   H     0.26745   0.55899   0.91834   0.00000  Uiso   1.00
H743   H     0.14233   0.47795   0.58909   0.00000  Uiso   1.00
N744   N     0.04931   0.49999   0.74998   0.00000  Uiso   1.00
N745   N     0.28402   0.50002   0.74999   0.00000  Uiso   1.00
O746   O     0.12708   0.56011   0.75000   0.00000  Uiso   1.00
O747   O     0.20627   0.56012   0.75000   0.00000  Uiso   1.00
O748   O     0.10775   0.49998   0.82549   0.00000  Uiso   1.00
O749   O     0.18694   0.49999   0.82549   0.00000  Uiso   1.00
O750   O     0.12706   0.43988   0.74999   0.00000  Uiso   1.00
O751   O     0.20625   0.43989   0.74999   0.00000  Uiso   1.00
O752   O     0.14640   0.50001   0.67451   0.00000  Uiso   1.00
O753   O     0.22559   0.50002   0.67451   0.00000  Uiso   1.00
O754   O     0.00235   0.45734   0.92916   0.00000  Uiso   1.00
C755   C     0.49998   0.57932   0.75010   0.00000  Uiso   1.00
C756   C     0.45567   0.50259   0.90890   0.00000  Uiso   1.00
C757   C     0.54242   0.64538   0.75065   0.00000  Uiso   1.00
C758   C     0.47314   0.50181   0.85055   0.00000  Uiso   1.00
C759   C     0.54244   0.35461   0.75058   0.00000  Uiso   1.00
C760   C     0.49996   0.37607   0.75012   0.00000  Uiso   1.00
C761   C     0.45745   0.35461   0.74979   0.00000  Uiso   1.00
C762   C     0.45744   0.64538   0.74985   0.00000  Uiso   1.00
C763   C     0.49994   0.62393   0.75022   0.00000  Uiso   1.00
C764   C     0.63338   0.52800   0.77914   0.00000  Uiso   1.00
C765   C     0.34959   0.52785   0.77935   0.00000  Uiso   1.00
C766   C     0.47895   0.50037   0.98970   0.00000  Uiso   1.00
C767   C     0.36678   0.47225   0.72043   0.00000  Uiso   1.00
C768   C     0.65046   0.47223   0.72049   0.00000  Uiso   1.00
C769   C     0.49998   0.42068   0.75002   0.00000  Uiso   1.00
C770   C     0.52654   0.50020   0.64985   0.00000  Uiso   1.00
C771   C     0.59629   0.53338   0.51329   0.00000  Uiso   1.00
C772   C     0.54212   0.50422   0.59289   0.00000  Uiso   1.00
C773   C     0.40750   0.48846   0.93747   0.00000  Uiso   1.00
C774   C     0.39689   0.47896   0.99031   0.00000  Uiso   1.00
C775   C     0.43208   0.48353   0.51559   0.00000  Uiso   1.00
C776   C     0.36645   0.48452   0.91474   0.00000  Uiso   1.00
C777   C     0.48925   0.51267   0.93680   0.00000  Uiso   1.00
C778   C     0.51542   0.50655   0.51516   0.00000  Uiso   1.00
C779   C     0.56028   0.52672   0.98846   0.00000  Uiso   1.00
C780   C     0.56777   0.54176   0.93822   0.00000  Uiso   1.00
C781   C     0.53222   0.53595   0.91350   0.00000  Uiso   1.00
C782   C     0.50818   0.49428   0.56697   0.00000  Uiso   1.00
C783   C     0.58708   0.52248   0.56549   0.00000  Uiso   1.00
Cu784  Cu    0.45311   0.49999   0.75000   0.00000  Uiso   1.00
Cu785  Cu    0.54689   0.50001   0.75000   0.00000  Uiso   1.00
H786   H     0.57567   0.37062   0.75087   0.00000  Uiso   1.00
H787   H     0.42015   0.47511   0.55623   0.00000  Uiso   1.00
H788   H     0.36060   0.46794   0.51265   0.00000  Uiso   1.00
H789   H     0.53802   0.55140   0.87666   0.00000  Uiso   1.00
H790   H     0.57563   0.62937   0.75102   0.00000  Uiso   1.00
H791   H     0.61394   0.53013   0.58501   0.00000  Uiso   1.00
H792   H     0.63069   0.54860   0.99298   0.00000  Uiso   1.00
H793   H     0.36205   0.50656   0.88640   0.00000  Uiso   1.00
H794   H     0.42424   0.37063   0.74944   0.00000  Uiso   1.00
H795   H     0.42421   0.62937   0.74956   0.00000  Uiso   1.00
H796   H     0.60808   0.55067   0.80210   0.00000  Uiso   1.00
H797   H     0.36144   0.55017   0.80286   0.00000  Uiso   1.00
H798   H     0.39243   0.45005   0.69670   0.00000  Uiso   1.00
H799   H     0.63865   0.45003   0.69682   0.00000  Uiso   1.00
H800   H     0.60078   0.55899   0.91834   0.00000  Uiso   1.00
H801   H     0.47566   0.47795   0.58909   0.00000  Uiso   1.00
N802   N     0.38265   0.49999   0.74998   0.00000  Uiso   1.00
N803   N     0.61735   0.50002   0.74999   0.00000  Uiso   1.00
O804   O     0.46042   0.56011   0.75000   0.00000  Uiso   1.00
O805   O     0.53961   0.56012   0.75000   0.00000  Uiso   1.00
O806   O     0.44108   0.49998   0.82549   0.00000  Uiso   1.00
O807   O     0.52027   0.49999   0.82549   0.00000  Uiso   1.00
O808   O     0.46039   0.43988   0.74999   0.00000  Uiso   1.00
O809   O     0.53958   0.43989   0.74999   0.00000  Uiso   1.00
O810   O     0.47973   0.50001   0.67451   0.00000  Uiso   1.00
O811   O     0.55892   0.50002   0.67451   0.00000  Uiso   1.00
O812   O     0.33569   0.45734   0.92916   0.00000  Uiso   1.00
C813   C     0.83331   0.57932   0.75010   0.00000  Uiso   1.00
C814   C     0.78901   0.50259   0.90890   0.00000  Uiso   1.00
C815   C     0.87576   0.64538   0.75065   0.00000  Uiso   1.00
C816   C     0.80647   0.50181   0.85055   0.00000  Uiso   1.00
C817   C     0.87577   0.35461   0.75058   0.00000  Uiso   1.00
C818   C     0.83330   0.37607   0.75012   0.00000  Uiso   1.00
C819   C     0.79079   0.35461   0.74979   0.00000  Uiso   1.00
C820   C     0.79077   0.64538   0.74985   0.00000  Uiso   1.00
C821   C     0.83327   0.62393   0.75022   0.00000  Uiso   1.00
C822   C     0.96672   0.52800   0.77914   0.00000  Uiso   1.00
C823   C     0.68293   0.52785   0.77935   0.00000  Uiso   1.00
C824   C     0.81229   0.50037   0.98970   0.00000  Uiso   1.00
C825   C     0.70012   0.47225   0.72043   0.00000  Uiso   1.00
C826   C     0.98379   0.47223   0.72049   0.00000  Uiso   1.00
C827   C     0.83332   0.42068   0.75002   0.00000  Uiso   1.00
C828   C     0.85987   0.50020   0.64985   0.00000  Uiso   1.00
C829   C     0.92963   0.53338   0.51329   0.00000  Uiso   1.00
C830   C     0.87545   0.50422   0.59289   0.00000  Uiso   1.00
C831   C     0.74083   0.48846   0.93747   0.00000  Uiso   1.00
C832   C     0.73022   0.47896   0.99031   0.00000  Uiso   1.00
C833   C     0.76542   0.48353   0.51559   0.00000  Uiso   1.00
C834   C     0.69978   0.48452   0.91474   0.00000  Uiso   1.00
C835   C     0.82258   0.51267   0.93680   0.00000  Uiso   1.00
C836   C     0.84875   0.50655   0.51516   0.00000  Uiso   1.00
C837   C     0.89362   0.52672   0.98846   0.00000  Uiso   1.00
C838   C     0.90110   0.54176   0.93822   0.00000  Uiso   1.00
C839   C     0.86555   0.53595   0.91350   0.00000  Uiso   1.00
C840   C     0.84151   0.49428   0.56697   0.00000  Uiso   1.00
C841   C     0.92042   0.52248   0.56549   0.00000  Uiso   1.00
Cu842  Cu    0.78645   0.49999   0.75000   0.00000  Uiso   1.00
Cu843  Cu    0.88022   0.50001   0.75000   0.00000  Uiso   1.00
H844   H     0.90900   0.37062   0.75087   0.00000  Uiso   1.00
H845   H     0.75348   0.47511   0.55623   0.00000  Uiso   1.00
H846   H     0.69394   0.46794   0.51265   0.00000  Uiso   1.00
H847   H     0.87135   0.55140   0.87666   0.00000  Uiso   1.00
H848   H     0.90896   0.62937   0.75102   0.00000  Uiso   1.00
H849   H     0.94728   0.53013   0.58501   0.00000  Uiso   1.00
H850   H     0.96402   0.54860   0.99298   0.00000  Uiso   1.00
H851   H     0.69539   0.50656   0.88640   0.00000  Uiso   1.00
H852   H     0.75757   0.37063   0.74944   0.00000  Uiso   1.00
H853   H     0.75755   0.62937   0.74956   0.00000  Uiso   1.00
H854   H     0.94142   0.55067   0.80210   0.00000  Uiso   1.00
H855   H     0.69477   0.55017   0.80286   0.00000  Uiso   1.00
H856   H     0.72577   0.45005   0.69670   0.00000  Uiso   1.00
H857   H     0.97198   0.45003   0.69682   0.00000  Uiso   1.00
H858   H     0.93412   0.55899   0.91834   0.00000  Uiso   1.00
H859   H     0.80899   0.47795   0.58909   0.00000  Uiso   1.00
N860   N     0.71598   0.49999   0.74998   0.00000  Uiso   1.00
N861   N     0.95069   0.50002   0.74999   0.00000  Uiso   1.00
O862   O     0.79375   0.56011   0.75000   0.00000  Uiso   1.00
O863   O     0.87294   0.56012   0.75000   0.00000  Uiso   1.00
O864   O     0.77441   0.49998   0.82549   0.00000  Uiso   1.00
O865   O     0.85360   0.49999   0.82549   0.00000  Uiso   1.00
O866   O     0.79373   0.43988   0.74999   0.00000  Uiso   1.00
O867   O     0.87292   0.43989   0.74999   0.00000  Uiso   1.00
O868   O     0.81306   0.50001   0.67451   0.00000  Uiso   1.00
O869   O     0.89225   0.50002   0.67451   0.00000  Uiso   1.00
O870   O     0.66902   0.45734   0.92916   0.00000  Uiso   1.00
C871   C     0.16665   0.91266   0.75010   0.00000  Uiso   1.00
C872   C     0.12234   0.83593   0.90890   0.00000  Uiso   1.00
C873   C     0.20909   0.97871   0.75065   0.00000  Uiso   1.00
C874   C     0.13981   0.83515   0.85055   0.00000  Uiso   1.00
C875   C     0.20911   0.68795   0.75058   0.00000  Uiso   1.00
C876   C     0.16663   0.70940   0.75012   0.00000  Uiso   1.00
C877   C     0.12412   0.68795   0.74979   0.00000  Uiso   1.00
C878   C     0.12410   0.97872   0.74985   0.00000  Uiso   1.00
C879   C     0.16661   0.95726   0.75022   0.00000  Uiso   1.00
C880   C     0.30005   0.86133   0.77914   0.00000  Uiso   1.00
C881   C     0.01626   0.86119   0.77935   0.00000  Uiso   1.00
C882   C     0.14562   0.83371   0.98970   0.00000  Uiso   1.00
C883   C     0.03345   0.80558   0.72043   0.00000  Uiso   1.00
C884   C     0.31713   0.80556   0.72049   0.00000  Uiso   1.00
C885   C     0.16665   0.75401   0.75002   0.00000  Uiso   1.00
C886   C     0.19320   0.83353   0.64985   0.00000  Uiso   1.00
C887   C     0.26296   0.86671   0.51329   0.00000  Uiso   1.00
C888   C     0.20879   0.83756   0.59289   0.00000  Uiso   1.00
C889   C     0.07417   0.82180   0.93747   0.00000  Uiso   1.00
C890   C     0.06356   0.81229   0.99031   0.00000  Uiso   1.00
C891   C     0.09875   0.81686   0.51559   0.00000  Uiso   1.00
C892   C     0.03311   0.81786   0.91474   0.00000  Uiso   1.00
C893   C     0.15592   0.84600   0.93680   0.00000  Uiso   1.00
C894   C     0.18208   0.83988   0.51516   0.00000  Uiso   1.00
C895   C     0.22695   0.86006   0.98846   0.00000  Uiso   1.00
C896   C     0.23444   0.87510   0.93822   0.00000  Uiso   1.00
C897   C     0.19888   0.86928   0.91350   0.00000  Uiso   1.00
C898   C     0.17485   0.82761   0.56697   0.00000  Uiso   1.00
C899   C     0.25375   0.85581   0.56549   0.00000  Uiso   1.00
Cu900  Cu    0.11978   0.83333   0.75000   0.00000  Uiso   1.00
Cu901  Cu    0.21355   0.83334   0.75000   0.00000  Uiso   1.00
H902   H     0.24233   0.70396   0.75087   0.00000  Uiso   1.00
H903   H     0.08681   0.80845   0.55623   0.00000  Uiso   1.00
H904   H     0.02727   0.80128   0.51265   0.00000  Uiso   1.00
H905   H     0.20468   0.88474   0.87666   0.00000  Uiso   1.00
H906   H     0.24229   0.96270   0.75102   0.00000  Uiso   1.00
H907   H     0.28061   0.86346   0.58501   0.00000  Uiso   1.00
H908   H     0.29736   0.88194   0.99298   0.00000  Uiso   1.00
H909   H     0.02872   0.83990   0.88640   0.00000  Uiso   1.00
H910   H     0.09091   0.70396   0.74944   0.00000  Uiso   1.00
H911   H     0.09088   0.96271   0.74956   0.00000  Uiso   1.00
H912   H     0.27475   0.88401   0.80210   0.00000  Uiso   1.00
H913   H     0.02811   0.88350   0.80286   0.00000  Uiso   1.00
H914   H     0.05910   0.78338   0.69670   0.00000  Uiso   1.00
H915   H     0.30531   0.78336   0.69682   0.00000  Uiso   1.00
H916   H     0.26745   0.89233   0.91834   0.00000  Uiso   1.00
H917   H     0.14233   0.81128   0.58909   0.00000  Uiso   1.00
N918   N     0.04931   0.83332   0.74998   0.00000  Uiso   1.00
N919   N     0.28402   0.83335   0.74999   0.00000  Uiso   1.00
O920   O     0.12708   0.89345   0.75000   0.00000  Uiso   1.00
O921   O     0.20627   0.89346   0.75000   0.00000  Uiso   1.00
O922   O     0.10775   0.83332   0.82549   0.00000  Uiso   1.00
O923   O     0.18694   0.83333   0.82549   0.00000  Uiso   1.00
O924   O     0.12706   0.77321   0.74999   0.00000  Uiso   1.00
O925   O     0.20625   0.77322   0.74999   0.00000  Uiso   1.00
O926   O     0.14640   0.83334   0.67451   0.00000  Uiso   1.00
O927   O     0.22559   0.83335   0.67451   0.00000  Uiso   1.00
O928   O     0.00235   0.79067   0.92916   0.00000  Uiso   1.00
C929   C     0.49998   0.91266   0.75010   0.00000  Uiso   1.00
C930   C     0.45567   0.83593   0.90890   0.00000  Uiso   1.00
C931   C     0.54242   0.97871   0.75065   0.00000  Uiso   1.00
C932   C     0.47314   0.83515   0.85055   0.00000  Uiso   1.00
C933   C     0.54244   0.68795   0.75058   0.00000  Uiso   1.00
C934   C     0.49996   0.70940   0.75012   0.00000  Uiso   1.00
C935   C     0.45745   0.68795   0.74979   0.00000  Uiso   1.00
C936   C     0.45744   0.97872   0.74985   0.00000  Uiso   1.00
C937   C     0.49994   0.95726   0.75022   0.00000  Uiso   1.00
C938   C     0.63338   0.86133   0.77914   0.00000  Uiso   1.00
C939   C     0.34959   0.86119   0.77935   0.00000  Uiso   1.00
C940   C     0.47895   0.83371   0.98970   0.00000  Uiso   1.00
C941   C     0.36678   0.80558   0.72043   0.00000  Uiso   1.00
C942   C     0.65046   0.80556   0.72049   0.00000  Uiso   1.00
C943   C     0.49998   0.75401   0.75002   0.00000  Uiso   1.00
C944   C     0.52654   0.83353   0.64985   0.00000  Uiso   1.00
C945   C     0.59629   0.86671   0.51329   0.00000  Uiso   1.00
C946   C     0.54212   0.83756   0.59289   0.00000  Uiso   1.00
C947   C     0.40750   0.82180   0.93747   0.00000  Uiso   1.00
C948   C     0.39689   0.81229   0.99031   0.00000  Uiso   1.00
C949   C     0.43208   0.81686   0.51559   0.00000  Uiso   1.00
C950   C     0.36645   0.81786   0.91474   0.00000  Uiso   1.00
C951   C     0.48925   0.84600   0.93680   0.00000  Uiso   1.00
C952   C     0.51542   0.83988   0.51516   0.00000  Uiso   1.00
C953   C     0.56028   0.86006   0.98846   0.00000  Uiso   1.00
C954   C     0.56777   0.87510   0.93822   0.00000  Uiso   1.00
C955   C     0.53222   0.86928   0.91350   0.00000  Uiso   1.00
C956   C     0.50818   0.82761   0.56697   0.00000  Uiso   1.00
C957   C     0.58708   0.85581   0.56549   0.00000  Uiso   1.00
Cu958  Cu    0.45311   0.83333   0.75000   0.00000  Uiso   1.00
Cu959  Cu    0.54689   0.83334   0.75000   0.00000  Uiso   1.00
H960   H     0.57567   0.70396   0.75087   0.00000  Uiso   1.00
H961   H     0.42015   0.80845   0.55623   0.00000  Uiso   1.00
H962   H     0.36060   0.80128   0.51265   0.00000  Uiso   1.00
H963   H     0.53802   0.88474   0.87666   0.00000  Uiso   1.00
H964   H     0.57563   0.96270   0.75102   0.00000  Uiso   1.00
H965   H     0.61394   0.86346   0.58501   0.00000  Uiso   1.00
H966   H     0.63069   0.88194   0.99298   0.00000  Uiso   1.00
H967   H     0.36205   0.83990   0.88640   0.00000  Uiso   1.00
H968   H     0.42424   0.70396   0.74944   0.00000  Uiso   1.00
H969   H     0.42421   0.96271   0.74956   0.00000  Uiso   1.00
H970   H     0.60808   0.88401   0.80210   0.00000  Uiso   1.00
H971   H     0.36144   0.88350   0.80286   0.00000  Uiso   1.00
H972   H     0.39243   0.78338   0.69670   0.00000  Uiso   1.00
H973   H     0.63865   0.78336   0.69682   0.00000  Uiso   1.00
H974   H     0.60078   0.89233   0.91834   0.00000  Uiso   1.00
H975   H     0.47566   0.81128   0.58909   0.00000  Uiso   1.00
N976   N     0.38265   0.83332   0.74998   0.00000  Uiso   1.00
N977   N     0.61735   0.83335   0.74999   0.00000  Uiso   1.00
O978   O     0.46042   0.89345   0.75000   0.00000  Uiso   1.00
O979   O     0.53961   0.89346   0.75000   0.00000  Uiso   1.00
O980   O     0.44108   0.83332   0.82549   0.00000  Uiso   1.00
O981   O     0.52027   0.83333   0.82549   0.00000  Uiso   1.00
O982   O     0.46039   0.77321   0.74999   0.00000  Uiso   1.00
O983   O     0.53958   0.77322   0.74999   0.00000  Uiso   1.00
O984   O     0.47973   0.83334   0.67451   0.00000  Uiso   1.00
O985   O     0.55892   0.83335   0.67451   0.00000  Uiso   1.00
O986   O     0.33569   0.79067   0.92916   0.00000  Uiso   1.00
C987   C     0.83331   0.91266   0.75010   0.00000  Uiso   1.00
C988   C     0.78901   0.83593   0.90890   0.00000  Uiso   1.00
C989   C     0.87576   0.97871   0.75065   0.00000  Uiso   1.00
C990   C     0.80647   0.83515   0.85055   0.00000  Uiso   1.00
C991   C     0.87577   0.68795   0.75058   0.00000  Uiso   1.00
C992   C     0.83330   0.70940   0.75012   0.00000  Uiso   1.00
C993   C     0.79079   0.68795   0.74979   0.00000  Uiso   1.00
C994   C     0.79077   0.97872   0.74985   0.00000  Uiso   1.00
C995   C     0.83327   0.95726   0.75022   0.00000  Uiso   1.00
C996   C     0.96672   0.86133   0.77914   0.00000  Uiso   1.00
C997   C     0.68293   0.86119   0.77935   0.00000  Uiso   1.00
C998   C     0.81229   0.83371   0.98970   0.00000  Uiso   1.00
C999   C     0.70012   0.80558   0.72043   0.00000  Uiso   1.00
C1000  C     0.98379   0.80556   0.72049   0.00000  Uiso   1.00
C1001  C     0.83332   0.75401   0.75002   0.00000  Uiso   1.00
C1002  C     0.85987   0.83353   0.64985   0.00000  Uiso   1.00
C1003  C     0.92963   0.86671   0.51329   0.00000  Uiso   1.00
C1004  C     0.87545   0.83756   0.59289   0.00000  Uiso   1.00
C1005  C     0.74083   0.82180   0.93747   0.00000  Uiso   1.00
C1006  C     0.73022   0.81229   0.99031   0.00000  Uiso   1.00
C1007  C     0.76542   0.81686   0.51559   0.00000  Uiso   1.00
C1008  C     0.69978   0.81786   0.91474   0.00000  Uiso   1.00
C1009  C     0.82258   0.84600   0.93680   0.00000  Uiso   1.00
C1010  C     0.84875   0.83988   0.51516   0.00000  Uiso   1.00
C1011  C     0.89362   0.86006   0.98846   0.00000  Uiso   1.00
C1012  C     0.90110   0.87510   0.93822   0.00000  Uiso   1.00
C1013  C     0.86555   0.86928   0.91350   0.00000  Uiso   1.00
C1014  C     0.84151   0.82761   0.56697   0.00000  Uiso   1.00
C1015  C     0.92042   0.85581   0.56549   0.00000  Uiso   1.00
Cu1016 Cu    0.78645   0.83333   0.75000   0.00000  Uiso   1.00
Cu1017 Cu    0.88022   0.83334   0.75000   0.00000  Uiso   1.00
H1018  H     0.90900   0.70396   0.75087   0.00000  Uiso   1.00
H1019  H     0.75348   0.80845   0.55623   0.00000  Uiso   1.00
H1020  H     0.69394   0.80128   0.51265   0.00000  Uiso   1.00
H1021  H     0.87135   0.88474   0.87666   0.00000  Uiso   1.00
H1022  H     0.90896   0.96270   0.75102   0.00000  Uiso   1.00
H1023  H     0.94728   0.86346   0.58501   0.00000  Uiso   1.00
H1024  H     0.96402   0.88194   0.99298   0.00000  Uiso   1.00
H1025  H     0.69539   0.83990   0.88640   0.00000  Uiso   1.00
H1026  H     0.75757   0.70396   0.74944   0.00000  Uiso   1.00
H1027  H     0.75755   0.96271   0.74956   0.00000  Uiso   1.00
H1028  H     0.94142   0.88401   0.80210   0.00000  Uiso   1.00
H1029  H     0.69477   0.88350   0.80286   0.00000  Uiso   1.00
H1030  H     0.72577   0.78338   0.69670   0.00000  Uiso   1.00
H1031  H     0.97198   0.78336   0.69682   0.00000  Uiso   1.00
H1032  H     0.93412   0.89233   0.91834   0.00000  Uiso   1.00
H1033  H     0.80899   0.81128   0.58909   0.00000  Uiso   1.00
N1034  N     0.71598   0.83332   0.74998   0.00000  Uiso   1.00
N1035  N     0.95069   0.83335   0.74999   0.00000  Uiso   1.00
O1036  O     0.79375   0.89345   0.75000   0.00000  Uiso   1.00
O1037  O     0.87294   0.89346   0.75000   0.00000  Uiso   1.00
O1038  O     0.77441   0.83332   0.82549   0.00000  Uiso   1.00
O1039  O     0.85360   0.83333   0.82549   0.00000  Uiso   1.00
O1040  O     0.79373   0.77321   0.74999   0.00000  Uiso   1.00
O1041  O     0.87292   0.77322   0.74999   0.00000  Uiso   1.00
O1042  O     0.81306   0.83334   0.67451   0.00000  Uiso   1.00
O1043  O     0.89225   0.83335   0.67451   0.00000  Uiso   1.00
O1044  O     0.66902   0.79067   0.92916   0.00000  Uiso   1.00
loop_
_geom_bond_atom_site_label_1
_geom_bond_atom_site_label_2
_geom_bond_distance
_geom_bond_site_symmetry_2
_ccdc_geom_bond_type
C1     O50     1.290   .     A
C1     C9      1.450   .     S
C1     O51     1.290   .     A
C2     C4      1.493   .     S
C2     C23     1.426   .     A
C2     C19     1.427   .     A
C3     C9      1.401   .     A
C3     H36     1.083   .     S
C3     C179    1.384   .     S
C4     O53     1.305   .     A
C4     O52     1.295   .     A
C5     H32     1.083   .     S
C5     C6      1.401   .     A
C5     C351    1.384   1_545 S
C6     C7      1.401   .     A
C6     C15     1.450   .     S
C7     H40     1.083   .     S
C7     C356    1.383   1_545 S
C8     H41     1.083   .     S
C8     C9      1.401   .     A
C8     C181    1.383   .     S
C10    H42     1.080   .     S
C10    N49     1.367   .     A
C10    C69     1.415   .     S
C11    H43     1.082   .     S
C11    N48     1.366   .     A
C11    C126    1.415   1_455 S
C12    C23     1.420   .     A
C12    C543    1.413   .     S
C12    C546    1.426   .     S
C13    N48     1.367   .     A
C13    H44     1.082   .     S
C13    C130    1.416   1_455 S
C14    H45     1.082   .     S
C14    N49     1.367   .     A
C14    C71     1.416   .     S
C15    O54     1.290   .     A
C15    O55     1.290   .     A
C16    O56     1.293   .     A
C16    O57     1.294   .     A
C16    C18     1.463   .     S
C17    C29     1.393   .     A
C17    C547    1.405   1_554 S
C17    H560    1.084   1_554 S
C18    C29     1.399   .     A
C18    C28     1.395   .     A
C19    C20     1.394   .     A
C19    C22     1.485   .     S
C20    C543    1.384   .     S
C20    H556    1.084   .     S
C21    H33     1.076   .     S
C21    C542    1.384   1_554 S
C21    C534    1.413   1_554 S
C22    O58     1.222   .     D
C22    H39     1.083   .     S
C23    C27     1.412   .     A
C24    C28     1.403   .     A
C24    C534    1.426   1_554 S
C24    C547    1.420   1_554 S
C25    C26     1.392   .     A
C25    C539    1.405   .     S
C25    C546    1.420   .     S
C26    C27     1.387   .     A
C26    H46     1.084   .     S
C27    H35     1.079   .     S
C28    H47     1.075   .     S
C29    H37     1.083   .     S
Cu30   O54     1.965   .     S
Cu30   O50     1.965   .     S
Cu30   N48     2.010   .     S
Cu30   Cu31    2.674   .     S
Cu30   O52     1.952   .     S
Cu30   O56     1.935   .     S
Cu31   O57     1.952   .     S
Cu31   O53     1.935   .     S
Cu31   N49     2.010   .     S
Cu31   O55     1.965   .     S
Cu31   O51     1.965   .     S
H34    C542    1.084   1_554 S
H38    C539    1.084   .     S
C59    O108    1.290   .     A
C59    C67     1.450   .     S
C59    O109    1.290   .     A
C60    C62     1.493   .     S
C60    C81     1.426   .     A
C60    C77     1.427   .     A
C61    C67     1.401   .     A
C61    H94     1.083   .     S
C61    C237    1.384   .     S
C62    O111    1.305   .     A
C62    O110    1.295   .     A
C63    H90     1.083   .     S
C63    C64     1.401   .     A
C63    C409    1.384   1_545 S
C64    C65     1.401   .     A
C64    C73     1.450   .     S
C65    H98     1.083   .     S
C65    C414    1.383   1_545 S
C66    H99     1.083   .     S
C66    C67     1.401   .     A
C66    C239    1.383   .     S
C68    H100    1.080   .     S
C68    N107    1.367   .     A
C68    C127    1.415   .     S
C69    H101    1.082   .     S
C69    N106    1.366   .     A
C70    C81     1.420   .     A
C70    C601    1.413   .     S
C70    C604    1.426   .     S
C71    N106    1.367   .     A
C71    H102    1.082   .     S
C72    H103    1.082   .     S
C72    N107    1.367   .     A
C72    C129    1.416   .     S
C73    O112    1.290   .     A
C73    O113    1.290   .     A
C74    O114    1.293   .     A
C74    O115    1.294   .     A
C74    C76     1.463   .     S
C75    C87     1.393   .     A
C75    C605    1.405   1_554 S
C75    H618    1.084   1_554 S
C76    C87     1.399   .     A
C76    C86     1.395   .     A
C77    C78     1.394   .     A
C77    C80     1.485   .     S
C78    C601    1.384   .     S
C78    H614    1.084   .     S
C79    H91     1.076   .     S
C79    C600    1.384   1_554 S
C79    C592    1.413   1_554 S
C80    O116    1.222   .     D
C80    H97     1.083   .     S
C81    C85     1.412   .     A
C82    C86     1.403   .     A
C82    C592    1.426   1_554 S
C82    C605    1.420   1_554 S
C83    C84     1.392   .     A
C83    C597    1.405   .     S
C83    C604    1.420   .     S
C84    C85     1.387   .     A
C84    H104    1.084   .     S
C85    H93     1.079   .     S
C86    H105    1.075   .     S
C87    H95     1.083   .     S
Cu88   O112    1.965   .     S
Cu88   O108    1.965   .     S
Cu88   N106    2.010   .     S
Cu88   Cu89    2.674   .     S
Cu88   O110    1.952   .     S
Cu88   O114    1.935   .     S
Cu89   O115    1.952   .     S
Cu89   O111    1.935   .     S
Cu89   N107    2.010   .     S
Cu89   O113    1.965   .     S
Cu89   O109    1.965   .     S
H92    C600    1.084   1_554 S
H96    C597    1.084   .     S
C117   O166    1.290   .     A
C117   C125    1.450   .     S
C117   O167    1.290   .     A
C118   C120    1.493   .     S
C118   C139    1.426   .     A
C118   C135    1.427   .     A
C119   C125    1.401   .     A
C119   H152    1.083   .     S
C119   C295    1.384   .     S
C120   O169    1.305   .     A
C120   O168    1.295   .     A
C121   H148    1.083   .     S
C121   C122    1.401   .     A
C121   C467    1.384   1_545 S
C122   C123    1.401   .     A
C122   C131    1.450   .     S
C123   H156    1.083   .     S
C123   C472    1.383   1_545 S
C124   H157    1.083   .     S
C124   C125    1.401   .     A
C124   C297    1.383   .     S
C126   H158    1.080   .     S
C126   N165    1.367   .     A
C126   C11     1.415   1_655 S
C127   H159    1.082   .     S
C127   N164    1.366   .     A
C128   C139    1.420   .     A
C128   C659    1.413   .     S
C128   C662    1.426   .     S
C129   N164    1.367   .     A
C129   H160    1.082   .     S
C130   H161    1.082   .     S
C130   N165    1.367   .     A
C130   C13     1.416   1_655 S
C131   O170    1.290   .     A
C131   O171    1.290   .     A
C132   O172    1.293   .     A
C132   O173    1.294   .     A
C132   C134    1.463   .     S
C133   C145    1.393   .     A
C133   C663    1.405   1_554 S
C133   H676    1.084   1_554 S
C134   C145    1.399   .     A
C134   C144    1.395   .     A
C135   C136    1.394   .     A
C135   C138    1.485   .     S
C136   C659    1.384   .     S
C136   H672    1.084   .     S
C137   H149    1.076   .     S
C137   C658    1.384   1_554 S
C137   C650    1.413   1_554 S
C138   O174    1.222   .     D
C138   H155    1.083   .     S
C139   C143    1.412   .     A
C140   C144    1.403   .     A
C140   C650    1.426   1_554 S
C140   C663    1.420   1_554 S
C141   C142    1.392   .     A
C141   C655    1.405   .     S
C141   C662    1.420   .     S
C142   C143    1.387   .     A
C142   H162    1.084   .     S
C143   H151    1.079   .     S
C144   H163    1.075   .     S
C145   H153    1.083   .     S
Cu146  O170    1.965   .     S
Cu146  O166    1.965   .     S
Cu146  N164    2.010   .     S
Cu146  Cu147   2.674   .     S
Cu146  O168    1.952   .     S
Cu146  O172    1.935   .     S
Cu147  O173    1.952   .     S
Cu147  O169    1.935   .     S
Cu147  N165    2.010   .     S
Cu147  O171    1.965   .     S
Cu147  O167    1.965   .     S
H150   C658    1.084   1_554 S
H154   C655    1.084   .     S
C175   O224    1.290   .     A
C175   C183    1.450   .     S
C175   O225    1.290   .     A
C176   C178    1.493   .     S
C176   C197    1.426   .     A
C176   C193    1.427   .     A
C177   C183    1.401   .     A
C177   H210    1.083   .     S
C177   C353    1.384   .     S
C178   O227    1.305   .     A
C178   O226    1.295   .     A
C179   H206    1.083   .     S
C179   C180    1.401   .     A
C180   C181    1.401   .     A
C180   C189    1.450   .     S
C181   H214    1.083   .     S
C182   H215    1.083   .     S
C182   C183    1.401   .     A
C182   C355    1.383   .     S
C184   H216    1.080   .     S
C184   N223    1.367   .     A
C184   C243    1.415   .     S
C185   H217    1.082   .     S
C185   N222    1.366   .     A
C185   C300    1.415   1_455 S
C186   C197    1.420   .     A
C186   C717    1.413   .     S
C186   C720    1.426   .     S
C187   N222    1.367   .     A
C187   H218    1.082   .     S
C187   C304    1.416   1_455 S
C188   H219    1.082   .     S
C188   N223    1.367   .     A
C188   C245    1.416   .     S
C189   O228    1.290   .     A
C189   O229    1.290   .     A
C190   O230    1.293   .     A
C190   O231    1.294   .     A
C190   C192    1.463   .     S
C191   C203    1.393   .     A
C191   C721    1.405   1_554 S
C191   H734    1.084   1_554 S
C192   C203    1.399   .     A
C192   C202    1.395   .     A
C193   C194    1.394   .     A
C193   C196    1.485   .     S
C194   C717    1.384   .     S
C194   H730    1.084   .     S
C195   H207    1.076   .     S
C195   C716    1.384   1_554 S
C195   C708    1.413   1_554 S
C196   O232    1.222   .     D
C196   H213    1.083   .     S
C197   C201    1.412   .     A
C198   C202    1.403   .     A
C198   C708    1.426   1_554 S
C198   C721    1.420   1_554 S
C199   C200    1.392   .     A
C199   C713    1.405   .     S
C199   C720    1.420   .     S
C200   C201    1.387   .     A
C200   H220    1.084   .     S
C201   H209    1.079   .     S
C202   H221    1.075   .     S
C203   H211    1.083   .     S
Cu204  O228    1.965   .     S
Cu204  O224    1.965   .     S
Cu204  N222    2.010   .     S
Cu204  Cu205   2.674   .     S
Cu204  O226    1.952   .     S
Cu204  O230    1.935   .     S
Cu205  O231    1.952   .     S
Cu205  O227    1.935   .     S
Cu205  N223    2.010   .     S
Cu205  O229    1.965   .     S
Cu205  O225    1.965   .     S
H208   C716    1.084   1_554 S
H212   C713    1.084   .     S
C233   O282    1.290   .     A
C233   C241    1.450   .     S
C233   O283    1.290   .     A
C234   C236    1.493   .     S
C234   C255    1.426   .     A
C234   C251    1.427   .     A
C235   C241    1.401   .     A
C235   H268    1.083   .     S
C235   C411    1.384   .     S
C236   O285    1.305   .     A
C236   O284    1.295   .     A
C237   H264    1.083   .     S
C237   C238    1.401   .     A
C238   C239    1.401   .     A
C238   C247    1.450   .     S
C239   H272    1.083   .     S
C240   H273    1.083   .     S
C240   C241    1.401   .     A
C240   C413    1.383   .     S
C242   H274    1.080   .     S
C242   N281    1.367   .     A
C242   C301    1.415   .     S
C243   H275    1.082   .     S
C243   N280    1.366   .     A
C244   C255    1.420   .     A
C244   C775    1.413   .     S
C244   C778    1.426   .     S
C245   N280    1.367   .     A
C245   H276    1.082   .     S
C246   H277    1.082   .     S
C246   N281    1.367   .     A
C246   C303    1.416   .     S
C247   O286    1.290   .     A
C247   O287    1.290   .     A
C248   O288    1.293   .     A
C248   O289    1.294   .     A
C248   C250    1.463   .     S
C249   C261    1.393   .     A
C249   C779    1.405   1_554 S
C249   H792    1.084   1_554 S
C250   C261    1.399   .     A
C250   C260    1.395   .     A
C251   C252    1.394   .     A
C251   C254    1.485   .     S
C252   C775    1.384   .     S
C252   H788    1.084   .     S
C253   H265    1.076   .     S
C253   C774    1.384   1_554 S
C253   C766    1.413   1_554 S
C254   O290    1.222   .     D
C254   H271    1.083   .     S
C255   C259    1.412   .     A
C256   C260    1.403   .     A
C256   C766    1.426   1_554 S
C256   C779    1.420   1_554 S
C257   C258    1.392   .     A
C257   C771    1.405   .     S
C257   C778    1.420   .     S
C258   C259    1.387   .     A
C258   H278    1.084   .     S
C259   H267    1.079   .     S
C260   H279    1.075   .     S
C261   H269    1.083   .     S
Cu262  O286    1.965   .     S
Cu262  O282    1.965   .     S
Cu262  N280    2.010   .     S
Cu262  Cu263   2.674   .     S
Cu262  O284    1.952   .     S
Cu262  O288    1.935   .     S
Cu263  O289    1.952   .     S
Cu263  O285    1.935   .     S
Cu263  N281    2.010   .     S
Cu263  O287    1.965   .     S
Cu263  O283    1.965   .     S
H266   C774    1.084   1_554 S
H270   C771    1.084   .     S
C291   O340    1.290   .     A
C291   C299    1.450   .     S
C291   O341    1.290   .     A
C292   C294    1.493   .     S
C292   C313    1.426   .     A
C292   C309    1.427   .     A
C293   C299    1.401   .     A
C293   H326    1.083   .     S
C293   C469    1.384   .     S
C294   O343    1.305   .     A
C294   O342    1.295   .     A
C295   H322    1.083   .     S
C295   C296    1.401   .     A
C296   C297    1.401   .     A
C296   C305    1.450   .     S
C297   H330    1.083   .     S
C298   H331    1.083   .     S
C298   C299    1.401   .     A
C298   C471    1.383   .     S
C300   H332    1.080   .     S
C300   N339    1.367   .     A
C300   C185    1.415   1_655 S
C301   H333    1.082   .     S
C301   N338    1.366   .     A
C302   C313    1.420   .     A
C302   C833    1.413   .     S
C302   C836    1.426   .     S
C303   N338    1.367   .     A
C303   H334    1.082   .     S
C304   H335    1.082   .     S
C304   N339    1.367   .     A
C304   C187    1.416   1_655 S
C305   O344    1.290   .     A
C305   O345    1.290   .     A
C306   O346    1.293   .     A
C306   O347    1.294   .     A
C306   C308    1.463   .     S
C307   C319    1.393   .     A
C307   C837    1.405   1_554 S
C307   H850    1.084   1_554 S
C308   C319    1.399   .     A
C308   C318    1.395   .     A
C309   C310    1.394   .     A
C309   C312    1.485   .     S
C310   C833    1.384   .     S
C310   H846    1.084   .     S
C311   H323    1.076   .     S
C311   C832    1.384   1_554 S
C311   C824    1.413   1_554 S
C312   O348    1.222   .     D
C312   H329    1.083   .     S
C313   C317    1.412   .     A
C314   C318    1.403   .     A
C314   C824    1.426   1_554 S
C314   C837    1.420   1_554 S
C315   C316    1.392   .     A
C315   C829    1.405   .     S
C315   C836    1.420   .     S
C316   C317    1.387   .     A
C316   H336    1.084   .     S
C317   H325    1.079   .     S
C318   H337    1.075   .     S
C319   H327    1.083   .     S
Cu320  O344    1.965   .     S
Cu320  O340    1.965   .     S
Cu320  N338    2.010   .     S
Cu320  Cu321   2.674   .     S
Cu320  O342    1.952   .     S
Cu320  O346    1.935   .     S
Cu321  O347    1.952   .     S
Cu321  O343    1.935   .     S
Cu321  N339    2.010   .     S
Cu321  O345    1.965   .     S
Cu321  O341    1.965   .     S
H324   C832    1.084   1_554 S
H328   C829    1.084   .     S
C349   O398    1.290   .     A
C349   C357    1.450   .     S
C349   O399    1.290   .     A
C350   C352    1.493   .     S
C350   C371    1.426   .     A
C350   C367    1.427   .     A
C351   C357    1.401   .     A
C351   H384    1.083   .     S
C351   C5      1.384   1_565 S
C352   O401    1.305   .     A
C352   O400    1.295   .     A
C353   H380    1.083   .     S
C353   C354    1.401   .     A
C354   C355    1.401   .     A
C354   C363    1.450   .     S
C355   H388    1.083   .     S
C356   H389    1.083   .     S
C356   C357    1.401   .     A
C356   C7      1.383   1_565 S
C358   H390    1.080   .     S
C358   N397    1.367   .     A
C358   C417    1.415   .     S
C359   H391    1.082   .     S
C359   N396    1.366   .     A
C359   C474    1.415   1_455 S
C360   C371    1.420   .     A
C360   C891    1.413   .     S
C360   C894    1.426   .     S
C361   N396    1.367   .     A
C361   H392    1.082   .     S
C361   C478    1.416   1_455 S
C362   H393    1.082   .     S
C362   N397    1.367   .     A
C362   C419    1.416   .     S
C363   O402    1.290   .     A
C363   O403    1.290   .     A
C364   O404    1.293   .     A
C364   O405    1.294   .     A
C364   C366    1.463   .     S
C365   C377    1.393   .     A
C365   C895    1.405   1_554 S
C365   H908    1.084   1_554 S
C366   C377    1.399   .     A
C366   C376    1.395   .     A
C367   C368    1.394   .     A
C367   C370    1.485   .     S
C368   C891    1.384   .     S
C368   H904    1.084   .     S
C369   H381    1.076   .     S
C369   C890    1.384   1_554 S
C369   C882    1.413   1_554 S
C370   O406    1.222   .     D
C370   H387    1.083   .     S
C371   C375    1.412   .     A
C372   C376    1.403   .     A
C372   C882    1.426   1_554 S
C372   C895    1.420   1_554 S
C373   C374    1.392   .     A
C373   C887    1.405   .     S
C373   C894    1.420   .     S
C374   C375    1.387   .     A
C374   H394    1.084   .     S
C375   H383    1.079   .     S
C376   H395    1.075   .     S
C377   H385    1.083   .     S
Cu378  O402    1.965   .     S
Cu378  O398    1.965   .     S
Cu378  N396    2.010   .     S
Cu378  Cu379   2.674   .     S
Cu378  O400    1.952   .     S
Cu378  O404    1.935   .     S
Cu379  O405    1.952   .     S
Cu379  O401    1.935   .     S
Cu379  N397    2.010   .     S
Cu379  O403    1.965   .     S
Cu379  O399    1.965   .     S
H382   C890    1.084   1_554 S
H386   C887    1.084   .     S
C407   O456    1.290   .     A
C407   C415    1.450   .     S
C407   O457    1.290   .     A
C408   C410    1.493   .     S
C408   C429    1.426   .     A
C408   C425    1.427   .     A
C409   C415    1.401   .     A
C409   H442    1.083   .     S
C409   C63     1.384   1_565 S
C410   O459    1.305   .     A
C410   O458    1.295   .     A
C411   H438    1.083   .     S
C411   C412    1.401   .     A
C412   C413    1.401   .     A
C412   C421    1.450   .     S
C413   H446    1.083   .     S
C414   H447    1.083   .     S
C414   C415    1.401   .     A
C414   C65     1.383   1_565 S
C416   H448    1.080   .     S
C416   N455    1.367   .     A
C416   C475    1.415   .     S
C417   H449    1.082   .     S
C417   N454    1.366   .     A
C418   C429    1.420   .     A
C418   C949    1.413   .     S
C418   C952    1.426   .     S
C419   N454    1.367   .     A
C419   H450    1.082   .     S
C420   H451    1.082   .     S
C420   N455    1.367   .     A
C420   C477    1.416   .     S
C421   O460    1.290   .     A
C421   O461    1.290   .     A
C422   O462    1.293   .     A
C422   O463    1.294   .     A
C422   C424    1.463   .     S
C423   C435    1.393   .     A
C423   C953    1.405   1_554 S
C423   H966    1.084   1_554 S
C424   C435    1.399   .     A
C424   C434    1.395   .     A
C425   C426    1.394   .     A
C425   C428    1.485   .     S
C426   C949    1.384   .     S
C426   H962    1.084   .     S
C427   H439    1.076   .     S
C427   C948    1.384   1_554 S
C427   C940    1.413   1_554 S
C428   O464    1.222   .     D
C428   H445    1.083   .     S
C429   C433    1.412   .     A
C430   C434    1.403   .     A
C430   C940    1.426   1_554 S
C430   C953    1.420   1_554 S
C431   C432    1.392   .     A
C431   C945    1.405   .     S
C431   C952    1.420   .     S
C432   C433    1.387   .     A
C432   H452    1.084   .     S
C433   H441    1.079   .     S
C434   H453    1.075   .     S
C435   H443    1.083   .     S
Cu436  O460    1.965   .     S
Cu436  O456    1.965   .     S
Cu436  N454    2.010   .     S
Cu436  Cu437   2.674   .     S
Cu436  O458    1.952   .     S
Cu436  O462    1.935   .     S
Cu437  O463    1.952   .     S
Cu437  O459    1.935   .     S
Cu437  N455    2.010   .     S
Cu437  O461    1.965   .     S
Cu437  O457    1.965   .     S
H440   C948    1.084   1_554 S
H444   C945    1.084   .     S
C465   O514    1.290   .     A
C465   C473    1.450   .     S
C465   O515    1.290   .     A
C466   C468    1.493   .     S
C466   C487    1.426   .     A
C466   C483    1.427   .     A
C467   C473    1.401   .     A
C467   H500    1.083   .     S
C467   C121    1.384   1_565 S
C468   O517    1.305   .     A
C468   O516    1.295   .     A
C469   H496    1.083   .     S
C469   C470    1.401   .     A
C470   C471    1.401   .     A
C470   C479    1.450   .     S
C471   H504    1.083   .     S
C472   H505    1.083   .     S
C472   C473    1.401   .     A
C472   C123    1.383   1_565 S
C474   H506    1.080   .     S
C474   N513    1.367   .     A
C474   C359    1.415   1_655 S
C475   H507    1.082   .     S
C475   N512    1.366   .     A
C476   C487    1.420   .     A
C476   C1007   1.413   .     S
C476   C1010   1.426   .     S
C477   N512    1.367   .     A
C477   H508    1.082   .     S
C478   H509    1.082   .     S
C478   N513    1.367   .     A
C478   C361    1.416   1_655 S
C479   O518    1.290   .     A
C479   O519    1.290   .     A
C480   O520    1.293   .     A
C480   O521    1.294   .     A
C480   C482    1.463   .     S
C481   C493    1.393   .     A
C481   C1011   1.405   1_554 S
C481   H1024   1.084   1_554 S
C482   C493    1.399   .     A
C482   C492    1.395   .     A
C483   C484    1.394   .     A
C483   C486    1.485   .     S
C484   C1007   1.384   .     S
C484   H1020   1.084   .     S
C485   H497    1.076   .     S
C485   C1006   1.384   1_554 S
C485   C998    1.413   1_554 S
C486   O522    1.222   .     D
C486   H503    1.083   .     S
C487   C491    1.412   .     A
C488   C492    1.403   .     A
C488   C998    1.426   1_554 S
C488   C1011   1.420   1_554 S
C489   C490    1.392   .     A
C489   C1003   1.405   .     S
C489   C1010   1.420   .     S
C490   C491    1.387   .     A
C490   H510    1.084   .     S
C491   H499    1.079   .     S
C492   H511    1.075   .     S
C493   H501    1.083   .     S
Cu494  O518    1.965   .     S
Cu494  O514    1.965   .     S
Cu494  N512    2.010   .     S
Cu494  Cu495   2.674   .     S
Cu494  O516    1.952   .     S
Cu494  O520    1.935   .     S
Cu495  O521    1.952   .     S
Cu495  O517    1.935   .     S
Cu495  N513    2.010   .     S
Cu495  O519    1.965   .     S
Cu495  O515    1.965   .     S
H498   C1006   1.084   1_554 S
H502   C1003   1.084   .     S
C523   O572    1.290   .     A
C523   C531    1.450   .     S
C523   O573    1.290   .     A
C524   C526    1.493   .     S
C524   C545    1.426   .     A
C524   C541    1.427   .     A
C525   C531    1.401   .     A
C525   H558    1.083   .     S
C525   C701    1.384   .     S
C526   O575    1.305   .     A
C526   O574    1.295   .     A
C527   H554    1.083   .     S
C527   C528    1.401   .     A
C527   C873    1.384   1_545 S
C528   C529    1.401   .     A
C528   C537    1.450   .     S
C529   H562    1.083   .     S
C529   C878    1.383   1_545 S
C530   H563    1.083   .     S
C530   C531    1.401   .     A
C530   C703    1.383   .     S
C532   H564    1.080   .     S
C532   N571    1.367   .     A
C532   C591    1.415   .     S
C533   H565    1.082   .     S
C533   N570    1.366   .     A
C533   C648    1.415   1_455 S
C534   C545    1.420   .     A
C534   C21     1.413   1_556 S
C534   C24     1.426   1_556 S
C535   N570    1.367   .     A
C535   H566    1.082   .     S
C535   C652    1.416   1_455 S
C536   H567    1.082   .     S
C536   N571    1.367   .     A
C536   C593    1.416   .     S
C537   O576    1.290   .     A
C537   O577    1.290   .     A
C538   O578    1.293   .     A
C538   O579    1.294   .     A
C538   C540    1.463   .     S
C539   C551    1.393   .     A
C540   C551    1.399   .     A
C540   C550    1.395   .     A
C541   C542    1.394   .     A
C541   C544    1.485   .     S
C542   C21     1.384   1_556 S
C542   H34     1.084   1_556 S
C543   H555    1.076   .     S
C544   O580    1.222   .     D
C544   H561    1.083   .     S
C545   C549    1.412   .     A
C546   C550    1.403   .     A
C547   C548    1.392   .     A
C547   C17     1.405   1_556 S
C547   C24     1.420   1_556 S
C548   C549    1.387   .     A
C548   H568    1.084   .     S
C549   H557    1.079   .     S
C550   H569    1.075   .     S
C551   H559    1.083   .     S
Cu552  O576    1.965   .     S
Cu552  O572    1.965   .     S
Cu552  N570    2.010   .     S
Cu552  Cu553   2.674   .     S
Cu552  O574    1.952   .     S
Cu552  O578    1.935   .     S
Cu553  O579    1.952   .     S
Cu553  O575    1.935   .     S
Cu553  N571    2.010   .     S
Cu553  O577    1.965   .     S
Cu553  O573    1.965   .     S
H560   C17     1.084   1_556 S
C581   O630    1.290   .     A
C581   C589    1.450   .     S
C581   O631    1.290   .     A
C582   C584    1.493   .     S
C582   C603    1.426   .     A
C582   C599    1.427   .     A
C583   C589    1.401   .     A
C583   H616    1.083   .     S
C583   C759    1.384   .     S
C584   O633    1.305   .     A
C584   O632    1.295   .     A
C585   H612    1.083   .     S
C585   C586    1.401   .     A
C585   C931    1.384   1_545 S
C586   C587    1.401   .     A
C586   C595    1.450   .     S
C587   H620    1.083   .     S
C587   C936    1.383   1_545 S
C588   H621    1.083   .     S
C588   C589    1.401   .     A
C588   C761    1.383   .     S
C590   H622    1.080   .     S
C590   N629    1.367   .     A
C590   C649    1.415   .     S
C591   H623    1.082   .     S
C591   N628    1.366   .     A
C592   C603    1.420   .     A
C592   C79     1.413   1_556 S
C592   C82     1.426   1_556 S
C593   N628    1.367   .     A
C593   H624    1.082   .     S
C594   H625    1.082   .     S
C594   N629    1.367   .     A
C594   C651    1.416   .     S
C595   O634    1.290   .     A
C595   O635    1.290   .     A
C596   O636    1.293   .     A
C596   O637    1.294   .     A
C596   C598    1.463   .     S
C597   C609    1.393   .     A
C598   C609    1.399   .     A
C598   C608    1.395   .     A
C599   C600    1.394   .     A
C599   C602    1.485   .     S
C600   C79     1.384   1_556 S
C600   H92     1.084   1_556 S
C601   H613    1.076   .     S
C602   O638    1.222   .     D
C602   H619    1.083   .     S
C603   C607    1.412   .     A
C604   C608    1.403   .     A
C605   C606    1.392   .     A
C605   C75     1.405   1_556 S
C605   C82     1.420   1_556 S
C606   C607    1.387   .     A
C606   H626    1.084   .     S
C607   H615    1.079   .     S
C608   H627    1.075   .     S
C609   H617    1.083   .     S
Cu610  O634    1.965   .     S
Cu610  O630    1.965   .     S
Cu610  N628    2.010   .     S
Cu610  Cu611   2.674   .     S
Cu610  O632    1.952   .     S
Cu610  O636    1.935   .     S
Cu611  O637    1.952   .     S
Cu611  O633    1.935   .     S
Cu611  N629    2.010   .     S
Cu611  O635    1.965   .     S
Cu611  O631    1.965   .     S
H618   C75     1.084   1_556 S
C639   O688    1.290   .     A
C639   C647    1.450   .     S
C639   O689    1.290   .     A
C640   C642    1.493   .     S
C640   C661    1.426   .     A
C640   C657    1.427   .     A
C641   C647    1.401   .     A
C641   H674    1.083   .     S
C641   C817    1.384   .     S
C642   O691    1.305   .     A
C642   O690    1.295   .     A
C643   H670    1.083   .     S
C643   C644    1.401   .     A
C643   C989    1.384   1_545 S
C644   C645    1.401   .     A
C644   C653    1.450   .     S
C645   H678    1.083   .     S
C645   C994    1.383   1_545 S
C646   H679    1.083   .     S
C646   C647    1.401   .     A
C646   C819    1.383   .     S
C648   H680    1.080   .     S
C648   N687    1.367   .     A
C648   C533    1.415   1_655 S
C649   H681    1.082   .     S
C649   N686    1.366   .     A
C650   C661    1.420   .     A
C650   C137    1.413   1_556 S
C650   C140    1.426   1_556 S
C651   N686    1.367   .     A
C651   H682    1.082   .     S
C652   H683    1.082   .     S
C652   N687    1.367   .     A
C652   C535    1.416   1_655 S
C653   O692    1.290   .     A
C653   O693    1.290   .     A
C654   O694    1.293   .     A
C654   O695    1.294   .     A
C654   C656    1.463   .     S
C655   C667    1.393   .     A
C656   C667    1.399   .     A
C656   C666    1.395   .     A
C657   C658    1.394   .     A
C657   C660    1.485   .     S
C658   C137    1.384   1_556 S
C658   H150    1.084   1_556 S
C659   H671    1.076   .     S
C660   O696    1.222   .     D
C660   H677    1.083   .     S
C661   C665    1.412   .     A
C662   C666    1.403   .     A
C663   C664    1.392   .     A
C663   C133    1.405   1_556 S
C663   C140    1.420   1_556 S
C664   C665    1.387   .     A
C664   H684    1.084   .     S
C665   H673    1.079   .     S
C666   H685    1.075   .     S
C667   H675    1.083   .     S
Cu668  O692    1.965   .     S
Cu668  O688    1.965   .     S
Cu668  N686    2.010   .     S
Cu668  Cu669   2.674   .     S
Cu668  O690    1.952   .     S
Cu668  O694    1.935   .     S
Cu669  O695    1.952   .     S
Cu669  O691    1.935   .     S
Cu669  N687    2.010   .     S
Cu669  O693    1.965   .     S
Cu669  O689    1.965   .     S
H676   C133    1.084   1_556 S
C697   O746    1.290   .     A
C697   C705    1.450   .     S
C697   O747    1.290   .     A
C698   C700    1.493   .     S
C698   C719    1.426   .     A
C698   C715    1.427   .     A
C699   C705    1.401   .     A
C699   H732    1.083   .     S
C699   C875    1.384   .     S
C700   O749    1.305   .     A
C700   O748    1.295   .     A
C701   H728    1.083   .     S
C701   C702    1.401   .     A
C702   C703    1.401   .     A
C702   C711    1.450   .     S
C703   H736    1.083   .     S
C704   H737    1.083   .     S
C704   C705    1.401   .     A
C704   C877    1.383   .     S
C706   H738    1.080   .     S
C706   N745    1.367   .     A
C706   C765    1.415   .     S
C707   H739    1.082   .     S
C707   N744    1.366   .     A
C707   C822    1.415   1_455 S
C708   C719    1.420   .     A
C708   C195    1.413   1_556 S
C708   C198    1.426   1_556 S
C709   N744    1.367   .     A
C709   H740    1.082   .     S
C709   C826    1.416   1_455 S
C710   H741    1.082   .     S
C710   N745    1.367   .     A
C710   C767    1.416   .     S
C711   O750    1.290   .     A
C711   O751    1.290   .     A
C712   O752    1.293   .     A
C712   O753    1.294   .     A
C712   C714    1.463   .     S
C713   C725    1.393   .     A
C714   C725    1.399   .     A
C714   C724    1.395   .     A
C715   C716    1.394   .     A
C715   C718    1.485   .     S
C716   C195    1.384   1_556 S
C716   H208    1.084   1_556 S
C717   H729    1.076   .     S
C718   O754    1.222   .     D
C718   H735    1.083   .     S
C719   C723    1.412   .     A
C720   C724    1.403   .     A
C721   C722    1.392   .     A
C721   C191    1.405   1_556 S
C721   C198    1.420   1_556 S
C722   C723    1.387   .     A
C722   H742    1.084   .     S
C723   H731    1.079   .     S
C724   H743    1.075   .     S
C725   H733    1.083   .     S
Cu726  O750    1.965   .     S
Cu726  O746    1.965   .     S
Cu726  N744    2.010   .     S
Cu726  Cu727   2.674   .     S
Cu726  O748    1.952   .     S
Cu726  O752    1.935   .     S
Cu727  O753    1.952   .     S
Cu727  O749    1.935   .     S
Cu727  N745    2.010   .     S
Cu727  O751    1.965   .     S
Cu727  O747    1.965   .     S
H734   C191    1.084   1_556 S
C755   O804    1.290   .     A
C755   C763    1.450   .     S
C755   O805    1.290   .     A
C756   C758    1.493   .     S
C756   C777    1.426   .     A
C756   C773    1.427   .     A
C757   C763    1.401   .     A
C757   H790    1.083   .     S
C757   C933    1.384   .     S
C758   O807    1.305   .     A
C758   O806    1.295   .     A
C759   H786    1.083   .     S
C759   C760    1.401   .     A
C760   C761    1.401   .     A
C760   C769    1.450   .     S
C761   H794    1.083   .     S
C762   H795    1.083   .     S
C762   C763    1.401   .     A
C762   C935    1.383   .     S
C764   H796    1.080   .     S
C764   N803    1.367   .     A
C764   C823    1.415   .     S
C765   H797    1.082   .     S
C765   N802    1.366   .     A
C766   C777    1.420   .     A
C766   C253    1.413   1_556 S
C766   C256    1.426   1_556 S
C767   N802    1.367   .     A
C767   H798    1.082   .     S
C768   H799    1.082   .     S
C768   N803    1.367   .     A
C768   C825    1.416   .     S
C769   O808    1.290   .     A
C769   O809    1.290   .     A
C770   O810    1.293   .     A
C770   O811    1.294   .     A
C770   C772    1.463   .     S
C771   C783    1.393   .     A
C772   C783    1.399   .     A
C772   C782    1.395   .     A
C773   C774    1.394   .     A
C773   C776    1.485   .     S
C774   C253    1.384   1_556 S
C774   H266    1.084   1_556 S
C775   H787    1.076   .     S
C776   O812    1.222   .     D
C776   H793    1.083   .     S
C777   C781    1.412   .     A
C778   C782    1.403   .     A
C779   C780    1.392   .     A
C779   C249    1.405   1_556 S
C779   C256    1.420   1_556 S
C780   C781    1.387   .     A
C780   H800    1.084   .     S
C781   H789    1.079   .     S
C782   H801    1.075   .     S
C783   H791    1.083   .     S
Cu784  O808    1.965   .     S
Cu784  O804    1.965   .     S
Cu784  N802    2.010   .     S
Cu784  Cu785   2.674   .     S
Cu784  O806    1.952   .     S
Cu784  O810    1.935   .     S
Cu785  O811    1.952   .     S
Cu785  O807    1.935   .     S
Cu785  N803    2.010   .     S
Cu785  O809    1.965   .     S
Cu785  O805    1.965   .     S
H792   C249    1.084   1_556 S
C813   O862    1.290   .     A
C813   C821    1.450   .     S
C813   O863    1.290   .     A
C814   C816    1.493   .     S
C814   C835    1.426   .     A
C814   C831    1.427   .     A
C815   C821    1.401   .     A
C815   H848    1.083   .     S
C815   C991    1.384   .     S
C816   O865    1.305   .     A
C816   O864    1.295   .     A
C817   H844    1.083   .     S
C817   C818    1.401   .     A
C818   C819    1.401   .     A
C818   C827    1.450   .     S
C819   H852    1.083   .     S
C820   H853    1.083   .     S
C820   C821    1.401   .     A
C820   C993    1.383   .     S
C822   H854    1.080   .     S
C822   N861    1.367   .     A
C822   C707    1.415   1_655 S
C823   H855    1.082   .     S
C823   N860    1.366   .     A
C824   C835    1.420   .     A
C824   C311    1.413   1_556 S
C824   C314    1.426   1_556 S
C825   N860    1.367   .     A
C825   H856    1.082   .     S
C826   H857    1.082   .     S
C826   N861    1.367   .     A
C826   C709    1.416   1_655 S
C827   O866    1.290   .     A
C827   O867    1.290   .     A
C828   O868    1.293   .     A
C828   O869    1.294   .     A
C828   C830    1.463   .     S
C829   C841    1.393   .     A
C830   C841    1.399   .     A
C830   C840    1.395   .     A
C831   C832    1.394   .     A
C831   C834    1.485   .     S
C832   C311    1.384   1_556 S
C832   H324    1.084   1_556 S
C833   H845    1.076   .     S
C834   O870    1.222   .     D
C834   H851    1.083   .     S
C835   C839    1.412   .     A
C836   C840    1.403   .     A
C837   C838    1.392   .     A
C837   C307    1.405   1_556 S
C837   C314    1.420   1_556 S
C838   C839    1.387   .     A
C838   H858    1.084   .     S
C839   H847    1.079   .     S
C840   H859    1.075   .     S
C841   H849    1.083   .     S
Cu842  O866    1.965   .     S
Cu842  O862    1.965   .     S
Cu842  N860    2.010   .     S
Cu842  Cu843   2.674   .     S
Cu842  O864    1.952   .     S
Cu842  O868    1.935   .     S
Cu843  O869    1.952   .     S
Cu843  O865    1.935   .     S
Cu843  N861    2.010   .     S
Cu843  O867    1.965   .     S
Cu843  O863    1.965   .     S
H850   C307    1.084   1_556 S
C871   O920    1.290   .     A
C871   C879    1.450   .     S
C871   O921    1.290   .     A
C872   C874    1.493   .     S
C872   C893    1.426   .     A
C872   C889    1.427   .     A
C873   C879    1.401   .     A
C873   H906    1.083   .     S
C873   C527    1.384   1_565 S
C874   O923    1.305   .     A
C874   O922    1.295   .     A
C875   H902    1.083   .     S
C875   C876    1.401   .     A
C876   C877    1.401   .     A
C876   C885    1.450   .     S
C877   H910    1.083   .     S
C878   H911    1.083   .     S
C878   C879    1.401   .     A
C878   C529    1.383   1_565 S
C880   H912    1.080   .     S
C880   N919    1.367   .     A
C880   C939    1.415   .     S
C881   H913    1.082   .     S
C881   N918    1.366   .     A
C881   C996    1.415   1_455 S
C882   C893    1.420   .     A
C882   C369    1.413   1_556 S
C882   C372    1.426   1_556 S
C883   N918    1.367   .     A
C883   H914    1.082   .     S
C883   C1000   1.416   1_455 S
C884   H915    1.082   .     S
C884   N919    1.367   .     A
C884   C941    1.416   .     S
C885   O924    1.290   .     A
C885   O925    1.290   .     A
C886   O926    1.293   .     A
C886   O927    1.294   .     A
C886   C888    1.463   .     S
C887   C899    1.393   .     A
C888   C899    1.399   .     A
C888   C898    1.395   .     A
C889   C890    1.394   .     A
C889   C892    1.485   .     S
C890   C369    1.384   1_556 S
C890   H382    1.084   1_556 S
C891   H903    1.076   .     S
C892   O928    1.222   .     D
C892   H909    1.083   .     S
C893   C897    1.412   .     A
C894   C898    1.403   .     A
C895   C896    1.392   .     A
C895   C365    1.405   1_556 S
C895   C372    1.420   1_556 S
C896   C897    1.387   .     A
C896   H916    1.084   .     S
C897   H905    1.079   .     S
C898   H917    1.075   .     S
C899   H907    1.083   .     S
Cu900  O924    1.965   .     S
Cu900  O920    1.965   .     S
Cu900  N918    2.010   .     S
Cu900  Cu901   2.674   .     S
Cu900  O922    1.952   .     S
Cu900  O926    1.935   .     S
Cu901  O927    1.952   .     S
Cu901  O923    1.935   .     S
Cu901  N919    2.010   .     S
Cu901  O925    1.965   .     S
Cu901  O921    1.965   .     S
H908   C365    1.084   1_556 S
C929   O978    1.290   .     A
C929   C937    1.450   .     S
C929   O979    1.290   .     A
C930   C932    1.493   .     S
C930   C951    1.426   .     A
C930   C947    1.427   .     A
C931   C937    1.401   .     A
C931   H964    1.083   .     S
C931   C585    1.384   1_565 S
C932   O981    1.305   .     A
C932   O980    1.295   .     A
C933   H960    1.083   .     S
C933   C934    1.401   .     A
C934   C935    1.401   .     A
C934   C943    1.450   .     S
C935   H968    1.083   .     S
C936   H969    1.083   .     S
C936   C937    1.401   .     A
C936   C587    1.383   1_565 S
C938   H970    1.080   .     S
C938   N977    1.367   .     A
C938   C997    1.415   .     S
C939   H971    1.082   .     S
C939   N976    1.366   .     A
C940   C951    1.420   .     A
C940   C427    1.413   1_556 S
C940   C430    1.426   1_556 S
C941   N976    1.367   .     A
C941   H972    1.082   .     S
C942   H973    1.082   .     S
C942   N977    1.367   .     A
C942   C999    1.416   .     S
C943   O982    1.290   .     A
C943   O983    1.290   .     A
C944   O984    1.293   .     A
C944   O985    1.294   .     A
C944   C946    1.463   .     S
C945   C957    1.393   .     A
C946   C957    1.399   .     A
C946   C956    1.395   .     A
C947   C948    1.394   .     A
C947   C950    1.485   .     S
C948   C427    1.384   1_556 S
C948   H440    1.084   1_556 S
C949   H961    1.076   .     S
C950   O986    1.222   .     D
C950   H967    1.083   .     S
C951   C955    1.412   .     A
C952   C956    1.403   .     A
C953   C954    1.392   .     A
C953   C423    1.405   1_556 S
C953   C430    1.420   1_556 S
C954   C955    1.387   .     A
C954   H974    1.084   .     S
C955   H963    1.079   .     S
C956   H975    1.075   .     S
C957   H965    1.083   .     S
Cu958  O982    1.965   .     S
Cu958  O978    1.965   .     S
Cu958  N976    2.010   .     S
Cu958  Cu959   2.674   .     S
Cu958  O980    1.952   .     S
Cu958  O984    1.935   .     S
Cu959  O985    1.952   .     S
Cu959  O981    1.935   .     S
Cu959  N977    2.010   .     S
Cu959  O983    1.965   .     S
Cu959  O979    1.965   .     S
H966   C423    1.084   1_556 S
C987   O1036   1.290   .     A
C987   C995    1.450   .     S
C987   O1037   1.290   .     A
C988   C990    1.493   .     S
C988   C1009   1.426   .     A
C988   C1005   1.427   .     A
C989   C995    1.401   .     A
C989   H1022   1.083   .     S
C989   C643    1.384   1_565 S
C990   O1039   1.305   .     A
C990   O1038   1.295   .     A
C991   H1018   1.083   .     S
C991   C992    1.401   .     A
C992   C993    1.401   .     A
C992   C1001   1.450   .     S
C993   H1026   1.083   .     S
C994   H1027   1.083   .     S
C994   C995    1.401   .     A
C994   C645    1.383   1_565 S
C996   H1028   1.080   .     S
C996   N1035   1.367   .     A
C996   C881    1.415   1_655 S
C997   H1029   1.082   .     S
C997   N1034   1.366   .     A
C998   C1009   1.420   .     A
C998   C485    1.413   1_556 S
C998   C488    1.426   1_556 S
C999   N1034   1.367   .     A
C999   H1030   1.082   .     S
C1000  H1031   1.082   .     S
C1000  N1035   1.367   .     A
C1000  C883    1.416   1_655 S
C1001  O1040   1.290   .     A
C1001  O1041   1.290   .     A
C1002  O1042   1.293   .     A
C1002  O1043   1.294   .     A
C1002  C1004   1.463   .     S
C1003  C1015   1.393   .     A
C1004  C1015   1.399   .     A
C1004  C1014   1.395   .     A
C1005  C1006   1.394   .     A
C1005  C1008   1.485   .     S
C1006  C485    1.384   1_556 S
C1006  H498    1.084   1_556 S
C1007  H1019   1.076   .     S
C1008  O1044   1.222   .     D
C1008  H1025   1.083   .     S
C1009  C1013   1.412   .     A
C1010  C1014   1.403   .     A
C1011  C1012   1.392   .     A
C1011  C481    1.405   1_556 S
C1011  C488    1.420   1_556 S
C1012  C1013   1.387   .     A
C1012  H1032   1.084   .     S
C1013  H1021   1.079   .     S
C1014  H1033   1.075   .     S
C1015  H1023   1.083   .     S
Cu1016 O1040   1.965   .     S
Cu1016 O1036   1.965   .     S
Cu1016 N1034   2.010   .     S
Cu1016 Cu1017  2.674   .     S
Cu1016 O1038   1.952   .     S
Cu1016 O1042   1.935   .     S
Cu1017 O1043   1.952   .     S
Cu1017 O1039   1.935   .     S
Cu1017 N1035   2.010   .     S
Cu1017 O1041   1.965   .     S
Cu1017 O1037   1.965   .     S
H1024  C481    1.084   1_556 S
